REMARK  Name = 
REMARK  3 active torsions:
REMARK  status: ('A' for Active; 'I' for Inactive)
REMARK    1  A    between atoms: C_2  and  C_4
REMARK    2  A    between atoms: C_7  and  C_8
REMARK    3  A    between atoms: C_8  and  C_9
REMARK                            x       y       z     vdW  Elec       q    Type
REMARK                         _______ _______ _______ _____ _____    ______ ____
ROOT
ATOM      1  C   UNL     1       5.050   3.149  -3.759  0.00  0.00    +0.000 C 
ATOM      2  C   UNL     1       5.725   4.496  -3.536  0.00  0.00    +0.000 C 
ATOM      3  C   UNL     1       4.488   4.428  -4.374  0.00  0.00    +0.000 C 
ENDROOT
BRANCH   1   4
ATOM      4  C   UNL     1       5.671   2.121  -4.700  0.00  0.00    +0.000 A 
ATOM      5  C   UNL     1       6.979   1.707  -4.545  0.00  0.00    +0.000 A 
ATOM      6  C   UNL     1       7.368   0.637  -5.305  0.00  0.00    +0.000 A 
ATOM      7  N   UNL     1       6.551   0.006  -6.164  0.00  0.00    +0.000 NA
ATOM      8  C   UNL     1       5.306   0.486  -6.310  0.00  0.00    +0.000 A 
ATOM      9  N   UNL     1       4.484  -0.110  -7.248  0.00  0.00    +0.000 N 
ATOM     10  C   UNL     1       3.174   0.496  -7.514  0.00  0.00    +0.000 C 
ATOM     11  C   UNL     1       2.062  -0.164  -6.686  0.00  0.00    +0.000 C 
ATOM     12  O   UNL     1       2.061  -1.592  -6.851  0.00  0.00    +0.000 OA
ATOM     13  C   UNL     1       3.320  -2.136  -6.422  0.00  0.00    +0.000 C 
ATOM     14  C   UNL     1       4.487  -1.579  -7.259  0.00  0.00    +0.000 C 
ATOM     15  N   UNL     1       4.856   1.535  -5.611  0.00  0.00    +0.000 NA
ENDBRANCH   1   4
BRANCH   1  19
ATOM     16  C   UNL     1       2.831   1.289  -0.509  0.00  0.00    +0.000 A 
ATOM     17  C   UNL     1       4.199   1.544  -0.364  0.00  0.00    +0.000 A 
ATOM     18  C   UNL     1       4.908   2.154  -1.403  0.00  0.00    +0.000 A 
ATOM     19  C   UNL     1       4.276   2.518  -2.604  0.00  0.00    +0.000 A 
ATOM     20  C   UNL     1       2.911   2.205  -2.742  0.00  0.00    +0.000 A 
ATOM     21  C   UNL     1       2.194   1.598  -1.711  0.00  0.00    +0.000 A 
BRANCH  16  23
ATOM     22  N   UNL     1       2.437   0.957   1.863  0.00  0.00    +0.000 N 
ATOM     23  C   UNL     1       2.024   0.694   0.586  0.00  0.00    +0.000 C 
ATOM     24  O   UNL     1       1.007   0.053   0.371  0.00  0.00    +0.000 OA
ATOM     25  H   UNL     1       1.800   0.679   2.598  0.00  0.00    +0.000 HD
ATOM     26  H   UNL     1       3.088   1.700   2.070  0.00  0.00    +0.000 HD
ENDBRANCH  16  23
ENDBRANCH   1  19
TORSDOF 3
