REMARK  Name = 
REMARK  5 active torsions:
REMARK  status: ('A' for Active; 'I' for Inactive)
REMARK    1  A    between atoms: C_1  and  C_2
REMARK    2  A    between atoms: C_12  and  C_13
REMARK    3  A    between atoms: C_13  and  N_14
REMARK    4  A    between atoms: N_14  and  C_15
REMARK    5  A    between atoms: C_18  and  C_19
REMARK                            x       y       z     vdW  Elec       q    Type
REMARK                         _______ _______ _______ _____ _____    ______ ____
ROOT
ATOM      1  C   UNL     1       6.979  -3.963   0.004  0.00  0.00    +0.000 C 
ATOM      2  C   UNL     1       8.236  -3.388   0.643  0.00  0.00    +0.000 C 
ATOM      3  C   UNL     1       7.794  -2.866  -0.680  0.00  0.00    +0.000 C 
ENDROOT
BRANCH   1  15
ATOM      4  C   UNL     1       0.849  -0.206   0.118  0.00  0.00    +0.000 C 
ATOM      5  C   UNL     1       2.376  -0.192   0.179  0.00  0.00    +0.000 C 
ATOM      6  C   UNL     1       2.952   0.974  -0.660  0.00  0.00    +0.000 C 
ATOM      7  O   UNL     1       2.747   0.782  -2.068  0.00  0.00    +0.000 OA
ATOM      8  C   UNL     1       3.428  -0.408  -2.500  0.00  0.00    +0.000 C 
ATOM      9  C   UNL     1       2.906  -1.656  -1.781  0.00  0.00    +0.000 C 
ATOM     10  N   UNL     1       2.871  -1.484  -0.322  0.00  0.00    +0.000 N 
ATOM     11  C   UNL     1       3.693  -2.271   0.456  0.00  0.00    +0.000 A 
ATOM     12  C   UNL     1       3.330  -2.613   1.755  0.00  0.00    +0.000 A 
ATOM     13  C   UNL     1       4.108  -3.507   2.481  0.00  0.00    +0.000 A 
ATOM     14  C   UNL     1       5.277  -3.992   1.913  0.00  0.00    +0.000 A 
ATOM     15  C   UNL     1       5.641  -3.563   0.636  0.00  0.00    +0.000 A 
ATOM     16  N   UNL     1       4.826  -2.752  -0.089  0.00  0.00    +0.000 NA
ENDBRANCH   1  15
BRANCH   1  17
ATOM     17  N   UNL     1       6.937  -5.243  -0.754  0.00  0.00    +0.000 N 
ATOM     18  H   UNL     1       6.130  -5.301  -1.378  0.00  0.00    +0.000 HD
BRANCH  17  19
ATOM     19  C   UNL     1       7.216  -6.488  -0.162  0.00  0.00    +0.000 A 
ATOM     20  C   UNL     1       7.057  -7.669  -0.902  0.00  0.00    +0.000 A 
ATOM     21  C   UNL     1       7.401  -8.902  -0.341  0.00  0.00    +0.000 A 
ATOM     22  C   UNL     1       7.918  -8.913   0.949  0.00  0.00    +0.000 A 
ATOM     23  N   UNL     1       8.126  -7.793   1.688  0.00  0.00    +0.000 NA
ATOM     24  C   UNL     1       7.789  -6.625   1.102  0.00  0.00    +0.000 A 
BRANCH  22  25
ATOM     25  C   UNL     1       8.290 -10.201   1.623  0.00  0.00    +0.000 C 
ATOM     26  N   UNL     1       8.777 -10.061   2.893  0.00  0.00    +0.000 N 
ATOM     27  O   UNL     1       8.157 -11.294   1.083  0.00  0.00    +0.000 OA
ATOM     28  H   UNL     1       8.871  -9.134   3.287  0.00  0.00    +0.000 HD
ATOM     29  H   UNL     1       9.055 -10.877   3.418  0.00  0.00    +0.000 HD
ENDBRANCH  22  25
ENDBRANCH  17  19
ENDBRANCH   1  17
TORSDOF 4
