REMARK  Name = 
REMARK  10 active torsions:
REMARK  status: ('A' for Active; 'I' for Inactive)
REMARK    1  A    between atoms: C_1  and  O_2
REMARK    2  A    between atoms: O_2  and  C_3
REMARK    3  A    between atoms: C_10  and  C_11
REMARK    4  A    between atoms: N_13  and  C_14
REMARK    5  A    between atoms: C_14  and  C_15
REMARK    6  A    between atoms: C_18  and  C_19
REMARK    7  A    between atoms: C_19  and  C_20
REMARK    8  A    between atoms: C_20  and  N_21
REMARK    9  A    between atoms: N_21  and  C_22
REMARK   10  A    between atoms: N_21  and  C_23
REMARK                            x       y       z     vdW  Elec       q    Type
REMARK                         _______ _______ _______ _____ _____    ______ ____
ROOT
ATOM      1  C   UNL     1       1.801   1.974   2.778  0.00  0.00    +0.000 A 
ATOM      2  C   UNL     1       0.494   1.568   2.479  0.00  0.00    +0.000 A 
ATOM      3  C   UNL     1      -0.466   2.500   2.064  0.00  0.00    +0.000 A 
ATOM      4  C   UNL     1      -0.142   3.858   1.938  0.00  0.00    +0.000 A 
ATOM      5  C   UNL     1       1.166   4.261   2.236  0.00  0.00    +0.000 A 
ATOM      6  C   UNL     1       2.127   3.329   2.647  0.00  0.00    +0.000 A 
ENDROOT
BRANCH   1   7
ATOM      7  C   UNL     1       2.849   0.968   3.171  0.00  0.00    +0.000 C 
BRANCH   7  10
ATOM      8  C   UNL     1       4.495  -0.524   2.120  0.00  0.00    +0.000 C 
ATOM      9  O   UNL     1       4.805  -0.991   3.213  0.00  0.00    +0.000 OA
ATOM     10  N   UNL     1       3.538   0.448   2.014  0.00  0.00    +0.000 N 
ATOM     11  H   UNL     1       3.331   0.866   1.116  0.00  0.00    +0.000 HD
BRANCH   8  19
ATOM     12  C   UNL     1       4.013   0.168  -1.225  0.00  0.00    +0.000 A 
ATOM     13  N   UNL     1       4.045   0.250  -2.571  0.00  0.00    +0.000 NA
ATOM     14  C   UNL     1       4.940  -0.494  -3.227  0.00  0.00    +0.000 A 
ATOM     15  N   UNL     1       5.827  -1.330  -2.696  0.00  0.00    +0.000 NA
ATOM     16  C   UNL     1       5.767  -1.377  -1.354  0.00  0.00    +0.000 A 
ATOM     17  S   UNL     1       6.825  -2.399  -0.508  0.00  0.00    +0.000 S 
ATOM     18  C   UNL     1       6.167  -1.924   0.984  0.00  0.00    +0.000 A 
ATOM     19  C   UNL     1       5.143  -0.990   0.880  0.00  0.00    +0.000 A 
ATOM     20  C   UNL     1       4.904  -0.665  -0.525  0.00  0.00    +0.000 A 
BRANCH  12  22
ATOM     21  C   UNL     1       1.965   1.287  -1.337  0.00  0.00    +0.000 C 
ATOM     22  O   UNL     1       3.111   0.963  -0.550  0.00  0.00    +0.000 OA
ENDBRANCH  12  22
ENDBRANCH   8  19
ENDBRANCH   7  10
ENDBRANCH   1   7
BRANCH   4  23
ATOM     23  C   UNL     1      -1.164   4.864   1.438  0.00  0.00    +0.000 C 
BRANCH  23  24
ATOM     24  C   UNL     1      -2.386   5.015   2.376  0.00  0.00    +0.000 C 
BRANCH  24  25
ATOM     25  N   UNL     1      -3.391   6.053   1.993  0.00  0.00    +0.000 NA
ATOM     26  C   UNL     1      -3.927   5.735   0.657  0.00  0.00    +0.000 C 
BRANCH  25  27
ATOM     27  C   UNL     1      -4.499   6.130   3.005  0.00  0.00    +0.000 C 
ATOM     28  C   UNL     1      -5.620   7.156   2.682  0.00  0.00    +0.000 C 
ATOM     29  C   UNL     1      -5.199   8.607   2.920  0.00  0.00    +0.000 C 
ATOM     30  N   UNL     1      -4.743   8.826   4.294  0.00  0.00    +0.000 NA
ATOM     31  C   UNL     1      -3.626   7.929   4.603  0.00  0.00    +0.000 C 
ATOM     32  C   UNL     1      -4.031   6.465   4.444  0.00  0.00    +0.000 C 
ATOM     33  H   UNL     1      -5.511   8.635   4.938  0.00  0.00    +0.000 HD
ENDBRANCH  25  27
ENDBRANCH  24  25
ENDBRANCH  23  24
ENDBRANCH   4  23
TORSDOF 8
