REMARK  Name = 
REMARK  5 active torsions:
REMARK  status: ('A' for Active; 'I' for Inactive)
REMARK    1  A    between atoms: C_2  and  C_3
REMARK    2  A    between atoms: C_7  and  N_8
REMARK    3  A    between atoms: N_8  and  C_9
REMARK    4  A    between atoms: C_9  and  C_10
REMARK    5  A    between atoms: C_15  and  C_16
REMARK                            x       y       z     vdW  Elec       q    Type
REMARK                         _______ _______ _______ _____ _____    ______ ____
ROOT
ATOM      1  C   UNL     1       7.964   2.566  -0.019  0.00  0.00    +0.000 C 
ATOM      2  C   UNL     1       7.188   1.500   0.756  0.00  0.00    +0.000 C 
ATOM      3  C   UNL     1       6.574   2.137  -0.443  0.00  0.00    +0.000 C 
ENDROOT
BRANCH   1   4
ATOM      4  C   UNL     1       8.071   3.957   0.599  0.00  0.00    +0.000 A 
ATOM      5  C   UNL     1       7.789   5.107  -0.148  0.00  0.00    +0.000 A 
ATOM      6  C   UNL     1       7.797   6.358   0.454  0.00  0.00    +0.000 A 
ATOM      7  F   UNL     1       7.487   7.440  -0.271  0.00  0.00    +0.000 F 
ATOM      8  C   UNL     1       8.103   6.507   1.802  0.00  0.00    +0.000 A 
ATOM      9  C   UNL     1       8.420   5.392   2.592  0.00  0.00    +0.000 A 
ATOM     10  C   UNL     1       8.401   4.131   1.960  0.00  0.00    +0.000 A 
BRANCH   9  11
ATOM     11  C   UNL     1       8.754   5.534   4.024  0.00  0.00    +0.000 A 
ATOM     12  C   UNL     1       8.188   6.534   4.830  0.00  0.00    +0.000 A 
ATOM     13  C   UNL     1       8.560   6.665   6.168  0.00  0.00    +0.000 A 
ATOM     14  C   UNL     1       9.485   5.776   6.683  0.00  0.00    +0.000 A 
ATOM     15  N   UNL     1      10.042   4.782   5.965  0.00  0.00    +0.000 NA
ATOM     16  C   UNL     1       9.667   4.690   4.665  0.00  0.00    +0.000 A 
ENDBRANCH   9  11
ENDBRANCH   1   4
BRANCH   1  17
ATOM     17  N   UNL     1       9.212   2.067  -0.613  0.00  0.00    +0.000 N 
ATOM     18  H   UNL     1      10.034   2.075  -0.010  0.00  0.00    +0.000 HD
BRANCH  17  23
ATOM     19  C   UNL     1      11.497   2.473  -3.313  0.00  0.00    +0.000 A 
ATOM     20  C   UNL     1      10.668   2.604  -4.412  0.00  0.00    +0.000 A 
ATOM     21  N   UNL     1       9.321   2.587  -4.298  0.00  0.00    +0.000 NA
ATOM     22  C   UNL     1       8.846   2.428  -3.031  0.00  0.00    +0.000 A 
ATOM     23  C   UNL     1       9.664   2.308  -1.911  0.00  0.00    +0.000 A 
ATOM     24  N   UNL     1      11.010   2.325  -2.049  0.00  0.00    +0.000 NA
BRANCH  19  26
ATOM     25  N   UNL     1      14.073   2.428  -3.631  0.00  0.00    +0.000 NA
ATOM     26  C   UNL     1      12.921   2.446  -3.467  0.00  0.00    +0.000 C 
ENDBRANCH  19  26
ENDBRANCH  17  23
ENDBRANCH   1  17
TORSDOF 5
