REMARK  Name = 
REMARK  9 active torsions:
REMARK  status: ('A' for Active; 'I' for Inactive)
REMARK    1  A    between atoms: C_1  and  O_2
REMARK    2  A    between atoms: O_2  and  C_3
REMARK    3  A    between atoms: C_5  and  C_6
REMARK    4  A    between atoms: C_6  and  N_7
REMARK    5  A    between atoms: C_8  and  C_10
REMARK    6  A    between atoms: N_16  and  C_17
REMARK    7  A    between atoms: C_23  and  C_24
REMARK    8  A    between atoms: C_24  and  N_25
REMARK    9  A    between atoms: C_26  and  C_28
REMARK                            x       y       z     vdW  Elec       q    Type
REMARK                         _______ _______ _______ _____ _____    ______ ____
ROOT
ATOM      1  C   UNL     1       2.907  -0.799  -0.846  0.00  0.00    +0.000 A 
ATOM      2  C   UNL     1       2.652  -1.126  -2.181  0.00  0.00    +0.000 A 
ATOM      3  C   UNL     1       3.334  -2.173  -2.802  0.00  0.00    +0.000 A 
ATOM      4  C   UNL     1       4.307  -2.822  -2.055  0.00  0.00    +0.000 A 
ATOM      5  N   UNL     1       4.607  -2.519  -0.769  0.00  0.00    +0.000 NA
ATOM      6  C   UNL     1       3.917  -1.501  -0.177  0.00  0.00    +0.000 A 
ENDROOT
BRANCH   1   8
ATOM      7  C   UNL     1       0.958   0.529  -0.702  0.00  0.00    +0.000 C 
ATOM      8  O   UNL     1       2.229   0.173  -0.162  0.00  0.00    +0.000 OA
ENDBRANCH   1   8
BRANCH   3   9
ATOM      9  C   UNL     1       3.009  -2.559  -4.215  0.00  0.00    +0.000 C 
BRANCH   9  10
ATOM     10  N   UNL     1       3.836  -1.868  -5.168  0.00  0.00    +0.000 N 
ATOM     11  C   UNL     1       3.478  -0.710  -5.806  0.00  0.00    +0.000 C 
ATOM     12  O   UNL     1       2.371  -0.197  -5.671  0.00  0.00    +0.000 OA
ATOM     13  H   UNL     1       4.807  -2.155  -5.192  0.00  0.00    +0.000 HD
BRANCH  11  14
ATOM     14  C   UNL     1       4.490  -0.140  -6.711  0.00  0.00    +0.000 A 
ATOM     15  C   UNL     1       4.108   0.700  -7.749  0.00  0.00    +0.000 A 
ATOM     16  S   UNL     1       5.415   1.249  -8.699  0.00  0.00    +0.000 S 
ATOM     17  C   UNL     1       6.541   0.418  -7.731  0.00  0.00    +0.000 A 
ATOM     18  N   UNL     1       7.873   0.495  -7.984  0.00  0.00    +0.000 NA
ATOM     19  C   UNL     1       8.617  -0.161  -7.154  0.00  0.00    +0.000 A 
ATOM     20  N   UNL     1       8.160  -0.908  -6.090  0.00  0.00    +0.000 N 
ATOM     21  C   UNL     1       9.077  -1.630  -5.233  0.00  0.00    +0.000 C 
ATOM     22  C   UNL     1       6.802  -1.058  -5.842  0.00  0.00    +0.000 A 
ATOM     23  O   UNL     1       6.372  -1.815  -4.974  0.00  0.00    +0.000 OA
ATOM     24  C   UNL     1       5.929  -0.297  -6.721  0.00  0.00    +0.000 A 
ENDBRANCH  11  14
ENDBRANCH   9  10
ENDBRANCH   3   9
BRANCH   6  25
ATOM     25  C   UNL     1       4.266  -1.200   1.268  0.00  0.00    +0.000 C 
BRANCH  25  26
ATOM     26  N   UNL     1       3.459  -1.954   2.208  0.00  0.00    +0.000 N 
ATOM     27  C   UNL     1       3.686  -1.934   3.566  0.00  0.00    +0.000 C 
ATOM     28  O   UNL     1       4.582  -1.252   4.059  0.00  0.00    +0.000 OA
ATOM     29  H   UNL     1       2.695  -2.513   1.854  0.00  0.00    +0.000 HD
BRANCH  27  30
ATOM     30  C   UNL     1       2.789  -2.765   4.367  0.00  0.00    +0.000 A 
ATOM     31  C   UNL     1       2.750  -2.868   5.746  0.00  0.00    +0.000 A 
ATOM     32  C   UNL     1       1.745  -3.777   6.202  0.00  0.00    +0.000 A 
ATOM     33  C   UNL     1       1.052  -4.341   5.159  0.00  0.00    +0.000 A 
ATOM     34  S   UNL     1       1.607  -3.780   3.643  0.00  0.00    +0.000 S 
ENDBRANCH  27  30
ENDBRANCH  25  26
ENDBRANCH   6  25
TORSDOF 7
