REMARK  Name = 
REMARK  7 active torsions:
REMARK  status: ('A' for Active; 'I' for Inactive)
REMARK    1  A    between atoms: N_1  and  C_2
REMARK    2  A    between atoms: C_2  and  C_3
REMARK    3  A    between atoms: C_6  and  C_7
REMARK    4  A    between atoms: C_7  and  C_8
REMARK    5  A    between atoms: C_11  and  C_12
REMARK    6  A    between atoms: C_12  and  N_13
REMARK    7  A    between atoms: C_14  and  C_16
REMARK                            x       y       z     vdW  Elec       q    Type
REMARK                         _______ _______ _______ _____ _____    ______ ____
ROOT
ATOM      1  C   UNL     1       7.658   0.837  -2.582  0.00  0.00    +0.000 A 
ATOM      2  C   UNL     1       7.706   0.039  -3.722  0.00  0.00    +0.000 A 
ATOM      3  C   UNL     1       8.812  -0.784  -3.931  0.00  0.00    +0.000 A 
ATOM      4  C   UNL     1       9.872  -0.771  -3.024  0.00  0.00    +0.000 A 
ATOM      5  C   UNL     1       9.747   0.072  -1.925  0.00  0.00    +0.000 A 
ATOM      6  N   UNL     1       8.670   0.862  -1.681  0.00  0.00    +0.000 NA
ENDROOT
BRANCH   1   7
ATOM      7  C   UNL     1       6.408   1.632  -2.265  0.00  0.00    +0.000 C 
BRANCH   7  11
ATOM      8  C   UNL     1       4.781   4.676  -4.009  0.00  0.00    +0.000 C 
ATOM      9  C   UNL     1       6.037   3.936  -4.500  0.00  0.00    +0.000 C 
ATOM     10  C   UNL     1       7.117   3.820  -3.422  0.00  0.00    +0.000 C 
ATOM     11  C   UNL     1       6.612   3.158  -2.128  0.00  0.00    +0.000 C 
ATOM     12  C   UNL     1       5.316   3.844  -1.646  0.00  0.00    +0.000 C 
ATOM     13  C   UNL     1       4.252   3.984  -2.740  0.00  0.00    +0.000 C 
BRANCH   8  14
ATOM     14  C   UNL     1       4.997   6.185  -3.757  0.00  0.00    +0.000 C 
BRANCH  14  15
ATOM     15  N   UNL     1       5.416   6.908  -4.955  0.00  0.00    +0.000 NA
ATOM     16  H   UNL     1       5.523   7.897  -4.724  0.00  0.00    +0.000 HD
ATOM     17  H   UNL     1       4.686   6.860  -5.661  0.00  0.00    +0.000 HD
ENDBRANCH  14  15
ENDBRANCH   8  14
ENDBRANCH   7  11
ENDBRANCH   1   7
BRANCH   4  18
ATOM     18  C   UNL     1      11.076  -1.647  -3.217  0.00  0.00    +0.000 C 
BRANCH  18  19
ATOM     19  N   UNL     1      10.899  -2.943  -2.608  0.00  0.00    +0.000 N 
ATOM     20  C   UNL     1      11.916  -3.869  -2.595  0.00  0.00    +0.000 C 
ATOM     21  O   UNL     1      13.021  -3.630  -3.074  0.00  0.00    +0.000 OA
ATOM     22  H   UNL     1       9.947  -3.261  -2.457  0.00  0.00    +0.000 HD
BRANCH  20  23
ATOM     23  C   UNL     1      11.635  -5.139  -1.917  0.00  0.00    +0.000 A 
ATOM     24  C   UNL     1      12.678  -5.887  -1.386  0.00  0.00    +0.000 A 
ATOM     25  S   UNL     1      12.168  -7.309  -0.595  0.00  0.00    +0.000 S 
ATOM     26  C   UNL     1      10.539  -7.001  -0.976  0.00  0.00    +0.000 A 
ATOM     27  N   UNL     1       9.557  -7.868  -0.607  0.00  0.00    +0.000 NA
ATOM     28  C   UNL     1       8.373  -7.524  -0.982  0.00  0.00    +0.000 A 
ATOM     29  N   UNL     1       8.078  -6.385  -1.688  0.00  0.00    +0.000 N 
ATOM     30  C   UNL     1       9.030  -5.470  -2.059  0.00  0.00    +0.000 A 
ATOM     31  O   UNL     1       8.731  -4.437  -2.651  0.00  0.00    +0.000 OA
ATOM     32  C   UNL     1      10.386  -5.818  -1.674  0.00  0.00    +0.000 A 
ATOM     33  H   UNL     1       7.125  -6.164  -1.939  0.00  0.00    +0.000 HD
ENDBRANCH  20  23
ENDBRANCH  18  19
ENDBRANCH   4  18
TORSDOF 7
