REMARK  Name = 
REMARK  7 active torsions:
REMARK  status: ('A' for Active; 'I' for Inactive)
REMARK    1  A    between atoms: C_2  and  C_21
REMARK    2  A    between atoms: N_3  and  C_4
REMARK    3  A    between atoms: C_4  and  C_5
REMARK    4  A    between atoms: C_8  and  C_9
REMARK    5  A    between atoms: C_9  and  O_10
REMARK    6  A    between atoms: C_9  and  C_11
REMARK    7  A    between atoms: C_11  and  N_12
REMARK                            x       y       z     vdW  Elec       q    Type
REMARK                         _______ _______ _______ _____ _____    ______ ____
ROOT
ATOM      1  C   UNL     1       3.157   0.343  -3.691  0.00  0.00    +0.000 A 
ATOM      2  C   UNL     1       3.418   1.659  -4.079  0.00  0.00    +0.000 A 
ATOM      3  C   UNL     1       4.308   1.914  -5.124  0.00  0.00    +0.000 A 
ATOM      4  C   UNL     1       4.917   0.845  -5.778  0.00  0.00    +0.000 A 
ATOM      5  N   UNL     1       4.623  -0.442  -5.453  0.00  0.00    +0.000 NA
ATOM      6  C   UNL     1       3.771  -0.663  -4.425  0.00  0.00    +0.000 A 
ENDROOT
BRANCH   1   7
ATOM      7  C   UNL     1       2.198   0.013  -2.582  0.00  0.00    +0.000 C 
BRANCH   7  10
ATOM      8  O   UNL     1       0.751  -2.339  -3.313  0.00  0.00    +0.000 OA
ATOM      9  C   UNL     1       0.294  -1.227  -3.543  0.00  0.00    +0.000 C 
ATOM     10  N   UNL     1       0.858  -0.048  -3.101  0.00  0.00    +0.000 N 
ATOM     11  H   UNL     1       0.513   0.811  -3.501  0.00  0.00    +0.000 HD
BRANCH   9  12
ATOM     12  C   UNL     1      -0.774  -0.981  -4.504  0.00  0.00    +0.000 A 
ATOM     13  C   UNL     1      -0.882  -1.680  -5.692  0.00  0.00    +0.000 A 
ATOM     14  S   UNL     1      -1.844  -0.839  -6.838  0.00  0.00    +0.000 S 
ATOM     15  C   UNL     1      -2.224   0.381  -5.708  0.00  0.00    +0.000 A 
ATOM     16  N   UNL     1      -2.898   1.511  -6.049  0.00  0.00    +0.000 NA
ATOM     17  C   UNL     1      -3.143   2.300  -5.055  0.00  0.00    +0.000 A 
ATOM     18  N   UNL     1      -2.820   2.038  -3.751  0.00  0.00    +0.000 N 
ATOM     19  C   UNL     1      -2.149   0.909  -3.352  0.00  0.00    +0.000 A 
ATOM     20  O   UNL     1      -1.921   0.669  -2.174  0.00  0.00    +0.000 OA
ATOM     21  C   UNL     1      -1.747   0.067  -4.454  0.00  0.00    +0.000 A 
ATOM     22  H   UNL     1      -3.117   2.659  -3.008  0.00  0.00    +0.000 HD
ENDBRANCH   9  12
ENDBRANCH   7  10
ENDBRANCH   1   7
BRANCH   4  23
ATOM     23  C   UNL     1       5.916   1.012  -6.917  0.00  0.00    +0.000 C 
BRANCH  23  24
ATOM     24  O   UNL     1       5.355   0.453  -8.122  0.00  0.00    +0.000 OA
ATOM     25  H   UNL     1       4.657  -0.162  -7.826  0.00  0.00    +0.000 HD
ENDBRANCH  23  24
BRANCH  23  26
ATOM     26  C   UNL     1       6.346   2.458  -7.211  0.00  0.00    +0.000 C 
BRANCH  26  27
ATOM     27  N   UNL     1       7.395   2.506  -8.229  0.00  0.00    +0.000 N 
ATOM     28  C   UNL     1       7.714   3.804  -8.602  0.00  0.00    +0.000 A 
ATOM     29  N   UNL     1       7.659   4.792  -7.692  0.00  0.00    +0.000 NA
ATOM     30  C   UNL     1       7.969   6.028  -8.114  0.00  0.00    +0.000 A 
ATOM     31  C   UNL     1       8.320   6.320  -9.407  0.00  0.00    +0.000 A 
ATOM     32  C   UNL     1       8.341   5.246 -10.264  0.00  0.00    +0.000 A 
ATOM     33  N   UNL     1       8.040   3.995  -9.883  0.00  0.00    +0.000 NA
ATOM     34  H   UNL     1       7.163   1.999  -9.080  0.00  0.00    +0.000 HD
ENDBRANCH  26  27
ENDBRANCH  23  26
ENDBRANCH   4  23
TORSDOF 7
