REMARK  Name = 
REMARK  6 active torsions:
REMARK  status: ('A' for Active; 'I' for Inactive)
REMARK    1  A    between atoms: C_2  and  C_4
REMARK    2  A    between atoms: N_8  and  C_9
REMARK    3  A    between atoms: C_9  and  C_10
REMARK    4  A    between atoms: C_10  and  C_13
REMARK    5  A    between atoms: C_17  and  O_18
REMARK    6  A    between atoms: O_18  and  C_19
REMARK                            x       y       z     vdW  Elec       q    Type
REMARK                         _______ _______ _______ _____ _____    ______ ____
ROOT
ATOM      1  C   UNL     1       5.102   4.400   4.154  0.00  0.00    +0.000 C 
ENDROOT
BRANCH   1   6
ATOM      2  C   UNL     1       3.059   1.334   0.629  0.00  0.00    +0.000 A 
ATOM      3  C   UNL     1       2.438   2.092   1.614  0.00  0.00    +0.000 A 
ATOM      4  C   UNL     1       3.198   2.996   2.356  0.00  0.00    +0.000 A 
ATOM      5  C   UNL     1       4.564   3.117   2.117  0.00  0.00    +0.000 A 
ATOM      6  N   UNL     1       5.360   4.053   2.751  0.00  0.00    +0.000 N 
ATOM      7  N   UNL     1       5.181   2.362   1.187  0.00  0.00    +0.000 NA
ATOM      8  C   UNL     1       4.426   1.488   0.468  0.00  0.00    +0.000 A 
ATOM      9  H   UNL     1       6.333   3.867   2.509  0.00  0.00    +0.000 HD
BRANCH   2  11
ATOM     10  N   UNL     1       0.993   0.646  -0.451  0.00  0.00    +0.000 N 
ATOM     11  C   UNL     1       2.321   0.389  -0.236  0.00  0.00    +0.000 C 
ATOM     12  O   UNL     1       2.879  -0.562  -0.766  0.00  0.00    +0.000 OA
ATOM     13  H   UNL     1       0.527   0.057  -1.131  0.00  0.00    +0.000 HD
ATOM     14  H   UNL     1       0.571   1.540  -0.246  0.00  0.00    +0.000 HD
ENDBRANCH   2  11
ENDBRANCH   1   6
BRANCH   1  15
ATOM     15  C   UNL     1       6.134   5.400   4.744  0.00  0.00    +0.000 C 
ATOM     16  F   UNL     1       7.362   4.801   4.737  0.00  0.00    +0.000 F 
ATOM     17  F   UNL     1       6.251   6.471   3.905  0.00  0.00    +0.000 F 
BRANCH  15  18
ATOM     18  C   UNL     1       5.719   5.830   6.131  0.00  0.00    +0.000 A 
ATOM     19  C   UNL     1       6.156   5.131   7.250  0.00  0.00    +0.000 A 
ATOM     20  N   UNL     1       5.775   5.422   8.513  0.00  0.00    +0.000 NA
ATOM     21  C   UNL     1       4.927   6.467   8.671  0.00  0.00    +0.000 A 
ATOM     22  C   UNL     1       4.449   7.245   7.626  0.00  0.00    +0.000 A 
ATOM     23  C   UNL     1       4.848   6.912   6.336  0.00  0.00    +0.000 A 
BRANCH  22  24
ATOM     24  O   UNL     1       3.572   8.249   7.939  0.00  0.00    +0.000 OA
BRANCH  24  25
ATOM     25  C   UNL     1       3.594   9.440   7.126  0.00  0.00    +0.000 C 
ATOM     26  C   UNL     1       2.622  10.548   7.559  0.00  0.00    +0.000 C 
ATOM     27  C   UNL     1       2.260  10.604   6.080  0.00  0.00    +0.000 C 
ATOM     28  O   UNL     1       2.897   9.322   5.850  0.00  0.00    +0.000 OA
ENDBRANCH  24  25
ENDBRANCH  22  24
ENDBRANCH  15  18
ENDBRANCH   1  15
TORSDOF 6
