REMARK  Name = 
REMARK  5 active torsions:
REMARK  status: ('A' for Active; 'I' for Inactive)
REMARK    1  A    between atoms: C_2  and  C_5
REMARK    2  A    between atoms: C_8  and  C_9
REMARK    3  A    between atoms: C_13  and  N_14
REMARK    4  A    between atoms: N_14  and  C_15
REMARK    5  A    between atoms: C_15  and  C_16
REMARK                            x       y       z     vdW  Elec       q    Type
REMARK                         _______ _______ _______ _____ _____    ______ ____
ROOT
ATOM      1  C   UNL     1       4.209   5.276   0.840  0.00  0.00    +0.000 A 
ATOM      2  C   UNL     1       3.521   6.123   1.709  0.00  0.00    +0.000 A 
ATOM      3  N   UNL     1       3.885   7.404   1.946  0.00  0.00    +0.000 NA
ATOM      4  C   UNL     1       4.978   7.812   1.264  0.00  0.00    +0.000 A 
ATOM      5  C   UNL     1       5.736   6.984   0.427  0.00  0.00    +0.000 A 
ATOM      6  N   UNL     1       5.345   5.706   0.206  0.00  0.00    +0.000 NA
ENDROOT
BRANCH   1  10
ATOM      7  C   UNL     1       2.616   1.420  -0.016  0.00  0.00    +0.000 A 
ATOM      8  C   UNL     1       3.802   1.810  -0.640  0.00  0.00    +0.000 A 
ATOM      9  C   UNL     1       4.353   3.064  -0.365  0.00  0.00    +0.000 A 
ATOM     10  C   UNL     1       3.713   3.915   0.535  0.00  0.00    +0.000 A 
ATOM     11  N   UNL     1       2.560   3.535   1.155  0.00  0.00    +0.000 NA
ATOM     12  C   UNL     1       2.042   2.317   0.869  0.00  0.00    +0.000 A 
BRANCH   7  14
ATOM     13  F   UNL     1       2.630  -0.687  -1.150  0.00  0.00    +0.000 F 
ATOM     14  C   UNL     1       1.953   0.102  -0.270  0.00  0.00    +0.000 C 
ATOM     15  F   UNL     1       0.699   0.238  -0.781  0.00  0.00    +0.000 F 
ATOM     16  F   UNL     1       1.815  -0.639   0.864  0.00  0.00    +0.000 F 
ENDBRANCH   7  14
ENDBRANCH   1  10
BRANCH   5  17
ATOM     17  N   UNL     1       6.829   7.535  -0.265  0.00  0.00    +0.000 N 
ATOM     18  H   UNL     1       7.268   8.266   0.287  0.00  0.00    +0.000 HD
BRANCH  17  19
ATOM     19  C   UNL     1       7.819   6.565  -0.715  0.00  0.00    +0.000 C 
BRANCH  19  20
ATOM     20  C   UNL     1       8.931   7.301  -1.418  0.00  0.00    +0.000 A 
ATOM     21  C   UNL     1       8.701   8.006  -2.604  0.00  0.00    +0.000 A 
ATOM     22  C   UNL     1       9.747   8.690  -3.221  0.00  0.00    +0.000 A 
ATOM     23  C   UNL     1      10.996   8.645  -2.627  0.00  0.00    +0.000 A 
ATOM     24  N   UNL     1      11.259   7.974  -1.486  0.00  0.00    +0.000 NA
ATOM     25  C   UNL     1      10.226   7.321  -0.909  0.00  0.00    +0.000 A 
ENDBRANCH  19  20
ENDBRANCH  17  19
ENDBRANCH   5  17
TORSDOF 5
