REMARK  Name = 
REMARK  7 active torsions:
REMARK  status: ('A' for Active; 'I' for Inactive)
REMARK    1  A    between atoms: N_1  and  C_2
REMARK    2  A    between atoms: C_2  and  C_3
REMARK    3  A    between atoms: C_3  and  O_4
REMARK    4  A    between atoms: O_4  and  C_5
REMARK    5  A    between atoms: N_10  and  C_11
REMARK    6  A    between atoms: C_11  and  C_12
REMARK    7  A    between atoms: C_21  and  N_22
REMARK                            x       y       z     vdW  Elec       q    Type
REMARK                         _______ _______ _______ _____ _____    ______ ____
ROOT
ATOM      1  C   UNL     1       5.126  -2.112  -1.339  0.00  0.00    +0.000 A 
ATOM      2  C   UNL     1       6.160  -2.787  -0.672  0.00  0.00    +0.000 A 
ATOM      3  C   UNL     1       6.782  -3.888  -1.278  0.00  0.00    +0.000 A 
ATOM      4  C   UNL     1       7.827  -4.762  -0.925  0.00  0.00    +0.000 A 
ATOM      5  N   UNL     1       8.063  -5.685  -1.855  0.00  0.00    +0.000 NA
ATOM      6  N   UNL     1       7.188  -5.370  -2.839  0.00  0.00    +0.000 N 
ATOM      7  C   UNL     1       6.356  -4.317  -2.528  0.00  0.00    +0.000 A 
ATOM      8  C   UNL     1       5.305  -3.681  -3.210  0.00  0.00    +0.000 A 
ATOM      9  C   UNL     1       4.728  -2.535  -2.628  0.00  0.00    +0.000 A 
ENDROOT
BRANCH   9  10
ATOM     10  N   UNL     1       3.620  -1.941  -3.272  0.00  0.00    +0.000 N 
ATOM     11  H   UNL     1       3.660  -2.006  -4.283  0.00  0.00    +0.000 HD
ATOM     12  H   UNL     1       3.487  -0.986  -2.945  0.00  0.00    +0.000 HD
ENDBRANCH   9  10
BRANCH   1  13
ATOM     13  O   UNL     1       4.469  -1.016  -0.799  0.00  0.00    +0.000 OA
BRANCH  13  14
ATOM     14  C   UNL     1       4.961  -0.593   0.485  0.00  0.00    +0.000 C 
BRANCH  14  15
ATOM     15  C   UNL     1       4.190   0.616   1.023  0.00  0.00    +0.000 C 
BRANCH  15  16
ATOM     16  N   UNL     1       4.357   1.802   0.184  0.00  0.00    +0.000 NA
ATOM     17  H   UNL     1       3.757   2.548   0.533  0.00  0.00    +0.000 HD
ATOM     18  H   UNL     1       4.027   1.578  -0.756  0.00  0.00    +0.000 HD
ENDBRANCH  15  16
ENDBRANCH  14  15
ENDBRANCH  13  14
ENDBRANCH   1  13
BRANCH   6  19
ATOM     19  C   UNL     1       7.298  -6.060  -4.120  0.00  0.00    +0.000 C 
BRANCH  19  20
ATOM     20  C   UNL     1       8.120  -5.250  -5.096  0.00  0.00    +0.000 A 
ATOM     21  C   UNL     1       9.463  -4.946  -4.820  0.00  0.00    +0.000 A 
ATOM     22  C   UNL     1      10.198  -4.126  -5.676  0.00  0.00    +0.000 A 
ATOM     23  C   UNL     1       9.604  -3.612  -6.826  0.00  0.00    +0.000 A 
ATOM     24  C   UNL     1       8.283  -3.940  -7.125  0.00  0.00    +0.000 A 
ATOM     25 CL   UNL     1       7.549  -3.314  -8.551  0.00  0.00    +0.000 Cl
ATOM     26  C   UNL     1       7.542  -4.759  -6.273  0.00  0.00    +0.000 A 
ENDBRANCH  19  20
ENDBRANCH   6  19
TORSDOF 7
