REMARK  Name = 
REMARK  5 active torsions:
REMARK  status: ('A' for Active; 'I' for Inactive)
REMARK    1  A    between atoms: N_1  and  C_2
REMARK    2  A    between atoms: C_2  and  C_3
REMARK    3  A    between atoms: C_3  and  C_4
REMARK    4  A    between atoms: C_7  and  C_8
REMARK    5  A    between atoms: C_8  and  N_9
REMARK                            x       y       z     vdW  Elec       q    Type
REMARK                         _______ _______ _______ _____ _____    ______ ____
ROOT
ATOM      1  C   UNL     1       4.606  -0.447   1.315  0.00  0.00    +0.000 A 
ATOM      2  C   UNL     1       5.315  -0.902   2.434  0.00  0.00    +0.000 A 
ATOM      3  C   UNL     1       6.712  -0.924   2.429  0.00  0.00    +0.000 A 
ATOM      4  C   UNL     1       7.428  -0.492   1.304  0.00  0.00    +0.000 A 
ATOM      5  C   UNL     1       6.714  -0.013   0.195  0.00  0.00    +0.000 A 
ATOM      6  C   UNL     1       5.319   0.013   0.202  0.00  0.00    +0.000 A 
ENDROOT
BRANCH   1   7
ATOM      7  C   UNL     1       3.099  -0.460   1.304  0.00  0.00    +0.000 C 
BRANCH   7   8
ATOM      8  C   UNL     1       2.512   0.854   1.838  0.00  0.00    +0.000 C 
BRANCH   8   9
ATOM      9  N   UNL     1       1.050   0.818   1.832  0.00  0.00    +0.000 NA
ATOM     10  H   UNL     1       0.693   1.691   2.213  0.00  0.00    +0.000 HD
ATOM     11  H   UNL     1       0.723   0.079   2.454  0.00  0.00    +0.000 HD
ENDBRANCH   8   9
ENDBRANCH   7   8
ENDBRANCH   1   7
BRANCH   4  12
ATOM     12  C   UNL     1       8.930  -0.681   1.218  0.00  0.00    +0.000 C 
BRANCH  12  13
ATOM     13  N   UNL     1       9.221  -1.884   0.454  0.00  0.00    +0.000 N 
ATOM     14  N   UNL     1       9.365  -1.798  -0.887  0.00  0.00    +0.000 NA
ATOM     15  N   UNL     1       8.965  -2.956  -1.399  0.00  0.00    +0.000 NA
ATOM     16  C   UNL     1       8.656  -3.794  -0.361  0.00  0.00    +0.000 A 
ATOM     17  C   UNL     1       8.091  -5.076  -0.351  0.00  0.00    +0.000 A 
ATOM     18  C   UNL     1       7.894  -5.709   0.884  0.00  0.00    +0.000 A 
ATOM     19  C   UNL     1       8.283  -5.095   2.078  0.00  0.00    +0.000 A 
ATOM     20  C   UNL     1       8.821  -3.804   2.089  0.00  0.00    +0.000 A 
ATOM     21  C   UNL     1       8.955  -3.175   0.847  0.00  0.00    +0.000 A 
ENDBRANCH  12  13
ENDBRANCH   4  12
TORSDOF 5
