REMARK  Name = 
REMARK  3 active torsions:
REMARK  status: ('A' for Active; 'I' for Inactive)
REMARK    1  A    between atoms: N_6  and  C_7
REMARK    2  A    between atoms: C_7  and  C_8
REMARK    3  A    between atoms: C_12  and  C_13
REMARK                            x       y       z     vdW  Elec       q    Type
REMARK                         _______ _______ _______ _____ _____    ______ ____
ROOT
ATOM      1  C   UNL     1      -5.883   0.980   0.066  0.00  0.00    +0.000 A 
ATOM      2  C   UNL     1      -6.763   2.051   0.092  0.00  0.00    +0.000 A 
ATOM      3  N   UNL     1      -8.105   1.921   0.117  0.00  0.00    +0.000 NA
ATOM      4  C   UNL     1      -8.598   0.659   0.127  0.00  0.00    +0.000 A 
ATOM      5  C   UNL     1      -7.827  -0.507   0.106  0.00  0.00    +0.000 A 
ATOM      6  C   UNL     1      -6.436  -0.311   0.077  0.00  0.00    +0.000 A 
ENDROOT
BRANCH   5   7
ATOM      7  C   UNL     1      -8.436  -1.848   0.127  0.00  0.00    +0.000 A 
ATOM      8  C   UNL     1      -9.657  -2.151  -0.460  0.00  0.00    +0.000 A 
ATOM      9  N   UNL     1     -10.250  -3.366  -0.437  0.00  0.00    +0.000 NA
ATOM     10  C   UNL     1      -9.574  -4.329   0.203  0.00  0.00    +0.000 A 
ATOM     11  N   UNL     1      -8.387  -4.183   0.804  0.00  0.00    +0.000 NA
ATOM     12  C   UNL     1      -7.852  -2.941   0.750  0.00  0.00    +0.000 A 
ENDBRANCH   5   7
BRANCH   1  13
ATOM     13  C   UNL     1      -4.394   1.200   0.022  0.00  0.00    +0.000 C 
BRANCH  13  19
ATOM     14 CL   UNL     1       1.832   2.504   1.594  0.00  0.00    +0.000 Cl
ATOM     15  C   UNL     1       0.169   2.122   1.520  0.00  0.00    +0.000 A 
ATOM     16  C   UNL     1      -0.720   2.482   2.503  0.00  0.00    +0.000 A 
ATOM     17  N   UNL     1      -2.044   2.198   2.459  0.00  0.00    +0.000 NA
ATOM     18  C   UNL     1      -2.486   1.516   1.394  0.00  0.00    +0.000 A 
ATOM     19  N   UNL     1      -3.845   1.229   1.362  0.00  0.00    +0.000 N 
ATOM     20  N   UNL     1      -1.693   1.126   0.382  0.00  0.00    +0.000 NA
ATOM     21  C   UNL     1      -0.380   1.436   0.468  0.00  0.00    +0.000 A 
ATOM     22  H   UNL     1      -4.293   1.858   2.017  0.00  0.00    +0.000 HD
ENDBRANCH  13  19
ENDBRANCH   1  13
TORSDOF 3
