REMARK  Name = 
REMARK  6 active torsions:
REMARK  status: ('A' for Active; 'I' for Inactive)
REMARK    1  A    between atoms: N_1  and  C_2
REMARK    2  A    between atoms: C_2  and  C_3
REMARK    3  A    between atoms: C_3  and  N_4
REMARK    4  A    between atoms: C_7  and  C_8
REMARK    5  A    between atoms: C_8  and  N_9
REMARK    6  A    between atoms: C_15  and  C_16
REMARK                            x       y       z     vdW  Elec       q    Type
REMARK                         _______ _______ _______ _____ _____    ______ ____
ROOT
ATOM      1  N   UNL     1       7.365  -0.269  -4.580  0.00  0.00    +0.000 N 
ATOM      2  C   UNL     1       6.620  -1.257  -5.166  0.00  0.00    +0.000 A 
ATOM      3  N   UNL     1       7.377  -2.180  -5.711  0.00  0.00    +0.000 NA
ATOM      4  C   UNL     1       8.659  -1.754  -5.507  0.00  0.00    +0.000 A 
ATOM      5  N   UNL     1       9.771  -2.389  -5.934  0.00  0.00    +0.000 NA
ATOM      6  C   UNL     1      10.929  -1.743  -5.643  0.00  0.00    +0.000 A 
ATOM      7  C   UNL     1      11.046  -0.529  -4.960  0.00  0.00    +0.000 A 
ATOM      8  C   UNL     1       9.885   0.105  -4.512  0.00  0.00    +0.000 A 
ATOM      9  C   UNL     1       8.687  -0.548  -4.812  0.00  0.00    +0.000 A 
ENDROOT
BRANCH   7  10
ATOM     10  C   UNL     1      12.405   0.031  -4.764  0.00  0.00    +0.000 C 
ATOM     11  N   UNL     1      12.536   1.219  -4.101  0.00  0.00    +0.000 N 
ATOM     12  O   UNL     1      13.400  -0.547  -5.189  0.00  0.00    +0.000 OA
ATOM     13  H   UNL     1      11.788   1.766  -3.710  0.00  0.00    +0.000 HD
ATOM     14  H   UNL     1      13.481   1.575  -3.998  0.00  0.00    +0.000 HD
ENDBRANCH   7  10
BRANCH   1  15
ATOM     15  C   UNL     1       6.829   0.905  -3.919  0.00  0.00    +0.000 C 
BRANCH  15  19
ATOM     16  N   UNL     1       4.459   0.970  -1.063  0.00  0.00    +0.000 NA
ATOM     17  C   UNL     1       5.019  -0.262  -1.634  0.00  0.00    +0.000 C 
ATOM     18  C   UNL     1       6.545  -0.230  -1.627  0.00  0.00    +0.000 C 
ATOM     19  C   UNL     1       7.094   0.973  -2.400  0.00  0.00    +0.000 C 
ATOM     20  C   UNL     1       6.474   2.244  -1.797  0.00  0.00    +0.000 C 
ATOM     21  C   UNL     1       4.943   2.180  -1.747  0.00  0.00    +0.000 C 
BRANCH  16  22
ATOM     22  C   UNL     1       2.979   0.953  -1.057  0.00  0.00    +0.000 C 
BRANCH  22  23
ATOM     23  C   UNL     1       2.364  -0.188  -0.217  0.00  0.00    +0.000 C 
BRANCH  23  24
ATOM     24  N   UNL     1       0.900  -0.150  -0.228  0.00  0.00    +0.000 NA
ATOM     25  H   UNL     1       0.551  -0.934   0.323  0.00  0.00    +0.000 HD
ATOM     26  H   UNL     1       0.564  -0.305  -1.178  0.00  0.00    +0.000 HD
ENDBRANCH  23  24
ENDBRANCH  22  23
ENDBRANCH  16  22
ENDBRANCH  15  19
ENDBRANCH   1  15
TORSDOF 6
