REMARK  Name = 
REMARK  7 active torsions:
REMARK  status: ('A' for Active; 'I' for Inactive)
REMARK    1  A    between atoms: C_2  and  C_3
REMARK    2  A    between atoms: C_3  and  N_4
REMARK    3  A    between atoms: C_3  and  C_22
REMARK    4  A    between atoms: C_5  and  C_7
REMARK    5  A    between atoms: C_10  and  C_11
REMARK    6  A    between atoms: C_11  and  N_12
REMARK    7  A    between atoms: C_13  and  C_15
REMARK                            x       y       z     vdW  Elec       q    Type
REMARK                         _______ _______ _______ _____ _____    ______ ____
ROOT
ATOM      1  N   UNL     1       8.387  -2.744   0.013  0.00  0.00    +0.000 N 
ATOM      2  C   UNL     1       9.499  -2.438   0.743  0.00  0.00    +0.000 C 
ATOM      3  O   UNL     1      10.083  -3.294   1.405  0.00  0.00    +0.000 OA
ATOM      4  H   UNL     1       7.847  -2.022  -0.454  0.00  0.00    +0.000 HD
ENDROOT
BRANCH   2   5
ATOM      5  C   UNL     1      10.018  -0.995   0.631  0.00  0.00    +0.000 C 
ATOM      6  C   UNL     1       8.959   0.067   0.319  0.00  0.00    +0.000 C 
ATOM      7  C   UNL     1       7.907   0.148   1.420  0.00  0.00    +0.000 C 
ATOM      8  C   UNL     1       8.526   0.402   2.807  0.00  0.00    +0.000 C 
ATOM      9  C   UNL     1       9.729  -0.512   3.098  0.00  0.00    +0.000 C 
ATOM     10  C   UNL     1      10.722  -0.595   1.937  0.00  0.00    +0.000 C 
BRANCH   8  11
ATOM     11  C   UNL     1       7.474   0.216   3.914  0.00  0.00    +0.000 C 
BRANCH  11  12
ATOM     12  N   UNL     1       6.336   1.087   3.736  0.00  0.00    +0.000 N 
ATOM     13  C   UNL     1       6.292   2.366   4.234  0.00  0.00    +0.000 C 
ATOM     14  O   UNL     1       7.182   2.840   4.933  0.00  0.00    +0.000 OA
ATOM     15  H   UNL     1       5.601   0.780   3.117  0.00  0.00    +0.000 HD
BRANCH  13  16
ATOM     16  C   UNL     1       5.118   3.121   3.857  0.00  0.00    +0.000 A 
ATOM     17  C   UNL     1       4.028   2.814   3.055  0.00  0.00    +0.000 A 
ATOM     18  C   UNL     1       3.178   3.945   3.016  0.00  0.00    +0.000 A 
ATOM     19  C   UNL     1       3.755   4.917   3.798  0.00  0.00    +0.000 A 
ATOM     20  N   UNL     1       4.920   4.409   4.306  0.00  0.00    +0.000 N 
ATOM     21  H   UNL     1       5.564   4.890   4.924  0.00  0.00    +0.000 HD
ENDBRANCH  13  16
ENDBRANCH  11  12
ENDBRANCH   8  11
ENDBRANCH   2   5
BRANCH   1  22
ATOM     22  C   UNL     1       7.760  -4.050   0.072  0.00  0.00    +0.000 C 
BRANCH  22  23
ATOM     23  C   UNL     1       7.722  -4.562  -1.347  0.00  0.00    +0.000 A 
ATOM     24  C   UNL     1       8.400  -5.691  -1.779  0.00  0.00    +0.000 A 
ATOM     25  S   UNL     1       8.161  -6.020  -3.440  0.00  0.00    +0.000 S 
ATOM     26  C   UNL     1       7.154  -4.660  -3.632  0.00  0.00    +0.000 A 
ATOM     27  N   UNL     1       6.574  -4.359  -4.823  0.00  0.00    +0.000 NA
ATOM     28  C   UNL     1       5.821  -3.309  -4.798  0.00  0.00    +0.000 A 
ATOM     29  N   UNL     1       5.615  -2.513  -3.698  0.00  0.00    +0.000 N 
ATOM     30  C   UNL     1       6.268  -2.717  -2.507  0.00  0.00    +0.000 A 
ATOM     31  O   UNL     1       6.252  -1.900  -1.590  0.00  0.00    +0.000 OA
ATOM     32  C   UNL     1       7.036  -3.947  -2.458  0.00  0.00    +0.000 A 
ATOM     33  H   UNL     1       5.053  -1.677  -3.766  0.00  0.00    +0.000 HD
ENDBRANCH  22  23
BRANCH  22  35
ATOM     34  N   UNL     1       5.338  -3.934   1.131  0.00  0.00    +0.000 NA
ATOM     35  C   UNL     1       6.403  -3.992   0.669  0.00  0.00    +0.000 C 
ENDBRANCH  22  35
ENDBRANCH   1  22
TORSDOF 7
