REMARK  Name = 
REMARK  7 active torsions:
REMARK  status: ('A' for Active; 'I' for Inactive)
REMARK    1  A    between atoms: N_1  and  C_2
REMARK    2  A    between atoms: C_2  and  C_3
REMARK    3  A    between atoms: C_3  and  N_4
REMARK    4  A    between atoms: C_3  and  C_17
REMARK    5  A    between atoms: C_5  and  C_7
REMARK    6  A    between atoms: C_20  and  C_21
REMARK    7  A    between atoms: C_21  and  C_22
REMARK                            x       y       z     vdW  Elec       q    Type
REMARK                         _______ _______ _______ _____ _____    ______ ____
ROOT
ATOM      1  C   UNL     1       3.078  -0.510  -1.261  0.00  0.00    +0.000 C 
ENDROOT
BRANCH   1   2
ATOM      2  C   UNL     1       4.601  -0.434  -1.276  0.00  0.00    +0.000 A 
ATOM      3  C   UNL     1       5.351  -1.563  -0.915  0.00  0.00    +0.000 A 
ATOM      4  C   UNL     1       6.743  -1.564  -1.040  0.00  0.00    +0.000 A 
ATOM      5  C   UNL     1       7.419  -0.427  -1.502  0.00  0.00    +0.000 A 
ATOM      6  C   UNL     1       6.681   0.726  -1.788  0.00  0.00    +0.000 A 
ATOM      7  C   UNL     1       5.292   0.726  -1.661  0.00  0.00    +0.000 A 
BRANCH   5   8
ATOM      8  C   UNL     1       8.905  -0.465  -1.782  0.00  0.00    +0.000 C 
BRANCH   8   9
ATOM      9  C   UNL     1       9.203  -0.901  -3.198  0.00  0.00    +0.000 A 
ATOM     10  C   UNL     1       9.340   0.038  -4.226  0.00  0.00    +0.000 A 
ATOM     11  C   UNL     1       9.491  -0.418  -5.527  0.00  0.00    +0.000 A 
ATOM     12  N   UNL     1       9.528  -1.723  -5.869  0.00  0.00    +0.000 NA
ATOM     13  C   UNL     1       9.403  -2.613  -4.862  0.00  0.00    +0.000 A 
ATOM     14  C   UNL     1       9.248  -2.258  -3.531  0.00  0.00    +0.000 A 
ENDBRANCH   8   9
ENDBRANCH   5   8
ENDBRANCH   1   2
BRANCH   1  15
ATOM     15  N   UNL     1       2.607  -0.147   0.063  0.00  0.00    +0.000 N 
ATOM     16  C   UNL     1       1.434  -0.597   0.601  0.00  0.00    +0.000 C 
ATOM     17  O   UNL     1       0.718  -1.423   0.038  0.00  0.00    +0.000 OA
ATOM     18  H   UNL     1       3.072   0.650   0.483  0.00  0.00    +0.000 HD
BRANCH  16  19
ATOM     19  C   UNL     1       1.093  -0.060   1.923  0.00  0.00    +0.000 A 
ATOM     20  C   UNL     1       0.341  -0.802   2.823  0.00  0.00    +0.000 A 
ATOM     21  S   UNL     1       0.075   0.003   4.307  0.00  0.00    +0.000 S 
ATOM     22  C   UNL     1       0.902   1.393   3.769  0.00  0.00    +0.000 A 
ATOM     23  N   UNL     1       1.003   2.500   4.550  0.00  0.00    +0.000 NA
ATOM     24  C   UNL     1       1.623   3.491   3.992  0.00  0.00    +0.000 A 
ATOM     25  N   UNL     1       2.162   3.465   2.735  0.00  0.00    +0.000 N 
ATOM     26  C   UNL     1       2.135   2.352   1.936  0.00  0.00    +0.000 A 
ATOM     27  O   UNL     1       2.714   2.333   0.854  0.00  0.00    +0.000 OA
ATOM     28  C   UNL     1       1.411   1.225   2.496  0.00  0.00    +0.000 A 
ATOM     29  H   UNL     1       2.661   4.264   2.368  0.00  0.00    +0.000 HD
ENDBRANCH  16  19
ENDBRANCH   1  15
BRANCH   1  30
ATOM     30  C   UNL     1       2.394   0.350  -2.371  0.00  0.00    +0.000 C 
BRANCH  30  31
ATOM     31  N   UNL     1       2.799  -0.020  -3.734  0.00  0.00    +0.000 NA
ATOM     32  H   UNL     1       2.377   0.612  -4.409  0.00  0.00    +0.000 HD
ATOM     33  H   UNL     1       2.455  -0.956  -3.947  0.00  0.00    +0.000 HD
ENDBRANCH  30  31
ENDBRANCH   1  30
TORSDOF 7
