REMARK  Name = 
REMARK  7 active torsions:
REMARK  status: ('A' for Active; 'I' for Inactive)
REMARK    1  A    between atoms: C_2  and  C_20
REMARK    2  A    between atoms: N_3  and  C_4
REMARK    3  A    between atoms: C_4  and  C_5
REMARK    4  A    between atoms: C_8  and  C_9
REMARK    5  A    between atoms: C_9  and  N_10
REMARK    6  A    between atoms: N_10  and  C_11
REMARK    7  A    between atoms: C_11  and  C_12
REMARK                            x       y       z     vdW  Elec       q    Type
REMARK                         _______ _______ _______ _____ _____    ______ ____
ROOT
ATOM      1  C   UNL     1       2.527   1.442  -4.808  0.00  0.00    +0.000 C 
ENDROOT
BRANCH   1   2
ATOM      2  C   UNL     1       3.251   1.530  -3.452  0.00  0.00    +0.000 C 
ATOM      3  C   UNL     1       4.534   0.681  -3.402  0.00  0.00    +0.000 C 
ATOM      4  C   UNL     1       5.676   1.260  -4.236  0.00  0.00    +0.000 C 
ATOM      5  C   UNL     1       5.979   2.738  -3.915  0.00  0.00    +0.000 C 
ATOM      6  C   UNL     1       4.690   3.572  -3.968  0.00  0.00    +0.000 C 
ATOM      7  C   UNL     1       3.566   2.993  -3.109  0.00  0.00    +0.000 C 
BRANCH   5   8
ATOM      8  C   UNL     1       6.725   2.931  -2.573  0.00  0.00    +0.000 C 
BRANCH   8   9
ATOM      9  N   UNL     1       8.005   2.238  -2.633  0.00  0.00    +0.000 NA
ATOM     10  H   UNL     1       8.562   2.584  -3.416  0.00  0.00    +0.000 HD
BRANCH   9  11
ATOM     11  C   UNL     1       8.813   2.392  -1.413  0.00  0.00    +0.000 C 
BRANCH  11  12
ATOM     12  C   UNL     1      10.146   1.667  -1.551  0.00  0.00    +0.000 A 
ATOM     13  N   UNL     1      10.940   2.042  -2.568  0.00  0.00    +0.000 NA
ATOM     14  C   UNL     1      12.033   1.298  -2.721  0.00  0.00    +0.000 A 
ATOM     15  N   UNL     1      12.392   0.264  -1.965  0.00  0.00    +0.000 NA
ATOM     16  C   UNL     1      11.536  -0.004  -0.981  0.00  0.00    +0.000 A 
ATOM     17  N   UNL     1      10.408   0.654  -0.716  0.00  0.00    +0.000 NA
ENDBRANCH  11  12
ENDBRANCH   9  11
ENDBRANCH   8   9
ENDBRANCH   5   8
ENDBRANCH   1   2
BRANCH   1  20
ATOM     18  O   UNL     1       0.157   0.172  -3.916  0.00  0.00    +0.000 OA
ATOM     19  C   UNL     1       0.920  -0.440  -4.655  0.00  0.00    +0.000 C 
ATOM     20  N   UNL     1       2.093   0.101  -5.115  0.00  0.00    +0.000 N 
ATOM     21  H   UNL     1       2.662  -0.417  -5.776  0.00  0.00    +0.000 HD
BRANCH  19  22
ATOM     22  C   UNL     1       0.647  -1.819  -5.077  0.00  0.00    +0.000 A 
ATOM     23  C   UNL     1      -0.239  -2.600  -4.347  0.00  0.00    +0.000 A 
ATOM     24  S   UNL     1      -0.434  -4.175  -4.971  0.00  0.00    +0.000 S 
ATOM     25  C   UNL     1       0.631  -3.857  -6.259  0.00  0.00    +0.000 A 
ATOM     26  N   UNL     1       0.893  -4.805  -7.200  0.00  0.00    +0.000 NA
ATOM     27  C   UNL     1       1.690  -4.417  -8.140  0.00  0.00    +0.000 A 
ATOM     28  N   UNL     1       2.258  -3.174  -8.221  0.00  0.00    +0.000 N 
ATOM     29  C   UNL     1       2.078  -2.211  -7.257  0.00  0.00    +0.000 A 
ATOM     30  O   UNL     1       2.700  -1.154  -7.304  0.00  0.00    +0.000 OA
ATOM     31  C   UNL     1       1.152  -2.577  -6.201  0.00  0.00    +0.000 A 
ATOM     32  H   UNL     1       2.903  -2.946  -8.963  0.00  0.00    +0.000 HD
ENDBRANCH  19  22
ENDBRANCH   1  20
TORSDOF 7
