REMARK  Name = 
REMARK  7 active torsions:
REMARK  status: ('A' for Active; 'I' for Inactive)
REMARK    1  A    between atoms: N_1  and  C_2
REMARK    2  A    between atoms: C_2  and  C_3
REMARK    3  A    between atoms: C_2  and  C_25
REMARK    4  A    between atoms: C_3  and  N_4
REMARK    5  A    between atoms: C_8  and  C_9
REMARK    6  A    between atoms: C_9  and  N_10
REMARK    7  A    between atoms: C_11  and  C_13
REMARK                            x       y       z     vdW  Elec       q    Type
REMARK                         _______ _______ _______ _____ _____    ______ ____
ROOT
ATOM      1  N   UNL     1       2.651   1.720   1.845  0.00  0.00    +0.000 N 
ATOM      2  C   UNL     1       2.941   2.077   3.164  0.00  0.00    +0.000 A 
ATOM      3  C   UNL     1       4.244   1.954   3.687  0.00  0.00    +0.000 A 
ATOM      4  N   UNL     1       4.571   2.293   4.960  0.00  0.00    +0.000 NA
ATOM      5  C   UNL     1       3.557   2.787   5.716  0.00  0.00    +0.000 A 
ATOM      6  C   UNL     1       2.274   2.908   5.197  0.00  0.00    +0.000 A 
ATOM      7  N   UNL     1       1.948   2.555   3.943  0.00  0.00    +0.000 NA
ATOM      8  H   UNL     1       3.248   2.290   1.237  0.00  0.00    +0.000 HD
ENDROOT
BRANCH   1   9
ATOM      9  C   UNL     1       1.226   1.941   1.498  0.00  0.00    +0.000 C 
BRANCH   9  10
ATOM     10  C   UNL     1       0.911   1.551   0.018  0.00  0.00    +0.000 C 
BRANCH  10  11
ATOM     11  C   UNL     1       1.673   2.500  -0.942  0.00  0.00    +0.000 C 
ATOM     12  C   UNL     1       1.409   2.317  -2.431  0.00  0.00    +0.000 C 
ATOM     13  C   UNL     1       2.672   2.879  -3.044  0.00  0.00    +0.000 C 
ATOM     14  C   UNL     1       3.733   2.470  -2.046  0.00  0.00    +0.000 C 
ATOM     15  O   UNL     1       3.103   2.382  -0.764  0.00  0.00    +0.000 OA
ENDBRANCH  10  11
BRANCH  10  16
ATOM     16  N   UNL     1       1.208   0.120  -0.245  0.00  0.00    +0.000 NA
ATOM     17  H   UNL     1       0.710  -0.449   0.440  0.00  0.00    +0.000 HD
ATOM     18  H   UNL     1       2.199  -0.019  -0.032  0.00  0.00    +0.000 HD
ENDBRANCH  10  16
ENDBRANCH   9  10
ENDBRANCH   1   9
BRANCH   5  19
ATOM     19  C   UNL     1       3.838   3.222   7.126  0.00  0.00    +0.000 C 
BRANCH  19  20
ATOM     20  N   UNL     1       4.821   4.279   7.174  0.00  0.00    +0.000 N 
ATOM     21  C   UNL     1       4.488   5.598   7.150  0.00  0.00    +0.000 C 
ATOM     22  O   UNL     1       3.318   5.975   7.062  0.00  0.00    +0.000 OA
ATOM     23  H   UNL     1       5.775   3.980   7.030  0.00  0.00    +0.000 HD
BRANCH  21  24
ATOM     24  C   UNL     1       5.591   6.557   7.251  0.00  0.00    +0.000 A 
ATOM     25  C   UNL     1       5.343   7.923   7.238  0.00  0.00    +0.000 A 
ATOM     26  S   UNL     1       6.755   8.872   7.381  0.00  0.00    +0.000 S 
ATOM     27  C   UNL     1       7.745   7.490   7.444  0.00  0.00    +0.000 A 
ATOM     28  N   UNL     1       9.099   7.593   7.530  0.00  0.00    +0.000 NA
ATOM     29  C   UNL     1       9.723   6.464   7.533  0.00  0.00    +0.000 A 
ATOM     30  N   UNL     1       9.115   5.235   7.470  0.00  0.00    +0.000 N 
ATOM     31  C   UNL     1       7.762   5.079   7.407  0.00  0.00    +0.000 A 
ATOM     32  O   UNL     1       7.269   3.949   7.358  0.00  0.00    +0.000 OA
ATOM     33  C   UNL     1       7.009   6.319   7.373  0.00  0.00    +0.000 A 
ATOM     34  H   UNL     1       9.663   4.383   7.479  0.00  0.00    +0.000 HD
ENDBRANCH  21  24
ENDBRANCH  19  20
ENDBRANCH   5  19
TORSDOF 7
