REMARK  Name = 
REMARK  5 active torsions:
REMARK  status: ('A' for Active; 'I' for Inactive)
REMARK    1  A    between atoms: N_1  and  C_2
REMARK    2  A    between atoms: C_2  and  C_3
REMARK    3  A    between atoms: C_6  and  C_7
REMARK    4  A    between atoms: C_7  and  C_8
REMARK    5  A    between atoms: C_8  and  C_9
REMARK                            x       y       z     vdW  Elec       q    Type
REMARK                         _______ _______ _______ _____ _____    ______ ____
ROOT
ATOM      1  C   UNL     1       2.954   0.043  -1.431  0.00  0.00    +0.000 A 
ATOM      2  C   UNL     1       3.769  -0.964  -1.935  0.00  0.00    +0.000 A 
ATOM      3  N   UNL     1       4.237  -0.971  -3.209  0.00  0.00    +0.000 NA
ATOM      4  C   UNL     1       3.857   0.070  -3.988  0.00  0.00    +0.000 A 
ATOM      5  C   UNL     1       3.064   1.092  -3.474  0.00  0.00    +0.000 A 
ATOM      6  N   UNL     1       2.593   1.101  -2.202  0.00  0.00    +0.000 NA
ENDROOT
BRANCH   1   7
ATOM      7  C   UNL     1       2.423  -0.027  -0.020  0.00  0.00    +0.000 C 
BRANCH   7   8
ATOM      8  N   UNL     1       3.479  -0.070   0.996  0.00  0.00    +0.000 NA
ATOM      9  H   UNL     1       3.043  -0.037   1.917  0.00  0.00    +0.000 HD
ATOM     10  H   UNL     1       4.027   0.788   0.920  0.00  0.00    +0.000 HD
ENDBRANCH   7   8
ENDBRANCH   1   7
BRANCH   4  11
ATOM     11  C   UNL     1       4.360   0.136  -5.409  0.00  0.00    +0.000 C 
BRANCH  11  12
ATOM     12  C   UNL     1       4.586  -1.249  -6.026  0.00  0.00    +0.000 C 
BRANCH  12  13
ATOM     13  C   UNL     1       5.005  -1.175  -7.476  0.00  0.00    +0.000 A 
ATOM     14  C   UNL     1       6.362  -1.113  -7.822  0.00  0.00    +0.000 A 
ATOM     15  C   UNL     1       6.750  -1.076  -9.162  0.00  0.00    +0.000 A 
ATOM     16  C   UNL     1       5.787  -1.093 -10.169  0.00  0.00    +0.000 A 
ATOM     17  C   UNL     1       4.435  -1.139  -9.836  0.00  0.00    +0.000 A 
ATOM     18  C   UNL     1       4.044  -1.176  -8.496  0.00  0.00    +0.000 A 
ENDBRANCH  12  13
ENDBRANCH  11  12
ENDBRANCH   4  11
TORSDOF 5
