REMARK  Name = 
REMARK  5 active torsions:
REMARK  status: ('A' for Active; 'I' for Inactive)
REMARK    1  A    between atoms: C_2  and  C_4
REMARK    2  A    between atoms: C_7  and  O_8
REMARK    3  A    between atoms: O_8  and  C_9
REMARK    4  A    between atoms: C_9  and  C_10
REMARK    5  A    between atoms: C_15  and  C_16
REMARK                            x       y       z     vdW  Elec       q    Type
REMARK                         _______ _______ _______ _____ _____    ______ ____
ROOT
ATOM      1  C   UNL     1       6.208   3.403   3.985  0.00  0.00    +0.000 C 
ENDROOT
BRANCH   1   2
ATOM      2  C   UNL     1       6.642   4.049   5.279  0.00  0.00    +0.000 A 
ATOM      3  C   UNL     1       6.494   5.430   5.455  0.00  0.00    +0.000 A 
ATOM      4  C   UNL     1       6.864   6.024   6.657  0.00  0.00    +0.000 A 
ATOM      5  C   UNL     1       7.371   5.242   7.692  0.00  0.00    +0.000 A 
ATOM      6  F   UNL     1       7.724   5.870   8.824  0.00  0.00    +0.000 F 
ATOM      7  C   UNL     1       7.521   3.852   7.575  0.00  0.00    +0.000 A 
ATOM      8  C   UNL     1       7.159   3.276   6.338  0.00  0.00    +0.000 A 
BRANCH   7   9
ATOM      9  C   UNL     1       8.029   3.030   8.687  0.00  0.00    +0.000 A 
ATOM     10  C   UNL     1       7.773   3.316  10.030  0.00  0.00    +0.000 A 
ATOM     11  N   UNL     1       8.256   2.578  11.064  0.00  0.00    +0.000 NA
ATOM     12  C   UNL     1       9.019   1.526  10.709  0.00  0.00    +0.000 A 
ATOM     13  C   UNL     1       9.269   1.214   9.384  0.00  0.00    +0.000 A 
ATOM     14  N   UNL     1       8.776   1.943   8.352  0.00  0.00    +0.000 NA
ENDBRANCH   7   9
ENDBRANCH   1   2
BRANCH   1  15
ATOM     15  O   UNL     1       6.925   4.000   2.901  0.00  0.00    +0.000 OA
BRANCH  15  19
ATOM     16  C   UNL     1       6.253   2.777  -0.921  0.00  0.00    +0.000 A 
ATOM     17  N   UNL     1       5.494   2.172   0.026  0.00  0.00    +0.000 NA
ATOM     18  C   UNL     1       5.715   2.577   1.296  0.00  0.00    +0.000 A 
ATOM     19  C   UNL     1       6.639   3.539   1.654  0.00  0.00    +0.000 A 
ATOM     20  C   UNL     1       7.345   4.082   0.598  0.00  0.00    +0.000 A 
ATOM     21  N   UNL     1       7.178   3.728  -0.694  0.00  0.00    +0.000 NA
BRANCH  16  23
ATOM     22  N   UNL     1       5.076   1.350  -2.518  0.00  0.00    +0.000 N 
ATOM     23  C   UNL     1       6.030   2.329  -2.347  0.00  0.00    +0.000 C 
ATOM     24  O   UNL     1       6.636   2.780  -3.313  0.00  0.00    +0.000 OA
ATOM     25  H   UNL     1       4.885   1.011  -3.450  0.00  0.00    +0.000 HD
ATOM     26  H   UNL     1       4.576   0.980  -1.719  0.00  0.00    +0.000 HD
ENDBRANCH  16  23
ENDBRANCH  15  19
ENDBRANCH   1  15
TORSDOF 5
