REMARK  Name = 
REMARK  4 active torsions:
REMARK  status: ('A' for Active; 'I' for Inactive)
REMARK    1  A    between atoms: C_1  and  C_2
REMARK    2  A    between atoms: C_2  and  N_3
REMARK    3  A    between atoms: C_2  and  C_13
REMARK    4  A    between atoms: C_7  and  C_8
REMARK                            x       y       z     vdW  Elec       q    Type
REMARK                         _______ _______ _______ _____ _____    ______ ____
ROOT
ATOM      1  N   UNL     1       2.708   0.540  -1.528  0.00  0.00    +0.000 N 
ATOM      2  C   UNL     1       2.477  -0.341  -2.590  0.00  0.00    +0.000 A 
ATOM      3  C   UNL     1       2.367   0.198  -3.878  0.00  0.00    +0.000 A 
ATOM      4  N   UNL     1       2.186  -0.533  -5.003  0.00  0.00    +0.000 NA
ATOM      5  C   UNL     1       2.140  -1.874  -4.788  0.00  0.00    +0.000 A 
ATOM      6  C   UNL     1       2.258  -2.432  -3.523  0.00  0.00    +0.000 A 
ATOM      7  N   UNL     1       2.423  -1.678  -2.400  0.00  0.00    +0.000 NA
ATOM      8  H   UNL     1       3.654   0.893  -1.644  0.00  0.00    +0.000 HD
ENDROOT
BRANCH   5   9
ATOM      9  C   UNL     1       1.946  -2.736  -5.983  0.00  0.00    +0.000 C 
ATOM     10  N   UNL     1       1.789  -2.072  -7.172  0.00  0.00    +0.000 N 
ATOM     11  O   UNL     1       1.924  -3.958  -5.912  0.00  0.00    +0.000 OA
ATOM     12  H   UNL     1       1.798  -1.058  -7.184  0.00  0.00    +0.000 HD
ATOM     13  H   UNL     1       1.645  -2.593  -8.025  0.00  0.00    +0.000 HD
ENDBRANCH   5   9
BRANCH   1  15
ATOM     14  C   UNL     1       0.915  -0.076   0.024  0.00  0.00    +0.000 C 
ATOM     15  C   UNL     1       2.429   0.112  -0.152  0.00  0.00    +0.000 C 
BRANCH  15  16
ATOM     16  C   UNL     1       2.958   1.210   0.836  0.00  0.00    +0.000 C 
ATOM     17  C   UNL     1       2.344   2.600   0.552  0.00  0.00    +0.000 C 
ATOM     18  C   UNL     1       2.948   3.712   1.402  0.00  0.00    +0.000 C 
ATOM     19  C   UNL     1       4.464   3.741   1.273  0.00  0.00    +0.000 C 
ATOM     20  C   UNL     1       5.059   2.404   1.698  0.00  0.00    +0.000 C 
ATOM     21  C   UNL     1       4.502   1.255   0.859  0.00  0.00    +0.000 C 
ENDBRANCH  15  16
ENDBRANCH   1  15
TORSDOF 3
