REMARK  Name = 
REMARK  7 active torsions:
REMARK  status: ('A' for Active; 'I' for Inactive)
REMARK    1  A    between atoms: C_1  and  C_2
REMARK    2  A    between atoms: C_2  and  C_3
REMARK    3  A    between atoms: C_2  and  C_4
REMARK    4  A    between atoms: C_2  and  C_18
REMARK    5  A    between atoms: C_5  and  C_6
REMARK    6  A    between atoms: C_10  and  C_11
REMARK    7  A    between atoms: C_22  and  C_23
REMARK                            x       y       z     vdW  Elec       q    Type
REMARK                         _______ _______ _______ _____ _____    ______ ____
ROOT
ATOM      1  C   UNL     1       0.952  -0.029  -0.119  0.00  0.00    +0.000 C 
ATOM      2  C   UNL     1       2.495   0.015  -0.089  0.00  0.00    +0.000 C 
ATOM      3  C   UNL     1       2.989  -1.444   0.121  0.00  0.00    +0.000 C 
ENDROOT
BRANCH   2   4
ATOM      4  C   UNL     1       2.952   0.976   1.030  0.00  0.00    +0.000 A 
ATOM      5  C   UNL     1       4.150   0.778   1.724  0.00  0.00    +0.000 A 
ATOM      6  C   UNL     1       4.619   1.726   2.634  0.00  0.00    +0.000 A 
ATOM      7  C   UNL     1       3.921   2.911   2.835  0.00  0.00    +0.000 A 
ATOM      8  C   UNL     1       2.729   3.153   2.167  0.00  0.00    +0.000 A 
ATOM      9  C   UNL     1       2.228   2.168   1.294  0.00  0.00    +0.000 A 
BRANCH   8  10
ATOM     10  C   UNL     1       2.045   4.471   2.258  0.00  0.00    +0.000 C 
ATOM     11  N   UNL     1       2.246   5.199   3.403  0.00  0.00    +0.000 N 
ATOM     12  O   UNL     1       1.345   4.902   1.357  0.00  0.00    +0.000 OA
ATOM     13  H   UNL     1       2.712   4.847   4.225  0.00  0.00    +0.000 HD
ATOM     14  H   UNL     1       1.720   6.060   3.490  0.00  0.00    +0.000 HD
ENDBRANCH   8  10
ENDBRANCH   2   4
BRANCH   2  15
ATOM     15  C   UNL     1       3.030   0.457  -1.452  0.00  0.00    +0.000 C 
ATOM     16  C   UNL     1       3.341   1.709  -1.833  0.00  0.00    +0.000 C 
BRANCH  16  17
ATOM     17  C   UNL     1       3.876   2.044  -3.154  0.00  0.00    +0.000 A 
ATOM     18  C   UNL     1       4.146   3.362  -3.497  0.00  0.00    +0.000 A 
ATOM     19  C   UNL     1       4.618   3.631  -4.779  0.00  0.00    +0.000 A 
ATOM     20  C   UNL     1       4.818   2.576  -5.655  0.00  0.00    +0.000 A 
ATOM     21  C   UNL     1       4.559   1.274  -5.235  0.00  0.00    +0.000 A 
ATOM     22  N   UNL     1       4.079   1.008  -4.004  0.00  0.00    +0.000 NA
BRANCH  21  23
ATOM     23  C   UNL     1       4.786   0.116  -6.106  0.00  0.00    +0.000 A 
ATOM     24  C   UNL     1       5.792   0.118  -7.077  0.00  0.00    +0.000 A 
ATOM     25  C   UNL     1       5.954  -0.971  -7.925  0.00  0.00    +0.000 A 
ATOM     26  C   UNL     1       5.104  -2.050  -7.770  0.00  0.00    +0.000 A 
ATOM     27  N   UNL     1       4.138  -2.116  -6.832  0.00  0.00    +0.000 NA
ATOM     28  C   UNL     1       4.009  -1.037  -6.016  0.00  0.00    +0.000 A 
ENDBRANCH  21  23
ENDBRANCH  16  17
ENDBRANCH   2  15
TORSDOF 5
