REMARK  Name = 
REMARK  7 active torsions:
REMARK  status: ('A' for Active; 'I' for Inactive)
REMARK    1  A    between atoms: C_2  and  O_3
REMARK    2  A    between atoms: C_2  and  C_23
REMARK    3  A    between atoms: O_3  and  C_4
REMARK    4  A    between atoms: C_4  and  C_5
REMARK    5  A    between atoms: C_8  and  C_9
REMARK    6  A    between atoms: C_9  and  N_10
REMARK    7  A    between atoms: C_11  and  C_13
REMARK                            x       y       z     vdW  Elec       q    Type
REMARK                         _______ _______ _______ _____ _____    ______ ____
ROOT
ATOM      1  C   UNL     1      11.963  -0.139 -21.068  0.00  0.00    +0.000 A 
ATOM      2  C   UNL     1      11.599   0.839 -20.132  0.00  0.00    +0.000 A 
ATOM      3  C   UNL     1      11.030   0.480 -18.903  0.00  0.00    +0.000 A 
ATOM      4  C   UNL     1      10.824  -0.868 -18.575  0.00  0.00    +0.000 A 
ATOM      5  C   UNL     1      11.148  -1.842 -19.528  0.00  0.00    +0.000 A 
ATOM      6  C   UNL     1      11.715  -1.483 -20.758  0.00  0.00    +0.000 A 
ENDROOT
BRANCH   1   7
ATOM      7  C   UNL     1      12.573   0.244 -22.398  0.00  0.00    +0.000 C 
BRANCH   7   8
ATOM      8  O   UNL     1      13.883  -0.328 -22.529  0.00  0.00    +0.000 OA
BRANCH   8  10
ATOM      9  O   UNL     1      13.289  -1.322 -24.514  0.00  0.00    +0.000 OA
ATOM     10  C   UNL     1      14.113  -1.064 -23.652  0.00  0.00    +0.000 C 
BRANCH  10  11
ATOM     11  C   UNL     1      15.479  -1.501 -23.690  0.00  0.00    +0.000 A 
ATOM     12  C   UNL     1      16.553  -1.299 -22.843  0.00  0.00    +0.000 A 
ATOM     13  C   UNL     1      17.625  -1.998 -23.426  0.00  0.00    +0.000 A 
ATOM     14  N   UNL     1      17.277  -2.593 -24.568  0.00  0.00    +0.000 NA
ATOM     15  N   UNL     1      15.979  -2.269 -24.711  0.00  0.00    +0.000 N 
ATOM     16  H   UNL     1      15.481  -2.604 -25.531  0.00  0.00    +0.000 HD
ENDBRANCH  10  11
ENDBRANCH   8  10
ENDBRANCH   7   8
ENDBRANCH   1   7
BRANCH   4  17
ATOM     17  C   UNL     1      10.388  -1.265 -17.190  0.00  0.00    +0.000 C 
BRANCH  17  18
ATOM     18  N   UNL     1       8.969  -1.462 -17.004  0.00  0.00    +0.000 N 
ATOM     19  C   UNL     1       8.528  -1.797 -15.740  0.00  0.00    +0.000 C 
ATOM     20  O   UNL     1       9.298  -1.991 -14.804  0.00  0.00    +0.000 OA
ATOM     21  H   UNL     1       8.332  -1.302 -17.779  0.00  0.00    +0.000 HD
BRANCH  19  22
ATOM     22  C   UNL     1       7.080  -1.878 -15.560  0.00  0.00    +0.000 C 
ATOM     23  S   UNL     1       6.344  -1.811 -13.985  0.00  0.00    +0.000 S 
ATOM     24  N   UNL     1       4.742  -1.535 -14.538  0.00  0.00    +0.000 NA
ATOM     25  C   UNL     1       4.759  -1.517 -15.822  0.00  0.00    +0.000 C 
ATOM     26  N   UNL     1       3.777  -1.330 -16.740  0.00  0.00    +0.000 NA
ATOM     27  C   UNL     1       4.439  -1.417 -17.860  0.00  0.00    +0.000 C 
ATOM     28  N   UNL     1       5.821  -1.643 -17.778  0.00  0.00    +0.000 NA
ATOM     29  C   UNL     1       6.030  -1.708 -16.519  0.00  0.00    +0.000 C 
ENDBRANCH  19  22
ENDBRANCH  17  18
ENDBRANCH   4  17
TORSDOF 7
