REMARK  Name = 
REMARK  8 active torsions:
REMARK  status: ('A' for Active; 'I' for Inactive)
REMARK    1  A    between atoms: C_1  and  C_2
REMARK    2  A    between atoms: C_2  and  N_3
REMARK    3  A    between atoms: C_2  and  C_25
REMARK    4  A    between atoms: N_3  and  C_4
REMARK    5  A    between atoms: C_4  and  C_5
REMARK    6  A    between atoms: C_8  and  C_9
REMARK    7  A    between atoms: C_9  and  N_10
REMARK    8  A    between atoms: C_11  and  C_13
REMARK                            x       y       z     vdW  Elec       q    Type
REMARK                         _______ _______ _______ _____ _____    ______ ____
ROOT
ATOM      1  C   UNL     1       3.133  -0.168  -3.677  0.00  0.00    +0.000 C 
ATOM      2  C   UNL     1       4.480  -0.856  -3.947  0.00  0.00    +0.000 C 
ATOM      3  C   UNL     1       5.075  -0.458  -5.295  0.00  0.00    +0.000 C 
ATOM      4  C   UNL     1       5.223   1.067  -5.440  0.00  0.00    +0.000 C 
ATOM      5  C   UNL     1       3.919   1.804  -5.092  0.00  0.00    +0.000 C 
ATOM      6  C   UNL     1       3.336   1.355  -3.754  0.00  0.00    +0.000 C 
ENDROOT
BRANCH   1   7
ATOM      7  C   UNL     1       1.997  -0.636  -4.620  0.00  0.00    +0.000 C 
BRANCH   7   8
ATOM      8  N   UNL     1       1.727  -2.064  -4.446  0.00  0.00    +0.000 NA
ATOM      9  H   UNL     1       2.583  -2.591  -4.630  0.00  0.00    +0.000 HD
BRANCH   8  11
ATOM     10  C   UNL     1      -0.658  -1.938  -5.225  0.00  0.00    +0.000 C 
ATOM     11  C   UNL     1       0.716  -2.598  -5.382  0.00  0.00    +0.000 C 
BRANCH  11  12
ATOM     12  C   UNL     1       0.573  -4.111  -5.196  0.00  0.00    +0.000 A 
ATOM     13  C   UNL     1       0.135  -4.635  -3.978  0.00  0.00    +0.000 A 
ATOM     14  C   UNL     1      -0.044  -6.009  -3.854  0.00  0.00    +0.000 A 
ATOM     15  C   UNL     1       0.238  -6.828  -4.939  0.00  0.00    +0.000 A 
ATOM     16  C   UNL     1       0.699  -6.236  -6.103  0.00  0.00    +0.000 A 
ATOM     17  N   UNL     1       0.873  -4.904  -6.257  0.00  0.00    +0.000 NA
ENDBRANCH  11  12
ENDBRANCH   8  11
ENDBRANCH   7   8
ENDBRANCH   1   7
BRANCH   4  18
ATOM     18  C   UNL     1       5.675   1.470  -6.854  0.00  0.00    +0.000 C 
BRANCH  18  19
ATOM     19  N   UNL     1       6.957   0.896  -7.196  0.00  0.00    +0.000 N 
ATOM     20  C   UNL     1       7.845   1.532  -8.024  0.00  0.00    +0.000 C 
ATOM     21  O   UNL     1       7.636   2.649  -8.487  0.00  0.00    +0.000 OA
ATOM     22  H   UNL     1       7.043  -0.111  -7.104  0.00  0.00    +0.000 HD
BRANCH  20  23
ATOM     23  C   UNL     1       9.103   0.823  -8.280  0.00  0.00    +0.000 A 
ATOM     24  C   UNL     1      10.244   1.549  -8.589  0.00  0.00    +0.000 A 
ATOM     25  S   UNL     1      11.632   0.581  -8.796  0.00  0.00    +0.000 S 
ATOM     26  C   UNL     1      10.743  -0.846  -8.531  0.00  0.00    +0.000 A 
ATOM     27  N   UNL     1      11.344  -2.064  -8.595  0.00  0.00    +0.000 NA
ATOM     28  C   UNL     1      10.547  -3.063  -8.409  0.00  0.00    +0.000 A 
ATOM     29  N   UNL     1       9.205  -2.956  -8.158  0.00  0.00    +0.000 N 
ATOM     30  C   UNL     1       8.563  -1.742  -8.042  0.00  0.00    +0.000 A 
ATOM     31  O   UNL     1       7.373  -1.674  -7.747  0.00  0.00    +0.000 OA
ATOM     32  C   UNL     1       9.411  -0.588  -8.265  0.00  0.00    +0.000 A 
ATOM     33  H   UNL     1       8.638  -3.771  -8.006  0.00  0.00    +0.000 HD
ENDBRANCH  20  23
ENDBRANCH  18  19
ENDBRANCH   4  18
TORSDOF 7
