REMARK  Name = 
REMARK  6 active torsions:
REMARK  status: ('A' for Active; 'I' for Inactive)
REMARK    1  A    between atoms: C_1  and  C_2
REMARK    2  A    between atoms: C_4  and  C_5
REMARK    3  A    between atoms: C_10  and  N_11
REMARK    4  A    between atoms: N_11  and  C_12
REMARK    5  A    between atoms: C_12  and  C_13
REMARK    6  A    between atoms: C_17  and  C_18
REMARK                            x       y       z     vdW  Elec       q    Type
REMARK                         _______ _______ _______ _____ _____    ______ ____
ROOT
ATOM      1  N   UNL     1       0.845  -2.281   0.023  0.00  0.00    +0.000 N 
ATOM      2  H   UNL     1       0.389  -2.462   0.903  0.00  0.00    +0.000 HD
ENDROOT
BRANCH   1   9
ATOM      3  C   UNL     1      -2.042  -1.819   0.189  0.00  0.00    +0.000 C 
ATOM      4  C   UNL     1      -1.297  -2.070  -1.090  0.00  0.00    +0.000 A 
ATOM      5  C   UNL     1      -2.017  -2.042  -2.305  0.00  0.00    +0.000 A 
ATOM      6  C   UNL     1      -1.363  -2.251  -3.516  0.00  0.00    +0.000 A 
ATOM      7  C   UNL     1      -0.003  -2.466  -3.460  0.00  0.00    +0.000 A 
ATOM      8  N   UNL     1       0.716  -2.496  -2.310  0.00  0.00    +0.000 NA
ATOM      9  C   UNL     1       0.082  -2.324  -1.127  0.00  0.00    +0.000 A 
BRANCH   6  10
ATOM     10  C   UNL     1      -2.146  -2.221  -4.775  0.00  0.00    +0.000 C 
ATOM     11  N   UNL     1      -1.496  -2.447  -5.966  0.00  0.00    +0.000 N 
ATOM     12  O   UNL     1      -3.341  -2.003  -4.775  0.00  0.00    +0.000 OA
ATOM     13  H   UNL     1      -0.517  -2.647  -6.083  0.00  0.00    +0.000 HD
ATOM     14  H   UNL     1      -2.073  -2.420  -6.796  0.00  0.00    +0.000 HD
ENDBRANCH   6  10
ENDBRANCH   1   9
BRANCH   1  15
ATOM     15  C   UNL     1       2.275  -2.565  -0.027  0.00  0.00    +0.000 C 
BRANCH  15  16
ATOM     16  C   UNL     1       2.647  -4.036  -0.002  0.00  0.00    +0.000 A 
ATOM     17  C   UNL     1       2.752  -4.757  -1.201  0.00  0.00    +0.000 A 
ATOM     18  C   UNL     1       3.177  -6.083  -1.206  0.00  0.00    +0.000 A 
ATOM     19  C   UNL     1       3.547  -6.699  -0.009  0.00  0.00    +0.000 A 
ATOM     20  C   UNL     1       3.513  -6.001   1.212  0.00  0.00    +0.000 A 
ATOM     21  C   UNL     1       3.007  -4.680   1.196  0.00  0.00    +0.000 A 
BRANCH  20  22
ATOM     22  C   UNL     1       4.074  -6.593   2.446  0.00  0.00    +0.000 A 
ATOM     23  C   UNL     1       5.179  -7.448   2.414  0.00  0.00    +0.000 A 
ATOM     24  C   UNL     1       5.728  -7.922   3.606  0.00  0.00    +0.000 A 
ATOM     25  C   UNL     1       5.157  -7.533   4.808  0.00  0.00    +0.000 A 
ATOM     26  C   UNL     1       4.063  -6.684   4.764  0.00  0.00    +0.000 A 
ATOM     27  N   UNL     1       3.515  -6.205   3.622  0.00  0.00    +0.000 NA
ENDBRANCH  20  22
ENDBRANCH  15  16
ENDBRANCH   1  15
TORSDOF 5
