REMARK  Name = 
REMARK  7 active torsions:
REMARK  status: ('A' for Active; 'I' for Inactive)
REMARK    1  A    between atoms: C_1  and  C_2
REMARK    2  A    between atoms: C_7  and  C_8
REMARK    3  A    between atoms: N_10  and  C_11
REMARK    4  A    between atoms: C_11  and  C_12
REMARK    5  A    between atoms: C_15  and  C_16
REMARK    6  A    between atoms: C_16  and  N_17
REMARK    7  A    between atoms: C_20  and  N_21
REMARK                            x       y       z     vdW  Elec       q    Type
REMARK                         _______ _______ _______ _____ _____    ______ ____
ROOT
ATOM      1  C   UNL     1       8.409   3.099   0.030  0.00  0.00    +0.000 C 
ENDROOT
BRANCH   1   2
ATOM      2  C   UNL     1       7.847   4.460  -0.219  0.00  0.00    +0.000 A 
ATOM      3  C   UNL     1       8.588   5.477  -0.783  0.00  0.00    +0.000 A 
ATOM      4  N   UNL     1       8.147   6.744  -0.923  0.00  0.00    +0.000 NA
ATOM      5  C   UNL     1       6.896   7.005  -0.486  0.00  0.00    +0.000 A 
ATOM      6  N   UNL     1       6.073   6.069   0.037  0.00  0.00    +0.000 NA
ATOM      7  C   UNL     1       6.574   4.822   0.168  0.00  0.00    +0.000 A 
BRANCH   5   8
ATOM      8  C   UNL     1       6.470   8.467  -0.380  0.00  0.00    +0.000 C 
BRANCH   8   9
ATOM      9  N   UNL     1       5.795   9.163  -1.494  0.00  0.00    +0.000 NA
ATOM     10  C   UNL     1       4.504   8.626  -1.903  0.00  0.00    +0.000 C 
ATOM     11  C   UNL     1       4.579   7.486  -2.918  0.00  0.00    +0.000 C 
ATOM     12  C   UNL     1       5.522   7.768  -4.097  0.00  0.00    +0.000 C 
ATOM     13  C   UNL     1       6.843   8.390  -3.635  0.00  0.00    +0.000 C 
ATOM     14  C   UNL     1       6.650   9.514  -2.622  0.00  0.00    +0.000 C 
BRANCH  12  15
ATOM     15  N   UNL     1       4.891   8.623  -5.109  0.00  0.00    +0.000 NA
ATOM     16  H   UNL     1       4.679   9.538  -4.716  0.00  0.00    +0.000 HD
ATOM     17  H   UNL     1       3.999   8.217  -5.391  0.00  0.00    +0.000 HD
ENDBRANCH  12  15
ENDBRANCH   8   9
ENDBRANCH   5   8
ENDBRANCH   1   2
BRANCH   1  20
ATOM     18  C   UNL     1       8.535   2.598   2.456  0.00  0.00    +0.000 C 
ATOM     19  O   UNL     1       7.368   2.224   2.488  0.00  0.00    +0.000 OA
ATOM     20  N   UNL     1       9.105   3.042   1.290  0.00  0.00    +0.000 N 
ATOM     21  H   UNL     1      10.035   3.454   1.314  0.00  0.00    +0.000 HD
BRANCH  18  28
ATOM     22  C   UNL     1      14.785   3.519   5.113  0.00  0.00    +0.000 C 
ATOM     23  C   UNL     1      13.350   3.278   4.747  0.00  0.00    +0.000 A 
ATOM     24  N   UNL     1      12.490   2.858   5.619  0.00  0.00    +0.000 NA
ATOM     25  C   UNL     1      11.229   2.681   5.136  0.00  0.00    +0.000 A 
ATOM     26  S   UNL     1       9.982   2.113   6.144  0.00  0.00    +0.000 S 
ATOM     27  C   UNL     1       8.856   2.145   4.865  0.00  0.00    +0.000 A 
ATOM     28  C   UNL     1       9.389   2.576   3.653  0.00  0.00    +0.000 A 
ATOM     29  C   UNL     1      10.786   2.914   3.845  0.00  0.00    +0.000 A 
ATOM     30  C   UNL     1      11.777   3.431   2.920  0.00  0.00    +0.000 A 
ATOM     31  O   UNL     1      11.537   3.772   1.764  0.00  0.00    +0.000 OA
ATOM     32  N   UNL     1      13.045   3.541   3.433  0.00  0.00    +0.000 N 
ATOM     33  H   UNL     1      13.746   3.901   2.802  0.00  0.00    +0.000 HD
ENDBRANCH  18  28
ENDBRANCH   1  20
TORSDOF 6
