REMARK  Name = 
REMARK  9 active torsions:
REMARK  status: ('A' for Active; 'I' for Inactive)
REMARK    1  A    between atoms: C_1  and  C_2
REMARK    2  A    between atoms: C_2  and  N_3
REMARK    3  A    between atoms: C_2  and  C_19
REMARK    4  A    between atoms: N_3  and  C_4
REMARK    5  A    between atoms: C_4  and  C_5
REMARK    6  A    between atoms: C_8  and  C_9
REMARK    7  A    between atoms: C_9  and  O_10
REMARK    8  A    between atoms: C_9  and  C_11
REMARK    9  A    between atoms: C_11  and  N_12
REMARK                            x       y       z     vdW  Elec       q    Type
REMARK                         _______ _______ _______ _____ _____    ______ ____
ROOT
ATOM      1  C   UNL     1       0.429  -0.741  -1.138  0.00  0.00    +0.000 C 
ENDROOT
BRANCH   1   2
ATOM      2  C   UNL     1      -1.076  -0.782  -1.141  0.00  0.00    +0.000 A 
ATOM      3  C   UNL     1      -1.809   0.284  -0.630  0.00  0.00    +0.000 A 
ATOM      4  N   UNL     1      -3.164   0.296  -0.583  0.00  0.00    +0.000 NA
ATOM      5  C   UNL     1      -3.780  -0.815  -1.075  0.00  0.00    +0.000 A 
ATOM      6  C   UNL     1      -3.044  -1.884  -1.569  0.00  0.00    +0.000 A 
ATOM      7  N   UNL     1      -1.694  -1.897  -1.607  0.00  0.00    +0.000 NA
BRANCH   5   8
ATOM      8  C   UNL     1      -5.302  -0.880  -1.053  0.00  0.00    +0.000 C 
BRANCH   8   9
ATOM      9  O   UNL     1      -5.751  -0.758   0.302  0.00  0.00    +0.000 OA
ATOM     10  H   UNL     1      -5.488   0.134   0.592  0.00  0.00    +0.000 HD
ENDBRANCH   8   9
BRANCH   8  11
ATOM     11  C   UNL     1      -5.925   0.216  -1.972  0.00  0.00    +0.000 C 
BRANCH  11  12
ATOM     12  N   UNL     1      -7.402   0.297  -1.999  0.00  0.00    +0.000 NA
ATOM     13  C   UNL     1      -8.081  -0.882  -2.544  0.00  0.00    +0.000 C 
ATOM     14  C   UNL     1      -8.602  -0.492  -3.915  0.00  0.00    +0.000 C 
ATOM     15  C   UNL     1      -8.894   0.985  -3.773  0.00  0.00    +0.000 C 
ATOM     16  C   UNL     1      -7.887   1.474  -2.741  0.00  0.00    +0.000 C 
ENDBRANCH  11  12
ENDBRANCH   8  11
ENDBRANCH   5   8
ENDBRANCH   1   2
BRANCH   1  17
ATOM     17  N   UNL     1       1.009  -0.871  -2.483  0.00  0.00    +0.000 NA
ATOM     18  H   UNL     1       0.647  -0.141  -3.087  0.00  0.00    +0.000 HD
BRANCH  17  20
ATOM     19  C   UNL     1       2.991  -1.943  -1.530  0.00  0.00    +0.000 C 
ATOM     20  C   UNL     1       2.478  -0.848  -2.489  0.00  0.00    +0.000 C 
BRANCH  20  21
ATOM     21  C   UNL     1       2.928  -1.070  -3.936  0.00  0.00    +0.000 A 
ATOM     22  C   UNL     1       2.572  -2.200  -4.657  0.00  0.00    +0.000 A 
ATOM     23  S   UNL     1       3.260  -2.278  -6.210  0.00  0.00    +0.000 S 
ATOM     24  C   UNL     1       4.027  -0.788  -6.012  0.00  0.00    +0.000 A 
ATOM     25  N   UNL     1       4.819  -0.277  -7.002  0.00  0.00    +0.000 NA
ATOM     26  C   UNL     1       5.346   0.864  -6.740  0.00  0.00    +0.000 A 
ATOM     27  N   UNL     1       5.129   1.573  -5.579  0.00  0.00    +0.000 N 
ATOM     28  C   UNL     1       4.286   1.141  -4.582  0.00  0.00    +0.000 A 
ATOM     29  O   UNL     1       4.006   1.856  -3.623  0.00  0.00    +0.000 OA
ATOM     30  C   UNL     1       3.733  -0.200  -4.786  0.00  0.00    +0.000 A 
ATOM     31  H   UNL     1       5.539   2.488  -5.468  0.00  0.00    +0.000 HD
ENDBRANCH  20  21
ENDBRANCH  17  20
ENDBRANCH   1  17
TORSDOF 8
