REMARK  Name = 
REMARK  8 active torsions:
REMARK  status: ('A' for Active; 'I' for Inactive)
REMARK    1  A    between atoms: C_1  and  C_2
REMARK    2  A    between atoms: C_5  and  O_6
REMARK    3  A    between atoms: O_6  and  C_7
REMARK    4  A    between atoms: C_9  and  C_10
REMARK    5  A    between atoms: C_10  and  C_13
REMARK    6  A    between atoms: C_13  and  N_14
REMARK    7  A    between atoms: N_14  and  C_15
REMARK    8  A    between atoms: C_18  and  C_19
REMARK                            x       y       z     vdW  Elec       q    Type
REMARK                         _______ _______ _______ _____ _____    ______ ____
ROOT
ATOM      1  C   UNL     1       5.941  -0.300  -3.262  0.00  0.00    +0.000 C 
ATOM      2  F   UNL     1       7.029  -0.156  -4.073  0.00  0.00    +0.000 F 
ATOM      3  F   UNL     1       6.317  -1.206  -2.306  0.00  0.00    +0.000 F 
ENDROOT
BRANCH   1   6
ATOM      4  C   UNL     1       4.375   2.218  -0.852  0.00  0.00    +0.000 A 
ATOM      5  C   UNL     1       4.821   1.022  -1.415  0.00  0.00    +0.000 A 
ATOM      6  C   UNL     1       5.507   1.019  -2.644  0.00  0.00    +0.000 A 
ATOM      7  C   UNL     1       5.752   2.239  -3.295  0.00  0.00    +0.000 A 
ATOM      8  C   UNL     1       5.328   3.438  -2.720  0.00  0.00    +0.000 A 
ATOM      9  C   UNL     1       4.648   3.421  -1.505  0.00  0.00    +0.000 A 
ATOM     10  F   UNL     1       4.245   4.586  -0.976  0.00  0.00    +0.000 F 
BRANCH   4  11
ATOM     11  O   UNL     1       3.692   2.291   0.339  0.00  0.00    +0.000 OA
BRANCH  11  16
ATOM     12  C   UNL     1       2.224   0.821   3.256  0.00  0.00    +0.000 C 
ATOM     13  C   UNL     1       1.894   1.397   1.892  0.00  0.00    +0.000 C 
ATOM     14  N   UNL     1       0.923   0.547   1.163  0.00  0.00    +0.000 NA
ATOM     15  C   UNL     1       1.675   0.773  -0.084  0.00  0.00    +0.000 C 
ATOM     16  C   UNL     1       2.923   1.138   0.757  0.00  0.00    +0.000 C 
ATOM     17  H   UNL     1      -0.030   0.910   1.155  0.00  0.00    +0.000 HD
ENDBRANCH  11  16
ENDBRANCH   4  11
ENDBRANCH   1   6
BRANCH   1  18
ATOM     18  C   UNL     1       4.774  -0.916  -4.071  0.00  0.00    +0.000 C 
BRANCH  18  19
ATOM     19  N   UNL     1       5.082  -2.246  -4.638  0.00  0.00    +0.000 N 
ATOM     20  H   UNL     1       5.474  -2.892  -3.955  0.00  0.00    +0.000 HD
BRANCH  19  21
ATOM     21  C   UNL     1       3.992  -2.839  -5.298  0.00  0.00    +0.000 A 
ATOM     22  N   UNL     1       2.850  -2.125  -5.451  0.00  0.00    +0.000 NA
ATOM     23  C   UNL     1       1.821  -2.695  -6.122  0.00  0.00    +0.000 A 
ATOM     24  C   UNL     1       1.860  -3.964  -6.676  0.00  0.00    +0.000 A 
ATOM     25  C   UNL     1       3.049  -4.689  -6.532  0.00  0.00    +0.000 A 
ATOM     26  C   UNL     1       4.112  -4.123  -5.836  0.00  0.00    +0.000 A 
ATOM     27  F   UNL     1       5.244  -4.828  -5.689  0.00  0.00    +0.000 F 
BRANCH  24  28
ATOM     28  C   UNL     1       0.670  -4.517  -7.395  0.00  0.00    +0.000 C 
ATOM     29  F   UNL     1      -0.403  -3.678  -7.386  0.00  0.00    +0.000 F 
ATOM     30  F   UNL     1       0.926  -4.783  -8.703  0.00  0.00    +0.000 F 
ATOM     31  F   UNL     1       0.233  -5.684  -6.850  0.00  0.00    +0.000 F 
ENDBRANCH  24  28
ENDBRANCH  19  21
ENDBRANCH  18  19
ENDBRANCH   1  18
TORSDOF 7
