REMARK  Name = 
REMARK  10 active torsions:
REMARK  status: ('A' for Active; 'I' for Inactive)
REMARK    1  A    between atoms: C_1  and  O_2
REMARK    2  A    between atoms: O_2  and  C_3
REMARK    3  A    between atoms: C_10  and  C_11
REMARK    4  A    between atoms: N_13  and  C_14
REMARK    5  A    between atoms: C_14  and  C_15
REMARK    6  A    between atoms: C_18  and  C_19
REMARK    7  A    between atoms: C_19  and  N_20
REMARK    8  A    between atoms: N_20  and  C_21
REMARK    9  A    between atoms: C_21  and  C_22
REMARK   10  A    between atoms: C_24  and  C_25
REMARK                            x       y       z     vdW  Elec       q    Type
REMARK                         _______ _______ _______ _____ _____    ______ ____
ROOT
ATOM      1  C   UNL     1       1.736   3.205   1.412  0.00  0.00    +0.000 A 
ATOM      2  C   UNL     1       0.692   2.324   1.101  0.00  0.00    +0.000 A 
ATOM      3  C   UNL     1      -0.405   2.757   0.349  0.00  0.00    +0.000 A 
ATOM      4  C   UNL     1      -0.483   4.079  -0.112  0.00  0.00    +0.000 A 
ATOM      5  C   UNL     1       0.553   4.964   0.216  0.00  0.00    +0.000 A 
ATOM      6  C   UNL     1       1.653   4.530   0.966  0.00  0.00    +0.000 A 
ENDROOT
BRANCH   1   7
ATOM      7  C   UNL     1       2.946   2.719   2.168  0.00  0.00    +0.000 C 
BRANCH   7  10
ATOM      8  C   UNL     1       5.108   1.641   1.753  0.00  0.00    +0.000 C 
ATOM      9  O   UNL     1       5.349   1.627   2.959  0.00  0.00    +0.000 OA
ATOM     10  N   UNL     1       3.941   2.174   1.275  0.00  0.00    +0.000 N 
ATOM     11  H   UNL     1       3.744   2.171   0.284  0.00  0.00    +0.000 HD
BRANCH   8  19
ATOM     12  C   UNL     1       5.134   1.338  -1.685  0.00  0.00    +0.000 A 
ATOM     13  N   UNL     1       5.381   1.049  -2.980  0.00  0.00    +0.000 NA
ATOM     14  C   UNL     1       6.517   0.414  -3.277  0.00  0.00    +0.000 A 
ATOM     15  N   UNL     1       7.463   0.026  -2.427  0.00  0.00    +0.000 NA
ATOM     16  C   UNL     1       7.171   0.320  -1.148  0.00  0.00    +0.000 A 
ATOM     17  S   UNL     1       8.273  -0.097   0.074  0.00  0.00    +0.000 S 
ATOM     18  C   UNL     1       7.254   0.541   1.273  0.00  0.00    +0.000 A 
ATOM     19  C   UNL     1       6.067   1.078   0.784  0.00  0.00    +0.000 A 
ATOM     20  C   UNL     1       6.030   0.959  -0.671  0.00  0.00    +0.000 A 
BRANCH  12  22
ATOM     21  C   UNL     1       3.488   2.795  -2.464  0.00  0.00    +0.000 C 
ATOM     22  O   UNL     1       3.963   1.999  -1.380  0.00  0.00    +0.000 OA
ENDBRANCH  12  22
ENDBRANCH   8  19
ENDBRANCH   7  10
ENDBRANCH   1   7
BRANCH   4  23
ATOM     23  C   UNL     1      -1.638   4.524  -0.984  0.00  0.00    +0.000 C 
BRANCH  23  24
ATOM     24  N   UNL     1      -2.919   4.363  -0.302  0.00  0.00    +0.000 NA
ATOM     25  H   UNL     1      -2.923   4.948   0.535  0.00  0.00    +0.000 HD
BRANCH  24  26
ATOM     26  C   UNL     1      -4.034   4.792  -1.160  0.00  0.00    +0.000 C 
BRANCH  26  27
ATOM     27  C   UNL     1      -5.375   4.635  -0.466  0.00  0.00    +0.000 A 
ATOM     28  C   UNL     1      -5.786   3.376  -0.024  0.00  0.00    +0.000 A 
ATOM     29  C   UNL     1      -7.008   3.246   0.639  0.00  0.00    +0.000 A 
ATOM     30  C   UNL     1      -7.472   1.918   1.153  0.00  0.00    +0.000 C 
ATOM     31  C   UNL     1      -7.787   4.387   0.823  0.00  0.00    +0.000 A 
ATOM     32  C   UNL     1      -7.311   5.598   0.344  0.00  0.00    +0.000 A 
ATOM     33  N   UNL     1      -6.127   5.750  -0.290  0.00  0.00    +0.000 NA
ENDBRANCH  26  27
ENDBRANCH  24  26
ENDBRANCH  23  24
ENDBRANCH   4  23
TORSDOF 8
