REMARK  Name = 
REMARK  6 active torsions:
REMARK  status: ('A' for Active; 'I' for Inactive)
REMARK    1  A    between atoms: N_1  and  S_2
REMARK    2  A    between atoms: S_2  and  C_5
REMARK    3  A    between atoms: N_9  and  C_10
REMARK    4  A    between atoms: C_10  and  C_11
REMARK    5  A    between atoms: C_11  and  O_12
REMARK    6  A    between atoms: C_11  and  C_13
REMARK                            x       y       z     vdW  Elec       q    Type
REMARK                         _______ _______ _______ _____ _____    ______ ____
ROOT
ATOM      1  C   UNL     1       3.256   0.946  -1.473  0.00  0.00    +0.000 A 
ATOM      2  C   UNL     1       4.374   0.408  -2.100  0.00  0.00    +0.000 A 
ATOM      3  C   UNL     1       4.818   0.993  -3.291  0.00  0.00    +0.000 A 
ATOM      4  C   UNL     1       4.157   2.112  -3.797  0.00  0.00    +0.000 A 
ATOM      5  N   UNL     1       4.661   2.725  -4.956  0.00  0.00    +0.000 N 
ATOM      6  N   UNL     1       3.063   2.619  -3.188  0.00  0.00    +0.000 NA
ATOM      7  C   UNL     1       2.623   2.023  -2.054  0.00  0.00    +0.000 A 
ATOM      8  H   UNL     1       4.512   2.123  -5.764  0.00  0.00    +0.000 HD
ENDROOT
BRANCH   1   9
ATOM      9  S   UNL     1       2.644   0.309   0.034  0.00  0.00    +0.000 S 
ATOM     10  O   UNL     1       2.513  -1.123  -0.080  0.00  0.00    +0.000 OA
ATOM     11  O   UNL     1       1.572   1.151   0.514  0.00  0.00    +0.000 OA
BRANCH   9  12
ATOM     12  N   UNL     1       3.920   0.583   1.096  0.00  0.00    +0.000 NA
ATOM     13  H   UNL     1       4.172  -0.291   1.560  0.00  0.00    +0.000 HD
ATOM     14  H   UNL     1       3.681   1.332   1.747  0.00  0.00    +0.000 HD
ENDBRANCH   9  12
ENDBRANCH   1   9
BRANCH   5  15
ATOM     15  C   UNL     1       4.144   4.082  -5.162  0.00  0.00    +0.000 C 
BRANCH  15  16
ATOM     16  C   UNL     1       4.611   4.661  -6.517  0.00  0.00    +0.000 C 
BRANCH  16  17
ATOM     17  C   UNL     1       4.245   6.164  -6.676  0.00  0.00    +0.000 C 
ATOM     18  C   UNL     1       4.668   6.702  -8.058  0.00  0.00    +0.000 C 
ATOM     19  C   UNL     1       4.351   8.190  -8.220  0.00  0.00    +0.000 C 
ATOM     20  C   UNL     1       4.972   9.026  -7.106  0.00  0.00    +0.000 C 
ATOM     21  C   UNL     1       4.546   8.518  -5.739  0.00  0.00    +0.000 C 
ATOM     22  C   UNL     1       4.858   7.035  -5.562  0.00  0.00    +0.000 C 
ENDBRANCH  16  17
BRANCH  16  23
ATOM     23  O   UNL     1       3.991   3.908  -7.576  0.00  0.00    +0.000 OA
ATOM     24  H   UNL     1       3.027   4.006  -7.487  0.00  0.00    +0.000 HD
ENDBRANCH  16  23
ENDBRANCH  15  16
ENDBRANCH   5  15
TORSDOF 6
