REMARK  Name = 
REMARK  8 active torsions:
REMARK  status: ('A' for Active; 'I' for Inactive)
REMARK    1  A    between atoms: C_1  and  C_2
REMARK    2  A    between atoms: C_2  and  C_3
REMARK    3  A    between atoms: C_2  and  C_4
REMARK    4  A    between atoms: C_2  and  C_23
REMARK    5  A    between atoms: C_4  and  N_5
REMARK    6  A    between atoms: C_10  and  C_11
REMARK    7  A    between atoms: C_14  and  O_15
REMARK    8  A    between atoms: O_15  and  C_16
REMARK                            x       y       z     vdW  Elec       q    Type
REMARK                         _______ _______ _______ _____ _____    ______ ____
ROOT
ATOM      1  N   UNL     1       2.669  -2.263  -0.941  0.00  0.00    +0.000 N 
ATOM      2  C   UNL     1       3.126  -3.099  -1.949  0.00  0.00    +0.000 A 
ATOM      3  N   UNL     1       4.290  -2.832  -2.557  0.00  0.00    +0.000 NA
ATOM      4  C   UNL     1       4.666  -3.662  -3.543  0.00  0.00    +0.000 A 
ATOM      5  C   UNL     1       3.919  -4.739  -3.950  0.00  0.00    +0.000 A 
ATOM      6  C   UNL     1       2.733  -4.943  -3.272  0.00  0.00    +0.000 A 
ATOM      7  N   UNL     1       2.336  -4.127  -2.269  0.00  0.00    +0.000 NA
ATOM      8  H   UNL     1       1.669  -2.422  -0.867  0.00  0.00    +0.000 HD
ENDROOT
BRANCH   6   9
ATOM      9  C   UNL     1       1.822  -6.056  -3.608  0.00  0.00    +0.000 A 
ATOM     10  C   UNL     1       1.049  -6.683  -2.618  0.00  0.00    +0.000 A 
ATOM     11  C   UNL     1       0.182  -7.740  -2.923  0.00  0.00    +0.000 A 
ATOM     12  C   UNL     1       0.035  -8.166  -4.239  0.00  0.00    +0.000 A 
ATOM     13  C   UNL     1       0.822  -7.582  -5.231  0.00  0.00    +0.000 A 
ATOM     14  C   UNL     1       1.696  -6.536  -4.922  0.00  0.00    +0.000 A 
BRANCH  12  15
ATOM     15  O   UNL     1      -0.787  -9.156  -4.677  0.00  0.00    +0.000 OA
BRANCH  15  16
ATOM     16  C   UNL     1      -2.009  -9.408  -3.997  0.00  0.00    +0.000 C 
ATOM     17  F   UNL     1      -2.307  -8.519  -3.028  0.00  0.00    +0.000 F 
ATOM     18  F   UNL     1      -3.014  -9.380  -4.901  0.00  0.00    +0.000 F 
ATOM     19  F   UNL     1      -1.966 -10.644  -3.455  0.00  0.00    +0.000 F 
ENDBRANCH  15  16
ENDBRANCH  12  15
ENDBRANCH   6   9
BRANCH   1  20
ATOM     20  C   UNL     1       3.073  -0.868  -1.097  0.00  0.00    +0.000 C 
BRANCH  20  22
ATOM     21  C   UNL     1       3.184  -0.501   1.393  0.00  0.00    +0.000 C 
ATOM     22  C   UNL     1       2.559   0.018   0.074  0.00  0.00    +0.000 C 
ATOM     23  C   UNL     1       3.100   1.456  -0.130  0.00  0.00    +0.000 C 
BRANCH  22  24
ATOM     24  C   UNL     1       1.018   0.080   0.102  0.00  0.00    +0.000 A 
ATOM     25  C   UNL     1       0.272  -0.337   1.221  0.00  0.00    +0.000 A 
ATOM     26  C   UNL     1      -1.118  -0.201   1.257  0.00  0.00    +0.000 A 
ATOM     27  C   UNL     1      -1.782   0.345   0.169  0.00  0.00    +0.000 A 
ATOM     28  F   UNL     1      -3.111   0.501   0.217  0.00  0.00    +0.000 F 
ATOM     29  C   UNL     1      -1.084   0.738  -0.963  0.00  0.00    +0.000 A 
ATOM     30  C   UNL     1       0.306   0.600  -0.999  0.00  0.00    +0.000 A 
ENDBRANCH  22  24
ENDBRANCH  20  22
ENDBRANCH   1  20
TORSDOF 6
