REMARK  Name = 
REMARK  5 active torsions:
REMARK  status: ('A' for Active; 'I' for Inactive)
REMARK    1  A    between atoms: C_2  and  C_5
REMARK    2  A    between atoms: C_9  and  O_10
REMARK    3  A    between atoms: O_10  and  C_11
REMARK    4  A    between atoms: C_11  and  C_12
REMARK    5  A    between atoms: C_14  and  C_15
REMARK                            x       y       z     vdW  Elec       q    Type
REMARK                         _______ _______ _______ _____ _____    ______ ____
ROOT
ATOM      1  C   UNL     1       2.171  -5.922   0.092  0.00  0.00    +0.000 C 
ENDROOT
BRANCH   1   2
ATOM      2  C   UNL     1       1.361  -6.994  -0.594  0.00  0.00    +0.000 A 
ATOM      3  C   UNL     1       1.693  -8.336  -0.419  0.00  0.00    +0.000 A 
ATOM      4  C   UNL     1       1.011  -9.332  -1.135  0.00  0.00    +0.000 A 
ATOM      5  C   UNL     1      -0.009  -8.908  -1.997  0.00  0.00    +0.000 A 
ATOM      6  C   UNL     1      -0.296  -7.557  -2.099  0.00  0.00    +0.000 A 
ATOM      7  N   UNL     1       0.364  -6.597  -1.422  0.00  0.00    +0.000 NA
BRANCH   4   8
ATOM      8  C   UNL     1       1.366 -10.756  -0.995  0.00  0.00    +0.000 A 
ATOM      9  N   UNL     1       2.365 -11.074  -0.145  0.00  0.00    +0.000 NA
ATOM     10  C   UNL     1       2.669 -12.380  -0.032  0.00  0.00    +0.000 A 
ATOM     11  C   UNL     1       2.023 -13.371  -0.728  0.00  0.00    +0.000 A 
ATOM     12  C   UNL     1       1.025 -12.947  -1.572  0.00  0.00    +0.000 A 
ATOM     13  N   UNL     1       0.677 -11.656  -1.726  0.00  0.00    +0.000 NA
ENDBRANCH   4   8
ENDBRANCH   1   2
BRANCH   1  14
ATOM     14  O   UNL     1       1.675  -5.667   1.412  0.00  0.00    +0.000 OA
BRANCH  14  19
ATOM     15  C   UNL     1       4.191  -3.220   2.067  0.00  0.00    +0.000 A 
ATOM     16  N   UNL     1       3.870  -2.780   3.308  0.00  0.00    +0.000 NA
ATOM     17  C   UNL     1       2.786  -3.332   3.890  0.00  0.00    +0.000 A 
ATOM     18  C   UNL     1       2.009  -4.298   3.298  0.00  0.00    +0.000 A 
ATOM     19  C   UNL     1       2.412  -4.685   2.046  0.00  0.00    +0.000 A 
ATOM     20  N   UNL     1       3.485  -4.172   1.419  0.00  0.00    +0.000 NA
BRANCH  15  22
ATOM     21  F   UNL     1       6.079  -1.678   2.047  0.00  0.00    +0.000 F 
ATOM     22  C   UNL     1       5.401  -2.628   1.337  0.00  0.00    +0.000 C 
ATOM     23  F   UNL     1       5.066  -2.026   0.154  0.00  0.00    +0.000 F 
ATOM     24  F   UNL     1       6.337  -3.572   1.010  0.00  0.00    +0.000 F 
ENDBRANCH  15  22
ENDBRANCH  14  19
ENDBRANCH   1  14
TORSDOF 5
