REMARK  Name = 
REMARK  6 active torsions:
REMARK  status: ('A' for Active; 'I' for Inactive)
REMARK    1  A    between atoms: C_1  and  N_2
REMARK    2  A    between atoms: N_2  and  C_3
REMARK    3  A    between atoms: C_3  and  C_4
REMARK    4  A    between atoms: C_7  and  C_8
REMARK    5  A    between atoms: C_8  and  C_9
REMARK    6  A    between atoms: C_20  and  C_22
REMARK                            x       y       z     vdW  Elec       q    Type
REMARK                         _______ _______ _______ _____ _____    ______ ____
ROOT
ATOM      1  C   UNL     1       2.291   1.806   1.838  0.00  0.00    +0.000 A 
ATOM      2  C   UNL     1       1.570   0.982   2.717  0.00  0.00    +0.000 A 
ATOM      3  C   UNL     1       0.743   1.540   3.689  0.00  0.00    +0.000 A 
ATOM      4  C   UNL     1       0.633   2.931   3.807  0.00  0.00    +0.000 A 
ATOM      5  C   UNL     1       1.382   3.751   2.950  0.00  0.00    +0.000 A 
ATOM      6  C   UNL     1       2.207   3.196   1.972  0.00  0.00    +0.000 A 
ENDROOT
BRANCH   1   7
ATOM      7  C   UNL     1       3.120   1.198   0.739  0.00  0.00    +0.000 C 
BRANCH   7   9
ATOM      8  C   UNL     1       1.036   1.230  -0.719  0.00  0.00    +0.000 C 
ATOM      9  N   UNL     1       2.466   0.984  -0.558  0.00  0.00    +0.000 N 
ATOM     10  C   UNL     1       3.169   0.715  -1.747  0.00  0.00    +0.000 C 
ATOM     11  O   UNL     1       2.586   0.676  -2.830  0.00  0.00    +0.000 OA
BRANCH  10  12
ATOM     12  C   UNL     1       4.611   0.437  -1.695  0.00  0.00    +0.000 A 
ATOM     13  C   UNL     1       5.219  -0.402  -0.775  0.00  0.00    +0.000 A 
ATOM     14  S   UNL     1       6.899  -0.579  -1.013  0.00  0.00    +0.000 S 
ATOM     15  C   UNL     1       6.843   0.333  -2.446  0.00  0.00    +0.000 A 
ATOM     16  N   UNL     1       7.946   0.473  -3.227  0.00  0.00    +0.000 NA
ATOM     17  C   UNL     1       7.736   1.122  -4.324  0.00  0.00    +0.000 A 
ATOM     18  N   UNL     1       6.537   1.678  -4.687  0.00  0.00    +0.000 N 
ATOM     19  C   UNL     1       5.431   1.681  -3.862  0.00  0.00    +0.000 A 
ATOM     20  O   UNL     1       4.464   2.395  -4.109  0.00  0.00    +0.000 OA
ATOM     21  C   UNL     1       5.583   0.851  -2.680  0.00  0.00    +0.000 A 
ATOM     22  H   UNL     1       6.459   2.233  -5.527  0.00  0.00    +0.000 HD
ENDBRANCH  10  12
ENDBRANCH   7   9
ENDBRANCH   1   7
BRANCH   4  23
ATOM     23  C   UNL     1      -0.352   3.527   4.781  0.00  0.00    +0.000 C 
BRANCH  23  24
ATOM     24  C   UNL     1       0.225   4.505   5.795  0.00  0.00    +0.000 C 
ATOM     25  O   UNL     1       1.430   4.743   5.881  0.00  0.00    +0.000 OA
ATOM     26  N   UNL     1      -0.700   5.167   6.592  0.00  0.00    +0.000 N 
ATOM     27  C   UNL     1      -0.245   6.240   7.472  0.00  0.00    +0.000 C 
ATOM     28  C   UNL     1      -1.200   7.423   7.337  0.00  0.00    +0.000 C 
ATOM     29  N   UNL     1      -2.574   7.034   7.589  0.00  0.00    +0.000 N 
ATOM     30  C   UNL     1      -3.083   5.823   7.195  0.00  0.00    +0.000 C 
ATOM     31  O   UNL     1      -4.292   5.620   7.235  0.00  0.00    +0.000 OA
ATOM     32  C   UNL     1      -2.080   4.716   6.817  0.00  0.00    +0.000 C 
ATOM     33  H   UNL     1      -3.274   7.744   7.770  0.00  0.00    +0.000 HD
ENDBRANCH  23  24
ENDBRANCH   4  23
TORSDOF 5
