REMARK  Name = 
REMARK  10 active torsions:
REMARK  status: ('A' for Active; 'I' for Inactive)
REMARK    1  A    between atoms: C_1  and  O_2
REMARK    2  A    between atoms: O_2  and  C_3
REMARK    3  A    between atoms: C_10  and  C_11
REMARK    4  A    between atoms: N_13  and  C_14
REMARK    5  A    between atoms: C_14  and  C_15
REMARK    6  A    between atoms: C_18  and  N_19
REMARK    7  A    between atoms: N_19  and  C_20
REMARK    8  A    between atoms: C_20  and  C_21
REMARK    9  A    between atoms: C_21  and  C_22
REMARK   10  A    between atoms: N_26  and  C_27
REMARK                            x       y       z     vdW  Elec       q    Type
REMARK                         _______ _______ _______ _____ _____    ______ ____
ROOT
ATOM      1  C   UNL     1       1.525   3.378  -0.639  0.00  0.00    +0.000 A 
ATOM      2  C   UNL     1       1.186   2.196  -1.301  0.00  0.00    +0.000 A 
ATOM      3  C   UNL     1      -0.023   2.088  -2.001  0.00  0.00    +0.000 A 
ATOM      4  C   UNL     1      -0.919   3.159  -2.082  0.00  0.00    +0.000 A 
ATOM      5  C   UNL     1      -0.486   4.391  -1.577  0.00  0.00    +0.000 A 
ATOM      6  C   UNL     1       0.705   4.497  -0.837  0.00  0.00    +0.000 A 
ENDROOT
BRANCH   4   7
ATOM      7  N   UNL     1      -2.175   3.088  -2.707  0.00  0.00    +0.000 N 
ATOM      8  H   UNL     1      -2.135   3.493  -3.641  0.00  0.00    +0.000 HD
BRANCH   7   9
ATOM      9  C   UNL     1      -2.899   1.817  -2.674  0.00  0.00    +0.000 C 
BRANCH   9  10
ATOM     10  C   UNL     1      -3.796   1.733  -1.429  0.00  0.00    +0.000 C 
BRANCH  10  11
ATOM     11  C   UNL     1      -4.560   0.392  -1.324  0.00  0.00    +0.000 C 
ATOM     12  C   UNL     1      -5.468   0.367  -0.082  0.00  0.00    +0.000 C 
ATOM     13  C   UNL     1      -6.173  -0.983   0.041  0.00  0.00    +0.000 C 
ATOM     14  C   UNL     1      -5.166  -2.132   0.030  0.00  0.00    +0.000 C 
ATOM     15  N   UNL     1      -4.343  -2.091  -1.184  0.00  0.00    +0.000 NA
ATOM     16  C   UNL     1      -3.413  -3.221  -1.209  0.00  0.00    +0.000 C 
ATOM     17  C   UNL     1      -3.610  -0.823  -1.293  0.00  0.00    +0.000 C 
ENDBRANCH  10  11
ENDBRANCH   9  10
ENDBRANCH   7   9
ENDBRANCH   4   7
BRANCH   1  18
ATOM     18  C   UNL     1       2.695   3.409   0.316  0.00  0.00    +0.000 C 
BRANCH  18  21
ATOM     19  C   UNL     1       5.124   3.875   0.374  0.00  0.00    +0.000 C 
ATOM     20  O   UNL     1       5.176   3.644   1.584  0.00  0.00    +0.000 OA
ATOM     21  N   UNL     1       3.941   3.773  -0.312  0.00  0.00    +0.000 N 
ATOM     22  H   UNL     1       3.934   3.869  -1.317  0.00  0.00    +0.000 HD
BRANCH  19  30
ATOM     23  C   UNL     1       5.673   4.591  -2.933  0.00  0.00    +0.000 A 
ATOM     24  N   UNL     1       6.107   5.041  -4.126  0.00  0.00    +0.000 NA
ATOM     25  C   UNL     1       7.364   5.488  -4.204  0.00  0.00    +0.000 A 
ATOM     26  N   UNL     1       8.269   5.509  -3.227  0.00  0.00    +0.000 NA
ATOM     27  C   UNL     1       7.786   5.063  -2.054  0.00  0.00    +0.000 A 
ATOM     28  S   UNL     1       8.802   4.985  -0.696  0.00  0.00    +0.000 S 
ATOM     29  C   UNL     1       7.535   4.407   0.283  0.00  0.00    +0.000 A 
ATOM     30  C   UNL     1       6.320   4.280  -0.384  0.00  0.00    +0.000 A 
ATOM     31  C   UNL     1       6.494   4.617  -1.795  0.00  0.00    +0.000 A 
BRANCH  23  33
ATOM     32  C   UNL     1       3.908   3.573  -4.078  0.00  0.00    +0.000 C 
ATOM     33  O   UNL     1       4.385   4.112  -2.850  0.00  0.00    +0.000 OA
ENDBRANCH  23  33
ENDBRANCH  19  30
ENDBRANCH  18  21
ENDBRANCH   1  18
TORSDOF 8
