REMARK  Name = 
REMARK  7 active torsions:
REMARK  status: ('A' for Active; 'I' for Inactive)
REMARK    1  A    between atoms: C_2  and  C_4
REMARK    2  A    between atoms: C_7  and  O_8
REMARK    3  A    between atoms: O_8  and  C_9
REMARK    4  A    between atoms: C_9  and  C_10
REMARK    5  A    between atoms: C_10  and  C_13
REMARK    6  A    between atoms: C_18  and  O_19
REMARK    7  A    between atoms: O_19  and  C_20
REMARK                            x       y       z     vdW  Elec       q    Type
REMARK                         _______ _______ _______ _____ _____    ______ ____
ROOT
ATOM      1  C   UNL     1       6.117   2.016   6.714  0.00  0.00    +0.000 C 
ATOM      2  F   UNL     1       7.370   1.575   6.397  0.00  0.00    +0.000 F 
ATOM      3  F   UNL     1       6.153   3.371   6.550  0.00  0.00    +0.000 F 
ENDROOT
BRANCH   1   4
ATOM      4  C   UNL     1       5.738   1.635   8.133  0.00  0.00    +0.000 A 
ATOM      5  C   UNL     1       6.217   0.452   8.709  0.00  0.00    +0.000 A 
ATOM      6  C   UNL     1       5.871   0.129  10.018  0.00  0.00    +0.000 A 
ATOM      7  F   UNL     1       6.349  -0.998  10.560  0.00  0.00    +0.000 F 
ATOM      8  C   UNL     1       5.044   0.954  10.778  0.00  0.00    +0.000 A 
ATOM      9  C   UNL     1       4.550   2.123  10.210  0.00  0.00    +0.000 A 
ATOM     10  C   UNL     1       4.901   2.464   8.899  0.00  0.00    +0.000 A 
BRANCH   9  11
ATOM     11  O   UNL     1       3.748   3.033  10.850  0.00  0.00    +0.000 OA
BRANCH  11  12
ATOM     12  C   UNL     1       2.961   2.605  11.985  0.00  0.00    +0.000 C 
ATOM     13  C   UNL     1       1.780   1.660  11.726  0.00  0.00    +0.000 C 
ATOM     14  O   UNL     1       0.830   2.602  12.272  0.00  0.00    +0.000 OA
ATOM     15  C   UNL     1       1.870   3.593  12.428  0.00  0.00    +0.000 C 
ENDBRANCH  11  12
ENDBRANCH   9  11
ENDBRANCH   1   4
BRANCH   1  16
ATOM     16  C   UNL     1       5.115   1.422   5.708  0.00  0.00    +0.000 C 
BRANCH  16  17
ATOM     17  O   UNL     1       5.469   1.798   4.370  0.00  0.00    +0.000 OA
BRANCH  17  21
ATOM     18  C   UNL     1       3.186   0.530   1.117  0.00  0.00    +0.000 A 
ATOM     19  C   UNL     1       2.796   0.132   2.401  0.00  0.00    +0.000 A 
ATOM     20  C   UNL     1       3.535   0.536   3.520  0.00  0.00    +0.000 A 
ATOM     21  C   UNL     1       4.667   1.339   3.363  0.00  0.00    +0.000 A 
ATOM     22  C   UNL     1       5.059   1.726   2.078  0.00  0.00    +0.000 A 
ATOM     23  C   UNL     1       4.328   1.321   0.959  0.00  0.00    +0.000 A 
BRANCH  18  25
ATOM     24  N   UNL     1       1.097  -0.144   0.062  0.00  0.00    +0.000 N 
ATOM     25  C   UNL     1       2.432   0.111  -0.091  0.00  0.00    +0.000 C 
ATOM     26  O   UNL     1       2.968   0.029  -1.189  0.00  0.00    +0.000 OA
ATOM     27  H   UNL     1       0.578  -0.321  -0.790  0.00  0.00    +0.000 HD
ATOM     28  H   UNL     1       0.578   0.165   0.870  0.00  0.00    +0.000 HD
ENDBRANCH  18  25
ENDBRANCH  17  21
ENDBRANCH  16  17
ENDBRANCH   1  16
TORSDOF 7
