REMARK  Name = 
REMARK  4 active torsions:
REMARK  status: ('A' for Active; 'I' for Inactive)
REMARK    1  A    between atoms: C_2  and  C_4
REMARK    2  A    between atoms: C_7  and  N_8
REMARK    3  A    between atoms: N_8  and  C_9
REMARK    4  A    between atoms: C_9  and  C_10
REMARK                            x       y       z     vdW  Elec       q    Type
REMARK                         _______ _______ _______ _____ _____    ______ ____
ROOT
ATOM      1  C   UNL     1       2.890   0.610   1.323  0.00  0.00    +0.000 A 
ATOM      2  N   UNL     1       3.178  -0.571   1.918  0.00  0.00    +0.000 NA
ATOM      3  C   UNL     1       3.982  -0.483   3.001  0.00  0.00    +0.000 A 
ATOM      4  C   UNL     1       4.522   0.694   3.501  0.00  0.00    +0.000 A 
ATOM      5  C   UNL     1       4.109   1.827   2.819  0.00  0.00    +0.000 A 
ATOM      6  N   UNL     1       3.312   1.821   1.732  0.00  0.00    +0.000 NA
ENDROOT
BRANCH   1   8
ATOM      7  N   UNL     1       1.577  -0.700  -0.274  0.00  0.00    +0.000 N 
ATOM      8  C   UNL     1       1.998   0.556   0.104  0.00  0.00    +0.000 C 
ATOM      9  O   UNL     1       1.650   1.542  -0.532  0.00  0.00    +0.000 OA
ATOM     10  H   UNL     1       0.964  -0.788  -1.071  0.00  0.00    +0.000 HD
ATOM     11  H   UNL     1       1.857  -1.515   0.258  0.00  0.00    +0.000 HD
ENDBRANCH   1   8
BRANCH   4  12
ATOM     12  N   UNL     1       5.308   0.676   4.654  0.00  0.00    +0.000 N 
ATOM     13  H   UNL     1       4.722   0.581   5.485  0.00  0.00    +0.000 HD
BRANCH  12  14
ATOM     14  C   UNL     1       6.287   1.751   4.827  0.00  0.00    +0.000 C 
BRANCH  14  15
ATOM     15  C   UNL     1       7.394   1.310   5.748  0.00  0.00    +0.000 A 
ATOM     16  C   UNL     1       8.094   2.247   6.503  0.00  0.00    +0.000 A 
ATOM     17  N   UNL     1       9.140   1.950   7.309  0.00  0.00    +0.000 NA
ATOM     18  C   UNL     1       9.521   0.651   7.358  0.00  0.00    +0.000 A 
ATOM     19  C   UNL     1       8.904  -0.356   6.635  0.00  0.00    +0.000 A 
ATOM     20 BR   UNL     1       9.500  -2.140   6.750  0.00  0.00    +0.000 Br
ATOM     21  C   UNL     1       7.835  -0.020   5.812  0.00  0.00    +0.000 A 
ENDBRANCH  14  15
ENDBRANCH  12  14
ENDBRANCH   4  12
TORSDOF 4
