REMARK  Name = 
REMARK  6 active torsions:
REMARK  status: ('A' for Active; 'I' for Inactive)
REMARK    1  A    between atoms: C_1  and  C_2
REMARK    2  A    between atoms: C_2  and  C_3
REMARK    3  A    between atoms: C_2  and  C_14
REMARK    4  A    between atoms: C_3  and  N_4
REMARK    5  A    between atoms: CA_9  and  C_10
REMARK    6  A    between atoms: C_10  and  OXT_12
REMARK                            x       y       z     vdW  Elec       q    Type
REMARK                         _______ _______ _______ _____ _____    ______ ____
ROOT
ATOM      1  N   UNL     1       2.720   2.267  -0.838  0.00  0.00    +0.000 N 
ATOM      2  C   UNL     1       3.277   3.530  -0.762  0.00  0.00    +0.000 A 
ATOM      3  N   UNL     1       2.563   4.521  -1.308  0.00  0.00    +0.000 NA
ATOM      4  C   UNL     1       3.083   5.763  -1.275  0.00  0.00    +0.000 A 
ATOM      5  C   UNL     1       4.293   6.055  -0.707  0.00  0.00    +0.000 A 
ATOM      6  CA  UNL     1       4.939   4.971  -0.170  0.00  0.00    +0.000 A 
ATOM      7  N   UNL     1       4.467   3.700  -0.178  0.00  0.00    +0.000 NA
ATOM      8  H   UNL     1       1.726   2.396  -1.005  0.00  0.00    +0.000 HD
ENDROOT
BRANCH   6   9
ATOM      9  C   UNL     1       6.258   5.143   0.495  0.00  0.00    +0.000 C 
ATOM     10  O   UNL     1       6.843   6.204   0.618  0.00  0.00    +0.000 OA
BRANCH   9  11
ATOM     11  OXT UNL     1       6.720   3.954   0.959  0.00  0.00    +0.000 OA
ATOM     12  HXT UNL     1       6.072   3.248   0.725  0.00  0.00    +0.000 HD
ENDBRANCH   9  11
ENDBRANCH   6   9
BRANCH   1  13
ATOM     13  C   UNL     1       3.036   1.388   0.267  0.00  0.00    +0.000 C 
BRANCH  13  15
ATOM     14  C   UNL     1       2.765  -0.787  -1.076  0.00  0.00    +0.000 C 
ATOM     15  C   UNL     1       2.299   0.102   0.035  0.00  0.00    +0.000 C 
BRANCH  15  16
ATOM     16  C   UNL     1       0.923  -0.008   0.540  0.00  0.00    +0.000 A 
ATOM     17  C   UNL     1       0.641   0.189   1.898  0.00  0.00    +0.000 A 
ATOM     18  C   UNL     1      -0.679   0.181   2.355  0.00  0.00    +0.000 A 
ATOM     19  C   UNL     1      -1.726  -0.022   1.459  0.00  0.00    +0.000 A 
ATOM     20  C   UNL     1      -1.454  -0.246   0.112  0.00  0.00    +0.000 A 
ATOM     21  C   UNL     1      -0.136  -0.249  -0.343  0.00  0.00    +0.000 A 
ENDBRANCH  15  16
ENDBRANCH  13  15
ENDBRANCH   1  13
TORSDOF 5
