REMARK  Name = 
REMARK  8 active torsions:
REMARK  status: ('A' for Active; 'I' for Inactive)
REMARK    1  A    between atoms: N_1  and  C_2
REMARK    2  A    between atoms: C_2  and  C_3
REMARK    3  A    between atoms: C_3  and  C_26
REMARK    4  A    between atoms: N_4  and  C_5
REMARK    5  A    between atoms: C_5  and  C_6
REMARK    6  A    between atoms: C_9  and  C_10
REMARK    7  A    between atoms: C_10  and  N_11
REMARK    8  A    between atoms: C_12  and  C_14
REMARK                            x       y       z     vdW  Elec       q    Type
REMARK                         _______ _______ _______ _____ _____    ______ ____
ROOT
ATOM      1  C   UNL     1       1.319  -4.633   0.804  0.00  0.00    +0.000 A 
ATOM      2  C   UNL     1       0.061  -4.122   1.118  0.00  0.00    +0.000 A 
ATOM      3  C   UNL     1      -1.026  -4.988   1.232  0.00  0.00    +0.000 A 
ATOM      4  C   UNL     1      -0.824  -6.354   1.041  0.00  0.00    +0.000 A 
ATOM      5  N   UNL     1       0.388  -6.870   0.723  0.00  0.00    +0.000 NA
ATOM      6  C   UNL     1       1.421  -6.007   0.619  0.00  0.00    +0.000 A 
ENDROOT
BRANCH   1   7
ATOM      7  C   UNL     1       2.523  -3.750   0.626  0.00  0.00    +0.000 C 
BRANCH   7   9
ATOM      8  C   UNL     1       3.881  -2.238   1.891  0.00  0.00    +0.000 C 
ATOM      9  N   UNL     1       2.900  -3.077   1.860  0.00  0.00    +0.000 NA
BRANCH   8  10
ATOM     10  C   UNL     1       4.723  -1.832   0.778  0.00  0.00    +0.000 A 
ATOM     11  C   UNL     1       5.149  -2.480  -0.369  0.00  0.00    +0.000 A 
ATOM     12  C   UNL     1       5.957  -1.556  -1.053  0.00  0.00    +0.000 A 
ATOM     13  N   UNL     1       6.067  -0.403  -0.396  0.00  0.00    +0.000 NA
ATOM     14  N   UNL     1       5.311  -0.590   0.701  0.00  0.00    +0.000 N 
ATOM     15  H   UNL     1       5.221   0.177   1.363  0.00  0.00    +0.000 HD
ENDBRANCH   8  10
BRANCH   8  16
ATOM     16  C   UNL     1       4.162  -1.573   3.253  0.00  0.00    +0.000 C 
BRANCH  16  17
ATOM     17  N   UNL     1       3.455  -0.286   3.325  0.00  0.00    +0.000 NA
ATOM     18  H   UNL     1       3.542   0.070   4.279  0.00  0.00    +0.000 HD
ATOM     19  H   UNL     1       2.455  -0.482   3.219  0.00  0.00    +0.000 HD
ENDBRANCH  16  17
ENDBRANCH   8  16
ENDBRANCH   7   9
ENDBRANCH   1   7
BRANCH   4  20
ATOM     20  C   UNL     1      -1.982  -7.321   1.086  0.00  0.00    +0.000 C 
BRANCH  20  21
ATOM     21  N   UNL     1      -2.594  -7.456  -0.216  0.00  0.00    +0.000 N 
ATOM     22  C   UNL     1      -3.734  -8.193  -0.390  0.00  0.00    +0.000 C 
ATOM     23  O   UNL     1      -4.322  -8.711   0.557  0.00  0.00    +0.000 OA
ATOM     24  H   UNL     1      -1.978  -7.301  -1.010  0.00  0.00    +0.000 HD
BRANCH  22  25
ATOM     25  C   UNL     1      -4.264  -8.272  -1.757  0.00  0.00    +0.000 A 
ATOM     26  C   UNL     1      -5.603  -8.587  -1.952  0.00  0.00    +0.000 A 
ATOM     27  S   UNL     1      -6.078  -8.576  -3.589  0.00  0.00    +0.000 S 
ATOM     28  C   UNL     1      -4.499  -8.205  -4.102  0.00  0.00    +0.000 A 
ATOM     29  N   UNL     1      -4.207  -8.077  -5.423  0.00  0.00    +0.000 NA
ATOM     30  C   UNL     1      -2.964  -7.827  -5.671  0.00  0.00    +0.000 A 
ATOM     31  N   UNL     1      -1.990  -7.685  -4.720  0.00  0.00    +0.000 N 
ATOM     32  C   UNL     1      -2.243  -7.772  -3.373  0.00  0.00    +0.000 A 
ATOM     33  O   UNL     1      -1.360  -7.588  -2.544  0.00  0.00    +0.000 OA
ATOM     34  C   UNL     1      -3.623  -8.071  -3.037  0.00  0.00    +0.000 A 
ATOM     35  H   UNL     1      -1.036  -7.484  -4.980  0.00  0.00    +0.000 HD
ENDBRANCH  22  25
ENDBRANCH  20  21
ENDBRANCH   4  20
TORSDOF 8
