REMARK  Name = 
REMARK  9 active torsions:
REMARK  status: ('A' for Active; 'I' for Inactive)
REMARK    1  A    between atoms: C_1  and  O_2
REMARK    2  A    between atoms: O_2  and  C_3
REMARK    3  A    between atoms: C_10  and  C_11
REMARK    4  A    between atoms: N_13  and  C_14
REMARK    5  A    between atoms: C_14  and  C_15
REMARK    6  A    between atoms: C_18  and  N_19
REMARK    7  A    between atoms: N_19  and  C_20
REMARK    8  A    between atoms: C_20  and  C_21
REMARK    9  A    between atoms: C_21  and  C_22
REMARK                            x       y       z     vdW  Elec       q    Type
REMARK                         _______ _______ _______ _____ _____    ______ ____
ROOT
ATOM      1  C   UNL     1       2.201  -3.287   1.254  0.00  0.00    +0.000 A 
ATOM      2  C   UNL     1       1.509  -4.434   1.661  0.00  0.00    +0.000 A 
ATOM      3  C   UNL     1       0.573  -4.375   2.702  0.00  0.00    +0.000 A 
ATOM      4  C   UNL     1       0.315  -3.173   3.369  0.00  0.00    +0.000 A 
ATOM      5  C   UNL     1       0.948  -2.016   2.903  0.00  0.00    +0.000 A 
ATOM      6  C   UNL     1       1.892  -2.069   1.871  0.00  0.00    +0.000 A 
ENDROOT
BRANCH   4   7
ATOM      7  N   UNL     1      -0.611  -3.037   4.413  0.00  0.00    +0.000 N 
ATOM      8  H   UNL     1      -1.489  -2.671   4.044  0.00  0.00    +0.000 HD
BRANCH   7   9
ATOM      9  C   UNL     1      -0.821  -4.194   5.292  0.00  0.00    +0.000 C 
BRANCH   9  10
ATOM     10  C   UNL     1      -1.268  -3.718   6.673  0.00  0.00    +0.000 C 
BRANCH  10  11
ATOM     11  C   UNL     1      -1.396  -4.891   7.603  0.00  0.00    +0.000 A 
ATOM     12  N   UNL     1      -2.585  -5.489   7.688  0.00  0.00    +0.000 NA
ATOM     13  C   UNL     1      -2.609  -6.541   8.503  0.00  0.00    +0.000 A 
ATOM     14  N   UNL     1      -1.580  -7.023   9.193  0.00  0.00    +0.000 NA
ATOM     15  C   UNL     1      -0.444  -6.367   9.013  0.00  0.00    +0.000 A 
ATOM     16  N   UNL     1       0.667  -6.821   9.694  0.00  0.00    +0.000 N 
ATOM     17  N   UNL     1      -0.298  -5.293   8.249  0.00  0.00    +0.000 NA
ATOM     18  H   UNL     1       0.388  -7.352  10.506  0.00  0.00    +0.000 HD
ATOM     19  H   UNL     1       1.327  -6.069   9.833  0.00  0.00    +0.000 HD
ENDBRANCH  10  11
ENDBRANCH   9  10
ENDBRANCH   7   9
ENDBRANCH   4   7
BRANCH   1  20
ATOM     20  C   UNL     1       3.217  -3.353   0.142  0.00  0.00    +0.000 C 
BRANCH  20  23
ATOM     21  C   UNL     1       3.296  -3.140  -2.311  0.00  0.00    +0.000 C 
ATOM     22  O   UNL     1       4.506  -3.358  -2.327  0.00  0.00    +0.000 OA
ATOM     23  N   UNL     1       2.593  -3.131  -1.138  0.00  0.00    +0.000 N 
ATOM     24  H   UNL     1       1.592  -2.997  -1.149  0.00  0.00    +0.000 HD
BRANCH  21  32
ATOM     25  C   UNL     1      -0.019  -2.495  -2.986  0.00  0.00    +0.000 A 
ATOM     26  N   UNL     1      -1.207  -2.132  -3.510  0.00  0.00    +0.000 NA
ATOM     27  C   UNL     1      -1.262  -1.856  -4.814  0.00  0.00    +0.000 A 
ATOM     28  N   UNL     1      -0.260  -1.912  -5.688  0.00  0.00    +0.000 NA
ATOM     29  C   UNL     1       0.908  -2.268  -5.126  0.00  0.00    +0.000 A 
ATOM     30  S   UNL     1       2.295  -2.409  -6.095  0.00  0.00    +0.000 S 
ATOM     31  C   UNL     1       3.251  -2.824  -4.752  0.00  0.00    +0.000 A 
ATOM     32  C   UNL     1       2.551  -2.855  -3.551  0.00  0.00    +0.000 A 
ATOM     33  C   UNL     1       1.139  -2.560  -3.786  0.00  0.00    +0.000 A 
BRANCH  25  35
ATOM     34  C   UNL     1      -1.189  -2.666  -0.950  0.00  0.00    +0.000 C 
ATOM     35  O   UNL     1       0.040  -2.828  -1.650  0.00  0.00    +0.000 OA
ENDBRANCH  25  35
ENDBRANCH  21  32
ENDBRANCH  20  23
ENDBRANCH   1  20
TORSDOF 8
