REMARK  Name = 
REMARK  7 active torsions:
REMARK  status: ('A' for Active; 'I' for Inactive)
REMARK    1  A    between atoms: C_2  and  C_21
REMARK    2  A    between atoms: N_3  and  C_4
REMARK    3  A    between atoms: C_4  and  C_5
REMARK    4  A    between atoms: C_8  and  C_9
REMARK    5  A    between atoms: C_9  and  C_10
REMARK    6  A    between atoms: C_10  and  C_11
REMARK    7  A    between atoms: C_16  and  O_17
REMARK                            x       y       z     vdW  Elec       q    Type
REMARK                         _______ _______ _______ _____ _____    ______ ____
ROOT
ATOM      1  C   UNL     1       3.230   3.691  -0.315  0.00  0.00    +0.000 A 
ATOM      2  C   UNL     1       2.731   4.994  -0.417  0.00  0.00    +0.000 A 
ATOM      3  C   UNL     1       3.599   6.086  -0.486  0.00  0.00    +0.000 A 
ATOM      4  C   UNL     1       4.988   5.900  -0.453  0.00  0.00    +0.000 A 
ATOM      5  C   UNL     1       5.488   4.593  -0.392  0.00  0.00    +0.000 A 
ATOM      6  C   UNL     1       4.618   3.499  -0.330  0.00  0.00    +0.000 A 
ENDROOT
BRANCH   1   7
ATOM      7  C   UNL     1       2.284   2.524  -0.213  0.00  0.00    +0.000 C 
BRANCH   7  10
ATOM      8  O   UNL     1      -0.032   3.128  -1.716  0.00  0.00    +0.000 OA
ATOM      9  C   UNL     1       0.810   2.374  -2.192  0.00  0.00    +0.000 C 
ATOM     10  N   UNL     1       1.940   2.003  -1.510  0.00  0.00    +0.000 N 
ATOM     11  H   UNL     1       2.683   1.520  -2.001  0.00  0.00    +0.000 HD
BRANCH   9  12
ATOM     12  C   UNL     1       0.633   1.762  -3.518  0.00  0.00    +0.000 A 
ATOM     13  C   UNL     1      -0.635   1.693  -4.080  0.00  0.00    +0.000 A 
ATOM     14  S   UNL     1      -0.667   0.936  -5.608  0.00  0.00    +0.000 S 
ATOM     15  C   UNL     1       1.020   0.716  -5.594  0.00  0.00    +0.000 A 
ATOM     16  N   UNL     1       1.657   0.138  -6.650  0.00  0.00    +0.000 NA
ATOM     17  C   UNL     1       2.941   0.072  -6.525  0.00  0.00    +0.000 A 
ATOM     18  N   UNL     1       3.643   0.515  -5.434  0.00  0.00    +0.000 N 
ATOM     19  C   UNL     1       3.034   1.029  -4.317  0.00  0.00    +0.000 A 
ATOM     20  O   UNL     1       3.683   1.284  -3.307  0.00  0.00    +0.000 OA
ATOM     21  C   UNL     1       1.595   1.181  -4.426  0.00  0.00    +0.000 A 
ATOM     22  H   UNL     1       4.644   0.403  -5.384  0.00  0.00    +0.000 HD
ENDBRANCH   9  12
ENDBRANCH   7  10
ENDBRANCH   1   7
BRANCH   4  23
ATOM     23  C   UNL     1       5.934   7.077  -0.525  0.00  0.00    +0.000 C 
BRANCH  23  24
ATOM     24  C   UNL     1       5.750   8.065   0.628  0.00  0.00    +0.000 C 
BRANCH  24  25
ATOM     25  C   UNL     1       6.702   9.245   0.521  0.00  0.00    +0.000 C 
ATOM     26  O   UNL     1       7.554   9.321  -0.364  0.00  0.00    +0.000 OA
ATOM     27  N   UNL     1       6.540  10.244   1.457  0.00  0.00    +0.000 N 
ATOM     28  C   UNL     1       7.279  11.491   1.355  0.00  0.00    +0.000 C 
ATOM     29  C   UNL     1       6.755  12.373   2.481  0.00  0.00    +0.000 C 
ATOM     30  C   UNL     1       5.400  11.765   2.835  0.00  0.00    +0.000 C 
ATOM     31  C   UNL     1       5.608  10.275   2.571  0.00  0.00    +0.000 C 
BRANCH  30  32
ATOM     32  O   UNL     1       5.031  12.044   4.174  0.00  0.00    +0.000 OA
ATOM     33  H   UNL     1       5.766  11.792   4.758  0.00  0.00    +0.000 HD
ENDBRANCH  30  32
ENDBRANCH  24  25
ENDBRANCH  23  24
ENDBRANCH   4  23
TORSDOF 7
