REMARK  Name = 
REMARK  8 active torsions:
REMARK  status: ('A' for Active; 'I' for Inactive)
REMARK    1  A    between atoms: N_1  and  C_2
REMARK    2  A    between atoms: C_2  and  C_3
REMARK    3  A    between atoms: C_3  and  N_4
REMARK    4  A    between atoms: C_3  and  C_17
REMARK    5  A    between atoms: C_5  and  C_7
REMARK    6  A    between atoms: C_20  and  O_21
REMARK    7  A    between atoms: O_21  and  C_22
REMARK    8  A    between atoms: C_22  and  C_23
REMARK                            x       y       z     vdW  Elec       q    Type
REMARK                         _______ _______ _______ _____ _____    ______ ____
ROOT
ATOM      1  C   UNL     1       2.969   1.235  -0.627  0.00  0.00    +0.000 C 
ENDROOT
BRANCH   1   2
ATOM      2  C   UNL     1       4.492   1.306  -0.610  0.00  0.00    +0.000 A 
ATOM      3  C   UNL     1       5.193   1.542  -1.802  0.00  0.00    +0.000 A 
ATOM      4  C   UNL     1       6.589   1.649  -1.810  0.00  0.00    +0.000 A 
ATOM      5  C   UNL     1       7.305   1.529  -0.620  0.00  0.00    +0.000 A 
ATOM      6  C   UNL     1       6.620   1.276   0.568  0.00  0.00    +0.000 A 
ATOM      7  C   UNL     1       5.227   1.175   0.579  0.00  0.00    +0.000 A 
BRANCH   5   8
ATOM      8  O   UNL     1       8.667   1.582  -0.510  0.00  0.00    +0.000 OA
BRANCH   8   9
ATOM      9  C   UNL     1       9.335   2.458  -1.425  0.00  0.00    +0.000 C 
BRANCH   9  10
ATOM     10  C   UNL     1      10.815   2.473  -1.101  0.00  0.00    +0.000 A 
ATOM     11  C   UNL     1      11.550   1.289  -1.164  0.00  0.00    +0.000 A 
ATOM     12  C   UNL     1      12.912   1.321  -0.877  0.00  0.00    +0.000 A 
ATOM     13  C   UNL     1      13.506   2.529  -0.536  0.00  0.00    +0.000 A 
ATOM     14  C   UNL     1      12.709   3.661  -0.499  0.00  0.00    +0.000 A 
ATOM     15  N   UNL     1      11.386   3.663  -0.779  0.00  0.00    +0.000 NA
ENDBRANCH   9  10
ENDBRANCH   8   9
ENDBRANCH   5   8
ENDBRANCH   1   2
BRANCH   1  16
ATOM     16  N   UNL     1       2.436   2.394   0.075  0.00  0.00    +0.000 N 
ATOM     17  C   UNL     1       1.211   2.934  -0.207  0.00  0.00    +0.000 C 
ATOM     18  O   UNL     1       0.450   2.435  -1.030  0.00  0.00    +0.000 OA
ATOM     19  H   UNL     1       3.065   2.878   0.709  0.00  0.00    +0.000 HD
BRANCH  17  20
ATOM     20  C   UNL     1       0.832   4.138   0.548  0.00  0.00    +0.000 A 
ATOM     21  C   UNL     1      -0.508   4.478   0.673  0.00  0.00    +0.000 A 
ATOM     22  S   UNL     1      -0.769   5.931   1.528  0.00  0.00    +0.000 S 
ATOM     23  C   UNL     1       0.903   6.181   1.722  0.00  0.00    +0.000 A 
ATOM     24  N   UNL     1       1.378   7.304   2.323  0.00  0.00    +0.000 NA
ATOM     25  C   UNL     1       2.667   7.386   2.359  0.00  0.00    +0.000 A 
ATOM     26  N   UNL     1       3.523   6.430   1.877  0.00  0.00    +0.000 N 
ATOM     27  C   UNL     1       3.085   5.233   1.358  0.00  0.00    +0.000 A 
ATOM     28  O   UNL     1       3.867   4.327   1.110  0.00  0.00    +0.000 OA
ATOM     29  C   UNL     1       1.648   5.136   1.203  0.00  0.00    +0.000 A 
ATOM     30  H   UNL     1       4.522   6.526   1.990  0.00  0.00    +0.000 HD
ENDBRANCH  17  20
ENDBRANCH   1  16
BRANCH   1  31
ATOM     31  C   UNL     1       2.415  -0.094  -0.031  0.00  0.00    +0.000 C 
BRANCH  31  32
ATOM     32  N   UNL     1       2.890  -1.308  -0.709  0.00  0.00    +0.000 NA
ATOM     33  H   UNL     1       2.659  -2.121  -0.139  0.00  0.00    +0.000 HD
ATOM     34  H   UNL     1       3.909  -1.286  -0.774  0.00  0.00    +0.000 HD
ENDBRANCH  31  32
ENDBRANCH   1  31
TORSDOF 8
