REMARK  Name = 
REMARK  3 active torsions:
REMARK  status: ('A' for Active; 'I' for Inactive)
REMARK    1  A    between atoms: C_2  and  C_4
REMARK    2  A    between atoms: N_8  and  C_9
REMARK    3  A    between atoms: C_9  and  C_10
REMARK                            x       y       z     vdW  Elec       q    Type
REMARK                         _______ _______ _______ _____ _____    ______ ____
ROOT
ATOM      1  C   UNL     1       0.515   2.973  -1.397  0.00  0.00    +0.000 A 
ATOM      2  C   UNL     1       0.606   2.344  -2.636  0.00  0.00    +0.000 A 
ATOM      3  C   UNL     1       1.702   2.622  -3.450  0.00  0.00    +0.000 A 
ATOM      4  C   UNL     1       2.662   3.541  -3.022  0.00  0.00    +0.000 A 
ATOM      5  N   UNL     1       3.862   3.627  -3.773  0.00  0.00    +0.000 N 
ATOM      6  N   UNL     1       2.530   4.204  -1.857  0.00  0.00    +0.000 NA
ATOM      7  C   UNL     1       1.460   3.928  -1.076  0.00  0.00    +0.000 A 
ATOM      8  H   UNL     1       4.436   2.841  -3.473  0.00  0.00    +0.000 HD
ENDROOT
BRANCH   1  10
ATOM      9  N   UNL     1      -0.729   1.223  -0.317  0.00  0.00    +0.000 N 
ATOM     10  C   UNL     1      -0.460   2.563  -0.375  0.00  0.00    +0.000 C 
ATOM     11  O   UNL     1      -0.925   3.361   0.439  0.00  0.00    +0.000 OA
ATOM     12  H   UNL     1      -1.236   0.902   0.500  0.00  0.00    +0.000 HD
ATOM     13  H   UNL     1      -0.157   0.544  -0.795  0.00  0.00    +0.000 HD
ENDBRANCH   1  10
BRANCH   5  14
ATOM     14  C   UNL     1       4.628   4.887  -3.917  0.00  0.00    +0.000 C 
ATOM     15  C   UNL     1       4.592   6.059  -2.953  0.00  0.00    +0.000 C 
ATOM     16  C   UNL     1       3.845   6.151  -4.245  0.00  0.00    +0.000 C 
BRANCH  14  17
ATOM     17  C   UNL     1       5.954   4.704  -4.659  0.00  0.00    +0.000 A 
ATOM     18  C   UNL     1       6.007   4.683  -6.058  0.00  0.00    +0.000 A 
ATOM     19  C   UNL     1       7.237   4.760  -6.691  0.00  0.00    +0.000 A 
ATOM     20  N   UNL     1       8.415   4.818  -6.038  0.00  0.00    +0.000 NA
ATOM     21  C   UNL     1       8.359   4.767  -4.692  0.00  0.00    +0.000 A 
ATOM     22  C   UNL     1       7.177   4.685  -3.974  0.00  0.00    +0.000 A 
ENDBRANCH  14  17
ENDBRANCH   5  14
TORSDOF 3
