REMARK  Name = 
REMARK  8 active torsions:
REMARK  status: ('A' for Active; 'I' for Inactive)
REMARK    1  A    between atoms: C_2  and  C_21
REMARK    2  A    between atoms: N_3  and  CA_4
REMARK    3  A    between atoms: CA_4  and  C_5
REMARK    4  A    between atoms: CA_4  and  C_7
REMARK    5  A    between atoms: C_5  and  O_6
REMARK    6  A    between atoms: C_10  and  C_11
REMARK    7  A    between atoms: C_11  and  O_12
REMARK    8  A    between atoms: O_12  and  C_13
REMARK                            x       y       z     vdW  Elec       q    Type
REMARK                         _______ _______ _______ _____ _____    ______ ____
ROOT
ATOM      1  CA  UNL     1       2.210   2.532  -0.351  0.00  0.00    +0.000 C 
ENDROOT
BRANCH   1   2
ATOM      2  C   UNL     1       3.190   3.679  -0.580  0.00  0.00    +0.000 A 
ATOM      3  C   UNL     1       3.119   4.427  -1.754  0.00  0.00    +0.000 A 
ATOM      4  C   UNL     1       4.000   5.490  -1.933  0.00  0.00    +0.000 A 
ATOM      5  C   UNL     1       4.954   5.778  -0.955  0.00  0.00    +0.000 A 
ATOM      6  C   UNL     1       4.953   4.981   0.183  0.00  0.00    +0.000 A 
ATOM      7  N   UNL     1       4.098   3.949   0.395  0.00  0.00    +0.000 NA
BRANCH   5   8
ATOM      8  C   UNL     1       5.919   6.923  -1.120  0.00  0.00    +0.000 C 
BRANCH   8   9
ATOM      9  O   UNL     1       5.330   8.092  -0.564  0.00  0.00    +0.000 OA
BRANCH   9  10
ATOM     10  C   UNL     1       6.079   9.229  -0.778  0.00  0.00    +0.000 A 
ATOM     11  N   UNL     1       7.280   9.136  -1.350  0.00  0.00    +0.000 NA
ATOM     12  C   UNL     1       7.898  10.306  -1.507  0.00  0.00    +0.000 A 
ATOM     13  N   UNL     1       7.426  11.496  -1.146  0.00  0.00    +0.000 NA
ATOM     14  C   UNL     1       6.223  11.451  -0.582  0.00  0.00    +0.000 A 
ATOM     15  N   UNL     1       5.499  10.356  -0.369  0.00  0.00    +0.000 NA
ENDBRANCH   9  10
ENDBRANCH   8   9
ENDBRANCH   5   8
ENDBRANCH   1   2
BRANCH   1  18
ATOM     16  O   UNL     1       2.793   0.693  -2.395  0.00  0.00    +0.000 OA
ATOM     17  C   UNL     1       3.198   0.452  -1.261  0.00  0.00    +0.000 C 
ATOM     18  N   UNL     1       2.911   1.265  -0.200  0.00  0.00    +0.000 N 
ATOM     19  H   UNL     1       3.422   1.159   0.671  0.00  0.00    +0.000 HD
BRANCH  17  20
ATOM     20  C   UNL     1       3.953  -0.770  -0.959  0.00  0.00    +0.000 A 
ATOM     21  C   UNL     1       3.845  -1.871  -1.796  0.00  0.00    +0.000 A 
ATOM     22  S   UNL     1       4.772  -3.210  -1.289  0.00  0.00    +0.000 S 
ATOM     23  C   UNL     1       5.385  -2.351   0.044  0.00  0.00    +0.000 A 
ATOM     24  N   UNL     1       6.281  -2.921   0.894  0.00  0.00    +0.000 NA
ATOM     25  C   UNL     1       6.695  -2.141   1.836  0.00  0.00    +0.000 A 
ATOM     26  N   UNL     1       6.285  -0.845   2.013  0.00  0.00    +0.000 N 
ATOM     27  C   UNL     1       5.330  -0.253   1.224  0.00  0.00    +0.000 A 
ATOM     28  O   UNL     1       4.901   0.868   1.484  0.00  0.00    +0.000 OA
ATOM     29  C   UNL     1       4.865  -1.069   0.121  0.00  0.00    +0.000 A 
ATOM     30  H   UNL     1       6.623  -0.296   2.790  0.00  0.00    +0.000 HD
ENDBRANCH  17  20
ENDBRANCH   1  18
BRANCH   1  31
ATOM     31  C   UNL     1       1.345   2.804   0.897  0.00  0.00    +0.000 C 
BRANCH  31  32
ATOM     32  O   UNL     1       2.091   2.693   2.114  0.00  0.00    +0.000 OA
ATOM     33  H   UNL     1       2.975   3.079   1.931  0.00  0.00    +0.000 HD
ENDBRANCH  31  32
ENDBRANCH   1  31
TORSDOF 8
