REMARK  Name = 
REMARK  7 active torsions:
REMARK  status: ('A' for Active; 'I' for Inactive)
REMARK    1  A    between atoms: C_2  and  C_21
REMARK    2  A    between atoms: N_3  and  C_4
REMARK    3  A    between atoms: C_4  and  C_5
REMARK    4  A    between atoms: N_9  and  C_10
REMARK    5  A    between atoms: C_10  and  C_11
REMARK    6  A    between atoms: C_11  and  O_12
REMARK    7  A    between atoms: C_11  and  C_13
REMARK                            x       y       z     vdW  Elec       q    Type
REMARK                         _______ _______ _______ _____ _____    ______ ____
ROOT
ATOM      1  C   UNL     1       3.128  -1.510   3.210  0.00  0.00    +0.000 A 
ATOM      2  C   UNL     1       3.925  -0.647   3.956  0.00  0.00    +0.000 A 
ATOM      3  C   UNL     1       4.820  -1.172   4.886  0.00  0.00    +0.000 A 
ATOM      4  C   UNL     1       4.930  -2.552   5.039  0.00  0.00    +0.000 A 
ATOM      5  N   UNL     1       5.939  -3.023   5.879  0.00  0.00    +0.000 N 
ATOM      6  N   UNL     1       4.163  -3.400   4.329  0.00  0.00    +0.000 NA
ATOM      7  C   UNL     1       3.277  -2.871   3.450  0.00  0.00    +0.000 A 
ATOM      8  H   UNL     1       5.825  -2.665   6.826  0.00  0.00    +0.000 HD
ENDROOT
BRANCH   1   9
ATOM      9  C   UNL     1       2.207  -0.995   2.148  0.00  0.00    +0.000 C 
BRANCH   9  12
ATOM     10  O   UNL     1       1.079  -0.037  -0.250  0.00  0.00    +0.000 OA
ATOM     11  C   UNL     1       2.243  -0.427  -0.247  0.00  0.00    +0.000 C 
ATOM     12  N   UNL     1       2.894  -0.845   0.891  0.00  0.00    +0.000 N 
ATOM     13  H   UNL     1       3.841  -1.193   0.762  0.00  0.00    +0.000 HD
BRANCH  11  14
ATOM     14  C   UNL     1       3.060  -0.549  -1.464  0.00  0.00    +0.000 A 
ATOM     15  N   UNL     1       4.334  -1.006  -1.419  0.00  0.00    +0.000 NA
ATOM     16  N   UNL     1       4.690  -1.079  -2.719  0.00  0.00    +0.000 N 
ATOM     17  C   UNL     1       3.707  -0.711  -3.587  0.00  0.00    +0.000 A 
ATOM     18  N   UNL     1       3.773  -0.758  -4.931  0.00  0.00    +0.000 NA
ATOM     19  C   UNL     1       2.630  -0.336  -5.521  0.00  0.00    +0.000 A 
ATOM     20  C   UNL     1       1.503   0.140  -4.861  0.00  0.00    +0.000 A 
ATOM     21  C   UNL     1       1.495   0.171  -3.465  0.00  0.00    +0.000 A 
ATOM     22  C   UNL     1       2.641  -0.300  -2.804  0.00  0.00    +0.000 A 
ATOM     23  H   UNL     1       5.614  -1.412  -2.965  0.00  0.00    +0.000 HD
ENDBRANCH  11  14
ENDBRANCH   9  12
ENDBRANCH   1   9
BRANCH   5  24
ATOM     24  C   UNL     1       6.190  -4.468   5.875  0.00  0.00    +0.000 C 
BRANCH  24  25
ATOM     25  C   UNL     1       7.518  -4.734   6.612  0.00  0.00    +0.000 C 
BRANCH  25  26
ATOM     26  C   UNL     1       8.020  -6.144   6.375  0.00  0.00    +0.000 A 
ATOM     27  C   UNL     1       8.799  -6.442   5.259  0.00  0.00    +0.000 A 
ATOM     28  C   UNL     1       9.259  -7.742   5.086  0.00  0.00    +0.000 A 
ATOM     29  C   UNL     1       8.931  -8.713   6.031  0.00  0.00    +0.000 A 
ATOM     30  C   UNL     1       8.152  -8.335   7.111  0.00  0.00    +0.000 A 
ATOM     31  N   UNL     1       7.691  -7.081   7.307  0.00  0.00    +0.000 NA
ENDBRANCH  25  26
BRANCH  25  32
ATOM     32  O   UNL     1       7.319  -4.514   8.025  0.00  0.00    +0.000 OA
ATOM     33  H   UNL     1       7.309  -5.415   8.412  0.00  0.00    +0.000 HD
ENDBRANCH  25  32
ENDBRANCH  24  25
ENDBRANCH   5  24
TORSDOF 7
