REMARK  Name = 
REMARK  8 active torsions:
REMARK  status: ('A' for Active; 'I' for Inactive)
REMARK    1  A    between atoms: C_1  and  C_2
REMARK    2  A    between atoms: C_2  and  N_3
REMARK    3  A    between atoms: C_2  and  C_11
REMARK    4  A    between atoms: N_3  and  C_4
REMARK    5  A    between atoms: C_4  and  C_5
REMARK    6  A    between atoms: C_14  and  C_15
REMARK    7  A    between atoms: C_15  and  N_16
REMARK    8  A    between atoms: C_17  and  C_19
REMARK                            x       y       z     vdW  Elec       q    Type
REMARK                         _______ _______ _______ _____ _____    ______ ____
ROOT
ATOM      1  C   UNL     1      -0.760  -0.799   3.424  0.00  0.00    +0.000 A 
ATOM      2  C   UNL     1       0.037  -1.007   4.552  0.00  0.00    +0.000 A 
ATOM      3  C   UNL     1       0.527   0.095   5.259  0.00  0.00    +0.000 A 
ATOM      4  C   UNL     1       0.238   1.387   4.820  0.00  0.00    +0.000 A 
ATOM      5  C   UNL     1      -0.595   1.506   3.718  0.00  0.00    +0.000 A 
ATOM      6  N   UNL     1      -1.085   0.457   3.021  0.00  0.00    +0.000 NA
ENDROOT
BRANCH   1   8
ATOM      7  C   UNL     1      -2.032  -1.487   1.347  0.00  0.00    +0.000 C 
ATOM      8  C   UNL     1      -1.232  -1.988   2.564  0.00  0.00    +0.000 C 
BRANCH   8   9
ATOM      9  N   UNL     1      -2.012  -2.963   3.354  0.00  0.00    +0.000 NA
ATOM     10  H   UNL     1      -1.454  -3.280   4.144  0.00  0.00    +0.000 HD
BRANCH   9  11
ATOM     11  C   UNL     1      -2.474  -4.133   2.604  0.00  0.00    +0.000 C 
BRANCH  11  12
ATOM     12  C   UNL     1      -3.316  -5.042   3.514  0.00  0.00    +0.000 C 
ATOM     13  C   UNL     1      -4.552  -4.293   4.053  0.00  0.00    +0.000 C 
ATOM     14  C   UNL     1      -5.432  -5.228   4.872  0.00  0.00    +0.000 C 
ATOM     15  C   UNL     1      -5.786  -6.485   4.082  0.00  0.00    +0.000 C 
ATOM     16  N   UNL     1      -4.588  -7.174   3.599  0.00  0.00    +0.000 NA
ATOM     17  C   UNL     1      -3.773  -6.299   2.751  0.00  0.00    +0.000 C 
ATOM     18  H   UNL     1      -4.869  -7.995   3.065  0.00  0.00    +0.000 HD
ENDBRANCH  11  12
ENDBRANCH   9  11
ENDBRANCH   8   9
ENDBRANCH   1   8
BRANCH   4  19
ATOM     19  C   UNL     1       0.784   2.605   5.503  0.00  0.00    +0.000 C 
BRANCH  19  20
ATOM     20  N   UNL     1      -0.103   3.082   6.530  0.00  0.00    +0.000 N 
ATOM     21  C   UNL     1       0.127   4.279   7.161  0.00  0.00    +0.000 C 
ATOM     22  O   UNL     1       1.055   5.015   6.835  0.00  0.00    +0.000 OA
ATOM     23  H   UNL     1      -0.720   2.403   6.962  0.00  0.00    +0.000 HD
BRANCH  21  24
ATOM     24  C   UNL     1      -0.827   4.668   8.206  0.00  0.00    +0.000 A 
ATOM     25  C   UNL     1      -0.952   6.005   8.559  0.00  0.00    +0.000 A 
ATOM     26  S   UNL     1      -2.138   6.293   9.750  0.00  0.00    +0.000 S 
ATOM     27  C   UNL     1      -2.494   4.633   9.873  0.00  0.00    +0.000 A 
ATOM     28  N   UNL     1      -3.428   4.182  10.753  0.00  0.00    +0.000 NA
ATOM     29  C   UNL     1      -3.576   2.899  10.762  0.00  0.00    +0.000 A 
ATOM     30  N   UNL     1      -2.878   2.027   9.971  0.00  0.00    +0.000 N 
ATOM     31  C   UNL     1      -1.940   2.439   9.051  0.00  0.00    +0.000 A 
ATOM     32  O   UNL     1      -1.352   1.632   8.337  0.00  0.00    +0.000 OA
ATOM     33  C   UNL     1      -1.731   3.871   9.006  0.00  0.00    +0.000 A 
ATOM     34  H   UNL     1      -3.045   1.033  10.022  0.00  0.00    +0.000 HD
ENDBRANCH  21  24
ENDBRANCH  19  20
ENDBRANCH   4  19
TORSDOF 7
