REMARK  Name = 
REMARK  8 active torsions:
REMARK  status: ('A' for Active; 'I' for Inactive)
REMARK    1  A    between atoms: C_1  and  O_2
REMARK    2  A    between atoms: O_2  and  C_3
REMARK    3  A    between atoms: C_10  and  C_11
REMARK    4  A    between atoms: N_13  and  C_14
REMARK    5  A    between atoms: C_14  and  C_15
REMARK    6  A    between atoms: C_18  and  C_19
REMARK    7  A    between atoms: C_20  and  C_21
REMARK    8  A    between atoms: C_21  and  C_22
REMARK                            x       y       z     vdW  Elec       q    Type
REMARK                         _______ _______ _______ _____ _____    ______ ____
ROOT
ATOM      1  C   UNL     1       3.008   1.447   2.998  0.00  0.00    +0.000 C 
ENDROOT
BRANCH   1   2
ATOM      2  C   UNL     1       1.899   2.324   2.477  0.00  0.00    +0.000 A 
ATOM      3  C   UNL     1       0.652   1.775   2.150  0.00  0.00    +0.000 A 
ATOM      4  C   UNL     1      -0.350   2.570   1.582  0.00  0.00    +0.000 A 
ATOM      5  C   UNL     1      -0.116   3.924   1.326  0.00  0.00    +0.000 A 
ATOM      6  C   UNL     1       1.116   4.483   1.677  0.00  0.00    +0.000 A 
ATOM      7  C   UNL     1       2.118   3.689   2.244  0.00  0.00    +0.000 A 
BRANCH   5   8
ATOM      8  C   UNL     1      -1.107   4.734   0.614  0.00  0.00    +0.000 C 
ATOM      9  C   UNL     1      -2.083   5.481   1.157  0.00  0.00    +0.000 C 
BRANCH   9  10
ATOM     10  C   UNL     1      -2.430   5.631   2.611  0.00  0.00    +0.000 C 
BRANCH  10  11
ATOM     11  C   UNL     1      -2.352   7.061   3.101  0.00  0.00    +0.000 A 
ATOM     12  C   UNL     1      -3.497   7.876   3.141  0.00  0.00    +0.000 A 
ATOM     13  C   UNL     1      -3.424   9.174   3.652  0.00  0.00    +0.000 A 
ATOM     14  C   UNL     1      -2.207   9.662   4.114  0.00  0.00    +0.000 A 
ATOM     15  F   UNL     1      -2.142  10.899   4.625  0.00  0.00    +0.000 F 
ATOM     16  C   UNL     1      -1.059   8.883   4.058  0.00  0.00    +0.000 A 
ATOM     17  C   UNL     1      -1.129   7.586   3.548  0.00  0.00    +0.000 A 
ENDBRANCH  10  11
ENDBRANCH   9  10
ENDBRANCH   5   8
ENDBRANCH   1   2
BRANCH   1  20
ATOM     18  C   UNL     1       4.822   0.032   2.151  0.00  0.00    +0.000 C 
ATOM     19  O   UNL     1       5.123  -0.289   3.301  0.00  0.00    +0.000 OA
ATOM     20  N   UNL     1       3.787   0.894   1.914  0.00  0.00    +0.000 N 
ATOM     21  H   UNL     1       3.546   1.159   0.967  0.00  0.00    +0.000 HD
BRANCH  18  29
ATOM     22  C   UNL     1       4.519   0.416  -1.271  0.00  0.00    +0.000 A 
ATOM     23  N   UNL     1       4.644   0.379  -2.616  0.00  0.00    +0.000 NA
ATOM     24  C   UNL     1       5.628  -0.353  -3.145  0.00  0.00    +0.000 A 
ATOM     25  N   UNL     1       6.525  -1.076  -2.484  0.00  0.00    +0.000 NA
ATOM     26  C   UNL     1       6.370  -1.017  -1.152  0.00  0.00    +0.000 A 
ATOM     27  S   UNL     1       7.433  -1.886  -0.156  0.00  0.00    +0.000 S 
ATOM     28  C   UNL     1       6.642  -1.341   1.243  0.00  0.00    +0.000 A 
ATOM     29  C   UNL     1       5.568  -0.493   0.994  0.00  0.00    +0.000 A 
ATOM     30  C   UNL     1       5.403  -0.301  -0.446  0.00  0.00    +0.000 A 
BRANCH  22  32
ATOM     31  C   UNL     1       2.704   1.839  -1.705  0.00  0.00    +0.000 C 
ATOM     32  O   UNL     1       3.502   1.175  -0.727  0.00  0.00    +0.000 OA
ENDBRANCH  22  32
ENDBRANCH  18  29
ENDBRANCH   1  20
TORSDOF 7
