REMARK  Name = 
REMARK  7 active torsions:
REMARK  status: ('A' for Active; 'I' for Inactive)
REMARK    1  A    between atoms: N_1  and  C_2
REMARK    2  A    between atoms: C_2  and  C_3
REMARK    3  A    between atoms: C_2  and  C_25
REMARK    4  A    between atoms: C_3  and  C_4
REMARK    5  A    between atoms: C_7  and  C_8
REMARK    6  A    between atoms: C_8  and  N_9
REMARK    7  A    between atoms: C_10  and  C_12
REMARK                            x       y       z     vdW  Elec       q    Type
REMARK                         _______ _______ _______ _____ _____    ______ ____
ROOT
ATOM      1  C   UNL     1      -2.500 -10.547   1.414  0.00  0.00    +0.000 A 
ATOM      2  C   UNL     1      -3.627 -11.086   2.050  0.00  0.00    +0.000 A 
ATOM      3  C   UNL     1      -4.389 -10.305   2.919  0.00  0.00    +0.000 A 
ATOM      4  C   UNL     1      -4.045  -8.971   3.161  0.00  0.00    +0.000 A 
ATOM      5  C   UNL     1      -2.903  -8.451   2.546  0.00  0.00    +0.000 A 
ATOM      6  F   UNL     1      -2.531  -7.185   2.781  0.00  0.00    +0.000 F 
ATOM      7  C   UNL     1      -2.137  -9.222   1.678  0.00  0.00    +0.000 A 
ENDROOT
BRANCH   1   8
ATOM      8  C   UNL     1      -1.671 -11.393   0.478  0.00  0.00    +0.000 C 
BRANCH   8   9
ATOM      9  C   UNL     1      -0.484 -12.121   1.160  0.00  0.00    +0.000 C 
BRANCH   9  10
ATOM     10  C   UNL     1       0.347 -12.947   0.113  0.00  0.00    +0.000 C 
ATOM     11  C   UNL     1       1.519 -13.692   0.788  0.00  0.00    +0.000 C 
ATOM     12  C   UNL     1       2.324 -14.505  -0.221  0.00  0.00    +0.000 C 
ATOM     13  C   UNL     1       2.760 -13.636  -1.392  0.00  0.00    +0.000 C 
ATOM     14  C   UNL     1       1.577 -12.885  -1.987  0.00  0.00    +0.000 C 
ATOM     15  N   UNL     1       0.884 -12.097  -0.968  0.00  0.00    +0.000 NA
ATOM     16  H   UNL     1       0.134 -11.583  -1.426  0.00  0.00    +0.000 HD
ENDBRANCH   9  10
BRANCH   9  17
ATOM     17  N   UNL     1      -0.995 -12.975   2.251  0.00  0.00    +0.000 NA
ATOM     18  H   UNL     1      -0.221 -13.353   2.794  0.00  0.00    +0.000 HD
ATOM     19  H   UNL     1      -1.511 -13.764   1.869  0.00  0.00    +0.000 HD
ENDBRANCH   9  17
ENDBRANCH   8   9
ENDBRANCH   1   8
BRANCH   4  20
ATOM     20  C   UNL     1      -4.881  -8.129   4.074  0.00  0.00    +0.000 C 
BRANCH  20  21
ATOM     21  N   UNL     1      -4.482  -8.262   5.452  0.00  0.00    +0.000 N 
ATOM     22  C   UNL     1      -5.213  -7.623   6.433  0.00  0.00    +0.000 C 
ATOM     23  O   UNL     1      -6.225  -6.972   6.196  0.00  0.00    +0.000 OA
ATOM     24  H   UNL     1      -3.494  -8.416   5.639  0.00  0.00    +0.000 HD
BRANCH  22  25
ATOM     25  C   UNL     1      -4.637  -7.800   7.833  0.00  0.00    +0.000 C 
ATOM     26  C   UNL     1      -5.719  -7.720   8.927  0.00  0.00    +0.000 C 
ATOM     27  C   UNL     1      -5.535  -6.385   9.670  0.00  0.00    +0.000 C 
ATOM     28  C   UNL     1      -4.251  -5.859   9.128  0.00  0.00    +0.000 A 
ATOM     29  N   UNL     1      -3.669  -4.710   9.579  0.00  0.00    +0.000 NA
ATOM     30  C   UNL     1      -2.584  -4.365   8.963  0.00  0.00    +0.000 A 
ATOM     31  N   UNL     1      -2.005  -5.083   7.948  0.00  0.00    +0.000 N 
ATOM     32  C   UNL     1      -2.531  -6.267   7.505  0.00  0.00    +0.000 A 
ATOM     33  O   UNL     1      -2.008  -6.974   6.658  0.00  0.00    +0.000 OA
ATOM     34  C   UNL     1      -3.782  -6.637   8.154  0.00  0.00    +0.000 A 
ATOM     35  H   UNL     1      -1.144  -4.781   7.524  0.00  0.00    +0.000 HD
ENDBRANCH  22  25
ENDBRANCH  20  21
ENDBRANCH   4  20
TORSDOF 7
