REMARK  Name = 
REMARK  6 active torsions:
REMARK  status: ('A' for Active; 'I' for Inactive)
REMARK    1  A    between atoms: C_1  and  C_2
REMARK    2  A    between atoms: N_7  and  C_8
REMARK    3  A    between atoms: C_12  and  C_13
REMARK    4  A    between atoms: C_13  and  O_14
REMARK    5  A    between atoms: O_14  and  C_15
REMARK    6  A    between atoms: C_18  and  C_19
REMARK                            x       y       z     vdW  Elec       q    Type
REMARK                         _______ _______ _______ _____ _____    ______ ____
ROOT
ATOM      1  C   UNL     1       3.629  -2.281   0.361  0.00  0.00    +0.000 A 
ATOM      2  C   UNL     1       4.859  -2.764  -0.097  0.00  0.00    +0.000 A 
ATOM      3  N   UNL     1       5.683  -3.605   0.576  0.00  0.00    +0.000 NA
ATOM      4  C   UNL     1       5.259  -4.017   1.787  0.00  0.00    +0.000 A 
ATOM      5  C   UNL     1       4.061  -3.618   2.363  0.00  0.00    +0.000 A 
ATOM      6  C   UNL     1       3.265  -2.710   1.645  0.00  0.00    +0.000 A 
ENDROOT
BRANCH   1  13
ATOM      7  C   UNL     1       0.680  -0.312   0.091  0.00  0.00    +0.000 C 
ATOM      8  C   UNL     1       2.208  -0.249   0.151  0.00  0.00    +0.000 C 
ATOM      9  C   UNL     1       2.743   0.963  -0.651  0.00  0.00    +0.000 C 
ATOM     10  O   UNL     1       2.541   0.814  -2.067  0.00  0.00    +0.000 OA
ATOM     11  C   UNL     1       3.236  -0.347  -2.547  0.00  0.00    +0.000 C 
ATOM     12  C   UNL     1       2.734  -1.625  -1.867  0.00  0.00    +0.000 C 
ATOM     13  N   UNL     1       2.776  -1.501  -0.399  0.00  0.00    +0.000 N 
ENDBRANCH   1  13
BRANCH   5  14
ATOM     14  C   UNL     1       3.621  -4.189   3.681  0.00  0.00    +0.000 C 
BRANCH  14  15
ATOM     15  O   UNL     1       4.155  -3.405   4.747  0.00  0.00    +0.000 OA
BRANCH  15  16
ATOM     16  C   UNL     1       3.911  -3.856   6.014  0.00  0.00    +0.000 A 
ATOM     17  C   UNL     1       3.146  -4.968   6.364  0.00  0.00    +0.000 A 
ATOM     18  C   UNL     1       2.999  -5.310   7.709  0.00  0.00    +0.000 A 
ATOM     19  C   UNL     1       3.625  -4.523   8.667  0.00  0.00    +0.000 A 
ATOM     20  N   UNL     1       4.372  -3.425   8.369  0.00  0.00    +0.000 NA
ATOM     21  C   UNL     1       4.489  -3.126   7.051  0.00  0.00    +0.000 A 
BRANCH  19  22
ATOM     22  C   UNL     1       3.496  -4.883  10.115  0.00  0.00    +0.000 C 
ATOM     23  N   UNL     1       4.157  -4.059  10.986  0.00  0.00    +0.000 N 
ATOM     24  O   UNL     1       2.852  -5.849  10.502  0.00  0.00    +0.000 OA
ATOM     25  H   UNL     1       4.691  -3.275  10.627  0.00  0.00    +0.000 HD
ATOM     26  H   UNL     1       4.130  -4.253  11.976  0.00  0.00    +0.000 HD
ENDBRANCH  19  22
ENDBRANCH  15  16
ENDBRANCH  14  15
ENDBRANCH   5  14
TORSDOF 5
