REMARK  Name = 
REMARK  8 active torsions:
REMARK  status: ('A' for Active; 'I' for Inactive)
REMARK    1  A    between atoms: C_2  and  C_4
REMARK    2  A    between atoms: C_7  and  O_8
REMARK    3  A    between atoms: O_8  and  C_9
REMARK    4  A    between atoms: C_9  and  C_10
REMARK    5  A    between atoms: C_10  and  C_11
REMARK    6  A    between atoms: C_10  and  C_13
REMARK    7  A    between atoms: C_11  and  O_12
REMARK    8  A    between atoms: C_17  and  C_18
REMARK                            x       y       z     vdW  Elec       q    Type
REMARK                         _______ _______ _______ _____ _____    ______ ____
ROOT
ATOM      1  C   UNL     1       6.395  -6.294   2.385  0.00  0.00    +0.000 C 
ENDROOT
BRANCH   1   2
ATOM      2  C   UNL     1       6.178  -7.776   2.122  0.00  0.00    +0.000 A 
ATOM      3  C   UNL     1       7.144  -8.509   1.426  0.00  0.00    +0.000 A 
ATOM      4  C   UNL     1       6.992  -9.883   1.260  0.00  0.00    +0.000 A 
ATOM      5  C   UNL     1       5.878 -10.538   1.792  0.00  0.00    +0.000 A 
ATOM      6  C   UNL     1       4.886  -9.840   2.500  0.00  0.00    +0.000 A 
ATOM      7  C   UNL     1       5.054  -8.449   2.633  0.00  0.00    +0.000 A 
BRANCH   6   8
ATOM      8  C   UNL     1       3.735 -10.531   3.120  0.00  0.00    +0.000 A 
ATOM      9  C   UNL     1       2.472  -9.932   3.239  0.00  0.00    +0.000 A 
ATOM     10  C   UNL     1       1.418 -10.603   3.858  0.00  0.00    +0.000 A 
ATOM     11  C   UNL     1       1.645 -11.878   4.342  0.00  0.00    +0.000 A 
ATOM     12  N   UNL     1       2.834 -12.505   4.255  0.00  0.00    +0.000 NA
ATOM     13  C   UNL     1       3.840 -11.817   3.658  0.00  0.00    +0.000 A 
ENDBRANCH   6   8
ENDBRANCH   1   2
BRANCH   1  14
ATOM     14  C   UNL     1       5.319  -5.389   1.757  0.00  0.00    +0.000 C 
BRANCH  14  15
ATOM     15  O   UNL     1       5.280  -5.537   0.327  0.00  0.00    +0.000 OA
BRANCH  15  19
ATOM     16  C   UNL     1       2.599  -2.932  -1.426  0.00  0.00    +0.000 A 
ATOM     17  C   UNL     1       3.285  -3.852  -2.222  0.00  0.00    +0.000 A 
ATOM     18  C   UNL     1       4.186  -4.739  -1.621  0.00  0.00    +0.000 A 
ATOM     19  C   UNL     1       4.359  -4.678  -0.247  0.00  0.00    +0.000 A 
ATOM     20  N   UNL     1       3.695  -3.803   0.543  0.00  0.00    +0.000 NA
ATOM     21  C   UNL     1       2.843  -2.946  -0.062  0.00  0.00    +0.000 A 
BRANCH  16  23
ATOM     22  N   UNL     1       1.003  -2.202  -3.113  0.00  0.00    +0.000 N 
ATOM     23  C   UNL     1       1.659  -1.918  -1.950  0.00  0.00    +0.000 C 
ATOM     24  O   UNL     1       1.445  -0.877  -1.344  0.00  0.00    +0.000 OA
ATOM     25  H   UNL     1       0.286  -1.541  -3.384  0.00  0.00    +0.000 HD
ATOM     26  H   UNL     1       0.948  -3.134  -3.495  0.00  0.00    +0.000 HD
ENDBRANCH  16  23
ENDBRANCH  15  19
ENDBRANCH  14  15
ENDBRANCH   1  14
BRANCH   1  27
ATOM     27  C   UNL     1       6.473  -6.049   3.908  0.00  0.00    +0.000 C 
BRANCH  27  28
ATOM     28  O   UNL     1       6.768  -4.695   4.217  0.00  0.00    +0.000 OA
ATOM     29  H   UNL     1       7.568  -4.438   3.729  0.00  0.00    +0.000 HD
ENDBRANCH  27  28
ENDBRANCH   1  27
TORSDOF 8
