REMARK  Name = 
REMARK  10 active torsions:
REMARK  status: ('A' for Active; 'I' for Inactive)
REMARK    1  A    between atoms: C_1  and  C_2
REMARK    2  A    between atoms: C_2  and  C_3
REMARK    3  A    between atoms: C_2  and  C_11
REMARK    4  A    between atoms: C_3  and  N_4
REMARK    5  A    between atoms: N_4  and  C_5
REMARK    6  A    between atoms: C_14  and  C_15
REMARK    7  A    between atoms: C_15  and  N_16
REMARK    8  A    between atoms: N_16  and  C_17
REMARK    9  A    between atoms: C_17  and  C_18
REMARK   10  A    between atoms: C_17  and  C_19
REMARK                            x       y       z     vdW  Elec       q    Type
REMARK                         _______ _______ _______ _____ _____    ______ ____
ROOT
ATOM      1  C   UNL     1       3.094  -0.260  -1.377  0.00  0.00    +0.000 A 
ATOM      2  C   UNL     1       3.420   0.877  -2.112  0.00  0.00    +0.000 A 
ATOM      3  C   UNL     1       3.854   0.735  -3.431  0.00  0.00    +0.000 A 
ATOM      4  C   UNL     1       3.943  -0.535  -4.007  0.00  0.00    +0.000 A 
ATOM      5  C   UNL     1       3.581  -1.609  -3.210  0.00  0.00    +0.000 A 
ATOM      6  N   UNL     1       3.169  -1.498  -1.928  0.00  0.00    +0.000 NA
ENDROOT
BRANCH   1   8
ATOM      7  C   UNL     1       3.582   0.595   0.964  0.00  0.00    +0.000 C 
ATOM      8  C   UNL     1       2.592  -0.155   0.064  0.00  0.00    +0.000 C 
BRANCH   8   9
ATOM      9  C   UNL     1       2.285  -1.565   0.630  0.00  0.00    +0.000 C 
BRANCH   9  10
ATOM     10  N   UNL     1       1.729  -1.572   1.994  0.00  0.00    +0.000 NA
ATOM     11  H   UNL     1       0.847  -1.060   2.003  0.00  0.00    +0.000 HD
BRANCH  10  12
ATOM     12  C   UNL     1       1.508  -2.947   2.484  0.00  0.00    +0.000 C 
ATOM     13  C   UNL     1       0.429  -3.705   1.696  0.00  0.00    +0.000 C 
ATOM     14  C   UNL     1       0.141  -5.053   2.341  0.00  0.00    +0.000 C 
ATOM     15  O   UNL     1      -0.243  -4.889   3.704  0.00  0.00    +0.000 OA
ATOM     16  C   UNL     1       0.795  -4.292   4.481  0.00  0.00    +0.000 C 
ATOM     17  C   UNL     1       1.122  -2.895   3.967  0.00  0.00    +0.000 C 
ENDBRANCH  10  12
ENDBRANCH   9  10
ENDBRANCH   8   9
ENDBRANCH   1   8
BRANCH   4  18
ATOM     18  C   UNL     1       4.371  -0.739  -5.435  0.00  0.00    +0.000 C 
BRANCH  18  19
ATOM     19  N   UNL     1       5.711  -0.201  -5.667  0.00  0.00    +0.000 NA
ATOM     20  H   UNL     1       6.344  -0.632  -4.991  0.00  0.00    +0.000 HD
BRANCH  19  21
ATOM     21  C   UNL     1       6.228  -0.488  -7.013  0.00  0.00    +0.000 C 
ATOM     22  C   UNL     1       5.398   0.164  -8.128  0.00  0.00    +0.000 C 
BRANCH  21  23
ATOM     23  C   UNL     1       7.653   0.038  -7.050  0.00  0.00    +0.000 A 
ATOM     24  C   UNL     1       7.994   1.359  -6.774  0.00  0.00    +0.000 A 
ATOM     25  S   UNL     1       9.654   1.686  -6.972  0.00  0.00    +0.000 S 
ATOM     26  C   UNL     1       9.978   0.078  -7.431  0.00  0.00    +0.000 A 
ATOM     27  N   UNL     1      11.231  -0.312  -7.780  0.00  0.00    +0.000 NA
ATOM     28  C   UNL     1      11.323  -1.555  -8.121  0.00  0.00    +0.000 A 
ATOM     29  N   UNL     1      10.280  -2.446  -8.123  0.00  0.00    +0.000 N 
ATOM     30  C   UNL     1       9.003  -2.112  -7.734  0.00  0.00    +0.000 A 
ATOM     31  O   UNL     1       8.112  -2.952  -7.670  0.00  0.00    +0.000 OA
ATOM     32  C   UNL     1       8.837  -0.707  -7.397  0.00  0.00    +0.000 A 
ATOM     33  H   UNL     1      10.431  -3.412  -8.372  0.00  0.00    +0.000 HD
ENDBRANCH  21  23
ENDBRANCH  19  21
ENDBRANCH  18  19
ENDBRANCH   4  18
TORSDOF 8
