REMARK  Name = 
REMARK  10 active torsions:
REMARK  status: ('A' for Active; 'I' for Inactive)
REMARK    1  A    between atoms: C_1  and  C_2
REMARK    2  A    between atoms: C_6  and  C_7
REMARK    3  A    between atoms: C_7  and  N_8
REMARK    4  A    between atoms: N_8  and  C_9
REMARK    5  A    between atoms: C_9  and  C_10
REMARK    6  A    between atoms: C_9  and  C_11
REMARK    7  A    between atoms: C_9  and  C_12
REMARK    8  A    between atoms: C_15  and  C_16
REMARK    9  A    between atoms: C_16  and  N_17
REMARK   10  A    between atoms: C_18  and  C_20
REMARK                            x       y       z     vdW  Elec       q    Type
REMARK                         _______ _______ _______ _____ _____    ______ ____
ROOT
ATOM      1  C   UNL     1      -5.331   3.568   0.124  0.00  0.00    +0.000 A 
ATOM      2  C   UNL     1      -5.935   2.318   0.259  0.00  0.00    +0.000 A 
ATOM      3  C   UNL     1      -7.322   2.209   0.206  0.00  0.00    +0.000 A 
ATOM      4  C   UNL     1      -8.098   3.359   0.098  0.00  0.00    +0.000 A 
ATOM      5  C   UNL     1      -7.429   4.574   0.070  0.00  0.00    +0.000 A 
ATOM      6  N   UNL     1      -6.082   4.700   0.057  0.00  0.00    +0.000 NA
ENDROOT
BRANCH   1   7
ATOM      7  C   UNL     1      -3.799   3.743   0.047  0.00  0.00    +0.000 C 
ATOM      8  C   UNL     1      -3.431   4.670  -1.136  0.00  0.00    +0.000 C 
ATOM      9  C   UNL     1      -3.349   4.448   1.347  0.00  0.00    +0.000 C 
BRANCH   7  10
ATOM     10  N   UNL     1      -3.021   2.475  -0.012  0.00  0.00    +0.000 NA
ATOM     11  H   UNL     1      -2.029   2.702   0.071  0.00  0.00    +0.000 HD
BRANCH  10  12
ATOM     12  C   UNL     1      -3.170   1.708  -1.259  0.00  0.00    +0.000 C 
BRANCH  12  18
ATOM     13  C   UNL     1      -0.131  -1.320  -3.490  0.00  0.00    +0.000 C 
ATOM     14  C   UNL     1      -0.989  -1.077  -2.288  0.00  0.00    +0.000 A 
ATOM     15  C   UNL     1      -1.125  -2.026  -1.284  0.00  0.00    +0.000 A 
ATOM     16  C   UNL     1      -1.960  -1.742  -0.207  0.00  0.00    +0.000 A 
ATOM     17  C   UNL     1      -2.632  -0.524  -0.167  0.00  0.00    +0.000 A 
ATOM     18  C   UNL     1      -2.442   0.379  -1.208  0.00  0.00    +0.000 A 
ATOM     19  N   UNL     1      -1.628   0.112  -2.259  0.00  0.00    +0.000 NA
ENDBRANCH  12  18
ENDBRANCH  10  12
ENDBRANCH   7  10
ENDBRANCH   1   7
BRANCH   4  20
ATOM     20  C   UNL     1      -9.592   3.291   0.102  0.00  0.00    +0.000 C 
BRANCH  20  21
ATOM     21  N   UNL     1     -10.085   3.208   1.452  0.00  0.00    +0.000 N 
ATOM     22  C   UNL     1     -11.412   3.007   1.717  0.00  0.00    +0.000 C 
ATOM     23  O   UNL     1     -12.233   2.836   0.819  0.00  0.00    +0.000 OA
ATOM     24  H   UNL     1      -9.470   3.537   2.191  0.00  0.00    +0.000 HD
BRANCH  22  25
ATOM     25  C   UNL     1     -11.795   2.949   3.132  0.00  0.00    +0.000 A 
ATOM     26  C   UNL     1     -12.977   2.318   3.494  0.00  0.00    +0.000 A 
ATOM     27  S   UNL     1     -13.254   2.297   5.175  0.00  0.00    +0.000 S 
ATOM     28  C   UNL     1     -11.827   3.173   5.478  0.00  0.00    +0.000 A 
ATOM     29  N   UNL     1     -11.474   3.517   6.745  0.00  0.00    +0.000 NA
ATOM     30  C   UNL     1     -10.386   4.208   6.827  0.00  0.00    +0.000 A 
ATOM     31  N   UNL     1      -9.613   4.579   5.756  0.00  0.00    +0.000 N 
ATOM     32  C   UNL     1      -9.913   4.223   4.464  0.00  0.00    +0.000 A 
ATOM     33  O   UNL     1      -9.176   4.528   3.529  0.00  0.00    +0.000 OA
ATOM     34  C   UNL     1     -11.139   3.461   4.314  0.00  0.00    +0.000 A 
ATOM     35  H   UNL     1      -8.766   5.110   5.891  0.00  0.00    +0.000 HD
ENDBRANCH  22  25
ENDBRANCH  20  21
ENDBRANCH   4  20
TORSDOF 7
