REMARK  Name = 
REMARK  7 active torsions:
REMARK  status: ('A' for Active; 'I' for Inactive)
REMARK    1  A    between atoms: N_1  and  C_2
REMARK    2  A    between atoms: C_2  and  C_3
REMARK    3  A    between atoms: C_7  and  C_8
REMARK    4  A    between atoms: C_8  and  C_9
REMARK    5  A    between atoms: C_9  and  C_10
REMARK    6  A    between atoms: C_10  and  C_11
REMARK    7  A    between atoms: C_14  and  C_15
REMARK                            x       y       z     vdW  Elec       q    Type
REMARK                         _______ _______ _______ _____ _____    ______ ____
ROOT
ATOM      1  C   UNL     1       3.318  -5.888  -1.948  0.00  0.00    +0.000 C 
ENDROOT
BRANCH   1   2
ATOM      2  C   UNL     1       2.581  -4.862  -1.088  0.00  0.00    +0.000 C 
BRANCH   2   7
ATOM      3  C   UNL     1       2.236  -1.508  -2.894  0.00  0.00    +0.000 A 
ATOM      4  C   UNL     1       3.309  -0.799  -2.337  0.00  0.00    +0.000 A 
ATOM      5  C   UNL     1       4.154  -1.405  -1.406  0.00  0.00    +0.000 A 
ATOM      6  C   UNL     1       3.926  -2.723  -1.008  0.00  0.00    +0.000 A 
ATOM      7  C   UNL     1       2.849  -3.445  -1.535  0.00  0.00    +0.000 A 
ATOM      8  C   UNL     1       2.020  -2.834  -2.488  0.00  0.00    +0.000 A 
BRANCH   3   9
ATOM      9  C   UNL     1       1.305  -0.845  -3.877  0.00  0.00    +0.000 C 
BRANCH   9  10
ATOM     10  N   UNL     1       2.016  -0.333  -5.044  0.00  0.00    +0.000 NA
ATOM     11  H   UNL     1       1.338   0.015  -5.719  0.00  0.00    +0.000 HD
ATOM     12  H   UNL     1       2.501  -1.108  -5.495  0.00  0.00    +0.000 HD
ENDBRANCH   9  10
ENDBRANCH   3   9
ENDBRANCH   2   7
ENDBRANCH   1   2
BRANCH   1  13
ATOM     13  C   UNL     1       2.990  -7.317  -1.505  0.00  0.00    +0.000 C 
BRANCH  13  14
ATOM     14  C   UNL     1       3.690  -8.324  -2.379  0.00  0.00    +0.000 A 
ATOM     15  C   UNL     1       4.961  -8.788  -2.052  0.00  0.00    +0.000 A 
ATOM     16  C   UNL     1       5.600  -9.670  -2.924  0.00  0.00    +0.000 A 
ATOM     17  C   UNL     1       4.965 -10.068  -4.103  0.00  0.00    +0.000 A 
ATOM     18  C   UNL     1       3.697  -9.561  -4.341  0.00  0.00    +0.000 A 
ATOM     19  N   UNL     1       3.049  -8.702  -3.512  0.00  0.00    +0.000 NA
BRANCH  17  20
ATOM     20  C   UNL     1       5.671 -10.987  -5.028  0.00  0.00    +0.000 C 
ATOM     21  N   UNL     1       5.059 -11.366  -6.191  0.00  0.00    +0.000 N 
ATOM     22  O   UNL     1       6.794 -11.404  -4.769  0.00  0.00    +0.000 OA
ATOM     23  H   UNL     1       4.149 -11.074  -6.509  0.00  0.00    +0.000 HD
ATOM     24  H   UNL     1       5.588 -11.983  -6.796  0.00  0.00    +0.000 HD
ENDBRANCH  17  20
ENDBRANCH  13  14
ENDBRANCH   1  13
TORSDOF 7
