REMARK  Name = 
REMARK  13 active torsions:
REMARK  status: ('A' for Active; 'I' for Inactive)
REMARK    1  A    between atoms: C_1  and  N_2
REMARK    2  A    between atoms: N_2  and  C_3
REMARK    3  A    between atoms: N_2  and  C_4
REMARK    4  A    between atoms: C_4  and  C_5
REMARK    5  A    between atoms: C_5  and  N_6
REMARK    6  A    between atoms: C_7  and  C_9
REMARK    7  A    between atoms: C_9  and  O_10
REMARK    8  A    between atoms: O_10  and  C_11
REMARK    9  A    between atoms: C_14  and  C_15
REMARK   10  A    between atoms: C_16  and  C_17
REMARK   11  A    between atoms: C_17  and  N_18
REMARK   12  A    between atoms: N_18  and  C_19
REMARK   13  A    between atoms: C_23  and  C_24
REMARK                            x       y       z     vdW  Elec       q    Type
REMARK                         _______ _______ _______ _____ _____    ______ ____
ROOT
ATOM      1  C   UNL     1       9.055   3.663   4.603  0.00  0.00    +0.000 A 
ATOM      2  C   UNL     1       8.516   3.670   5.880  0.00  0.00    +0.000 A 
ATOM      3  C   UNL     1       9.112   4.478   6.851  0.00  0.00    +0.000 A 
ATOM      4  C   UNL     1      10.236   5.234   6.522  0.00  0.00    +0.000 A 
ATOM      5  C   UNL     1      10.734   5.114   5.231  0.00  0.00    +0.000 A 
ATOM      6  N   UNL     1      10.165   4.351   4.261  0.00  0.00    +0.000 NA
ENDROOT
BRANCH   4   7
ATOM      7  C   UNL     1      10.824   6.130   7.473  0.00  0.00    +0.000 C 
ATOM      8  C   UNL     1      11.289   6.893   8.279  0.00  0.00    +0.000 C 
BRANCH   8   9
ATOM      9  C   UNL     1      11.870   7.783   9.298  0.00  0.00    +0.000 C 
BRANCH   9  10
ATOM     10  N   UNL     1      11.558   9.181   9.001  0.00  0.00    +0.000 N 
ATOM     11  H   UNL     1      10.579   9.303   8.751  0.00  0.00    +0.000 HD
BRANCH  10  12
ATOM     12  C   UNL     1      12.007  10.160   9.901  0.00  0.00    +0.000 A 
ATOM     13  C   UNL     1      13.185  10.068  10.649  0.00  0.00    +0.000 A 
ATOM     14  N   UNL     1      13.661  11.027  11.486  0.00  0.00    +0.000 NA
ATOM     15  C   UNL     1      12.949  12.171  11.560  0.00  0.00    +0.000 A 
ATOM     16  C   UNL     1      11.794  12.400  10.833  0.00  0.00    +0.000 A 
ATOM     17  C   UNL     1      11.333  11.386   9.983  0.00  0.00    +0.000 A 
BRANCH  16  18
ATOM     18  C   UNL     1      11.097  13.643  10.959  0.00  0.00    +0.000 C 
ATOM     19  N   UNL     1      10.530  14.647  11.071  0.00  0.00    +0.000 NA
ENDBRANCH  16  18
ENDBRANCH  10  12
ENDBRANCH   9  10
ENDBRANCH   8   9
ENDBRANCH   4   7
BRANCH   1  20
ATOM     20  O   UNL     1       8.418   2.874   3.662  0.00  0.00    +0.000 OA
BRANCH  20  21
ATOM     21  C   UNL     1       8.636   3.346   2.334  0.00  0.00    +0.000 C 
BRANCH  21  23
ATOM     22  N   UNL     1       7.402   1.297   1.706  0.00  0.00    +0.000 N 
ATOM     23  C   UNL     1       8.011   2.450   1.260  0.00  0.00    +0.000 C 
ATOM     24  O   UNL     1       8.071   2.741   0.066  0.00  0.00    +0.000 OA
ATOM     25  H   UNL     1       7.237   1.185   2.703  0.00  0.00    +0.000 HD
BRANCH  22  26
ATOM     26  C   UNL     1       6.768   0.384   0.777  0.00  0.00    +0.000 C 
BRANCH  26  27
ATOM     27  C   UNL     1       6.085  -0.822   1.452  0.00  0.00    +0.000 C 
BRANCH  27  29
ATOM     28  C   UNL     1       3.909   0.226   1.768  0.00  0.00    +0.000 C 
ATOM     29  N   UNL     1       5.019  -0.477   2.420  0.00  0.00    +0.000 NA
ATOM     30  C   UNL     1       4.505  -1.701   3.048  0.00  0.00    +0.000 C 
ENDBRANCH  27  29
ENDBRANCH  26  27
ENDBRANCH  22  26
ENDBRANCH  21  23
ENDBRANCH  20  21
ENDBRANCH   1  20
TORSDOF 11
