REMARK  Name = 
REMARK  9 active torsions:
REMARK  status: ('A' for Active; 'I' for Inactive)
REMARK    1  A    between atoms: C_1  and  O_2
REMARK    2  A    between atoms: O_2  and  C_3
REMARK    3  A    between atoms: C_10  and  C_11
REMARK    4  A    between atoms: N_13  and  C_14
REMARK    5  A    between atoms: C_14  and  C_15
REMARK    6  A    between atoms: C_18  and  N_19
REMARK    7  A    between atoms: N_19  and  C_20
REMARK    8  A    between atoms: C_20  and  C_21
REMARK    9  A    between atoms: C_21  and  C_22
REMARK                            x       y       z     vdW  Elec       q    Type
REMARK                         _______ _______ _______ _____ _____    ______ ____
ROOT
ATOM      1  C   UNL     1       3.205  -2.961   1.381  0.00  0.00    +0.000 C 
ENDROOT
BRANCH   1   2
ATOM      2  C   UNL     1       2.216  -2.398   2.367  0.00  0.00    +0.000 A 
ATOM      3  C   UNL     1       1.299  -3.236   3.008  0.00  0.00    +0.000 A 
ATOM      4  C   UNL     1       0.396  -2.720   3.944  0.00  0.00    +0.000 A 
ATOM      5  C   UNL     1       0.403  -1.361   4.276  0.00  0.00    +0.000 A 
ATOM      6  C   UNL     1       1.251  -0.514   3.557  0.00  0.00    +0.000 A 
ATOM      7  C   UNL     1       2.160  -1.023   2.623  0.00  0.00    +0.000 A 
BRANCH   5   8
ATOM      8  N   UNL     1      -0.443  -0.784   5.235  0.00  0.00    +0.000 N 
ATOM      9  H   UNL     1      -1.249  -0.370   4.769  0.00  0.00    +0.000 HD
BRANCH   8  10
ATOM     10  C   UNL     1      -0.856  -1.616   6.377  0.00  0.00    +0.000 C 
BRANCH  10  11
ATOM     11  C   UNL     1       0.346  -2.005   7.245  0.00  0.00    +0.000 C 
BRANCH  11  12
ATOM     12  C   UNL     1      -0.066  -2.838   8.428  0.00  0.00    +0.000 A 
ATOM     13  C   UNL     1       0.261  -2.440   9.721  0.00  0.00    +0.000 A 
ATOM     14  C   UNL     1      -0.108  -3.255  10.787  0.00  0.00    +0.000 A 
ATOM     15  C   UNL     1      -0.779  -4.446  10.534  0.00  0.00    +0.000 A 
ATOM     16  C   UNL     1      -1.053  -4.774   9.219  0.00  0.00    +0.000 A 
ATOM     17  N   UNL     1      -0.715  -4.000   8.165  0.00  0.00    +0.000 NA
ENDBRANCH  11  12
ENDBRANCH  10  11
ENDBRANCH   8  10
ENDBRANCH   5   8
ENDBRANCH   1   2
BRANCH   1  20
ATOM     18  C   UNL     1       3.318  -3.486  -1.019  0.00  0.00    +0.000 C 
ATOM     19  O   UNL     1       4.449  -3.954  -0.903  0.00  0.00    +0.000 OA
ATOM     20  N   UNL     1       2.643  -2.987   0.057  0.00  0.00    +0.000 N 
ATOM     21  H   UNL     1       1.721  -2.591  -0.061  0.00  0.00    +0.000 HD
BRANCH  18  29
ATOM     22  C   UNL     1       0.194  -2.449  -2.024  0.00  0.00    +0.000 A 
ATOM     23  N   UNL     1      -0.915  -2.064  -2.686  0.00  0.00    +0.000 NA
ATOM     24  C   UNL     1      -0.930  -2.196  -4.015  0.00  0.00    +0.000 A 
ATOM     25  N   UNL     1       0.040  -2.686  -4.782  0.00  0.00    +0.000 NA
ATOM     26  C   UNL     1       1.130  -3.049  -4.085  0.00  0.00    +0.000 A 
ATOM     27  S   UNL     1       2.466  -3.704  -4.901  0.00  0.00    +0.000 S 
ATOM     28  C   UNL     1       3.337  -3.863  -3.450  0.00  0.00    +0.000 A 
ATOM     29  C   UNL     1       2.646  -3.421  -2.328  0.00  0.00    +0.000 A 
ATOM     30  C   UNL     1       1.314  -2.955  -2.709  0.00  0.00    +0.000 A 
BRANCH  22  32
ATOM     31  C   UNL     1      -1.080  -2.291  -0.065  0.00  0.00    +0.000 C 
ATOM     32  O   UNL     1       0.218  -2.294  -0.655  0.00  0.00    +0.000 OA
ENDBRANCH  22  32
ENDBRANCH  18  29
ENDBRANCH   1  20
TORSDOF 8
