REMARK  Name = 
REMARK  6 active torsions:
REMARK  status: ('A' for Active; 'I' for Inactive)
REMARK    1  A    between atoms: C_2  and  C_4
REMARK    2  A    between atoms: C_2  and  C_14
REMARK    3  A    between atoms: C_4  and  O_5
REMARK    4  A    between atoms: O_5  and  C_6
REMARK    5  A    between atoms: C_18  and  O_19
REMARK    6  A    between atoms: O_19  and  C_20
REMARK                            x       y       z     vdW  Elec       q    Type
REMARK                         _______ _______ _______ _____ _____    ______ ____
ROOT
ATOM      1  F   UNL     1       1.229   0.411   0.640  0.00  0.00    +0.000 F 
ATOM      2  C   UNL     1       2.312  -0.138   0.005  0.00  0.00    +0.000 C 
ATOM      3  F   UNL     1       3.303  -0.175   0.945  0.00  0.00    +0.000 F 
ENDROOT
BRANCH   2   4
ATOM      4  C   UNL     1       2.727   0.681  -1.209  0.00  0.00    +0.000 A 
ATOM      5  C   UNL     1       2.554   2.064  -1.170  0.00  0.00    +0.000 A 
ATOM      6  C   UNL     1       2.944   2.824  -2.269  0.00  0.00    +0.000 A 
ATOM      7  C   UNL     1       3.497   2.184  -3.374  0.00  0.00    +0.000 A 
ATOM      8  C   UNL     1       3.650   0.809  -3.329  0.00  0.00    +0.000 A 
ATOM      9  N   UNL     1       3.286   0.046  -2.280  0.00  0.00    +0.000 NA
BRANCH   8  10
ATOM     10  O   UNL     1       4.164   0.184  -4.449  0.00  0.00    +0.000 OA
BRANCH  10  11
ATOM     11  C   UNL     1       4.884  -1.049  -4.207  0.00  0.00    +0.000 C 
ATOM     12  C   UNL     1       5.357  -1.801  -5.460  0.00  0.00    +0.000 C 
ATOM     13  O   UNL     1       4.756  -3.037  -5.010  0.00  0.00    +0.000 OA
ATOM     14  C   UNL     1       4.103  -2.340  -3.922  0.00  0.00    +0.000 C 
ENDBRANCH  10  11
ENDBRANCH   8  10
ENDBRANCH   2   4
BRANCH   2  15
ATOM     15  C   UNL     1       1.948  -1.573  -0.392  0.00  0.00    +0.000 C 
BRANCH  15  16
ATOM     16  O   UNL     1       1.571  -2.317   0.775  0.00  0.00    +0.000 OA
BRANCH  16  17
ATOM     17  C   UNL     1       1.314  -3.643   0.594  0.00  0.00    +0.000 A 
ATOM     18  C   UNL     1       1.254  -4.322  -0.620  0.00  0.00    +0.000 A 
ATOM     19  N   UNL     1       1.002  -5.645  -0.733  0.00  0.00    +0.000 NA
ATOM     20  C   UNL     1       0.800  -6.326   0.420  0.00  0.00    +0.000 A 
ATOM     21 CL   UNL     1       0.512  -8.001   0.161  0.00  0.00    +0.000 Cl
ATOM     22  C   UNL     1       0.825  -5.740   1.681  0.00  0.00    +0.000 A 
ATOM     23 CL   UNL     1       0.553  -6.617   3.138  0.00  0.00    +0.000 Cl
ATOM     24  C   UNL     1       1.087  -4.374   1.760  0.00  0.00    +0.000 A 
ENDBRANCH  16  17
ENDBRANCH  15  16
ENDBRANCH   2  15
TORSDOF 6
