REMARK  Name = 
REMARK  5 active torsions:
REMARK  status: ('A' for Active; 'I' for Inactive)
REMARK    1  A    between atoms: C_2  and  C_4
REMARK    2  A    between atoms: C_7  and  C_8
REMARK    3  A    between atoms: C_8  and  C_9
REMARK    4  A    between atoms: C_9  and  C_10
REMARK    5  A    between atoms: C_18  and  O_19
REMARK                            x       y       z     vdW  Elec       q    Type
REMARK                         _______ _______ _______ _____ _____    ______ ____
ROOT
ATOM      1  C   UNL     1       5.079   4.706  -0.860  0.00  0.00    +0.000 C 
ENDROOT
BRANCH   1   5
ATOM      2  C   UNL     1       2.234   7.801  -1.143  0.00  0.00    +0.000 A 
ATOM      3  N   UNL     1       2.947   7.535  -2.262  0.00  0.00    +0.000 NA
ATOM      4  C   UNL     1       3.871   6.560  -2.141  0.00  0.00    +0.000 A 
ATOM      5  C   UNL     1       4.131   5.869  -0.973  0.00  0.00    +0.000 A 
ATOM      6  C   UNL     1       3.336   6.240   0.099  0.00  0.00    +0.000 A 
ATOM      7  N   UNL     1       2.387   7.194   0.049  0.00  0.00    +0.000 NA
BRANCH   2   9
ATOM      8  N   UNL     1       1.029   9.424  -2.517  0.00  0.00    +0.000 N 
ATOM      9  C   UNL     1       1.131   8.828  -1.279  0.00  0.00    +0.000 C 
ATOM     10  O   UNL     1       0.349   9.123  -0.384  0.00  0.00    +0.000 OA
ATOM     11  H   UNL     1       0.276  10.074  -2.686  0.00  0.00    +0.000 HD
ATOM     12  H   UNL     1       1.650   9.144  -3.267  0.00  0.00    +0.000 HD
ENDBRANCH   2   9
ENDBRANCH   1   5
BRANCH   1  13
ATOM     13  C   UNL     1       6.359   4.822  -1.687  0.00  0.00    +0.000 C 
ATOM     14  C   UNL     1       6.323   4.330  -3.129  0.00  0.00    +0.000 C 
ATOM     15  C   UNL     1       7.002   3.491  -2.096  0.00  0.00    +0.000 C 
BRANCH  13  16
ATOM     16  C   UNL     1       7.295   5.976  -1.319  0.00  0.00    +0.000 A 
ATOM     17  C   UNL     1       8.166   5.884  -0.217  0.00  0.00    +0.000 A 
ATOM     18  C   UNL     1       9.068   6.907   0.090  0.00  0.00    +0.000 A 
ATOM     19  C   UNL     1       9.101   8.047  -0.700  0.00  0.00    +0.000 A 
ATOM     20  F   UNL     1       9.981   9.019  -0.427  0.00  0.00    +0.000 F 
ATOM     21  C   UNL     1       8.241   8.187  -1.778  0.00  0.00    +0.000 A 
ATOM     22  C   UNL     1       7.346   7.159  -2.082  0.00  0.00    +0.000 A 
ENDBRANCH  13  16
BRANCH  15  23
ATOM     23  O   UNL     1       8.435   3.424  -2.180  0.00  0.00    +0.000 OA
ATOM     24  H   UNL     1       8.802   4.015  -2.860  0.00  0.00    +0.000 HD
ENDBRANCH  15  23
ENDBRANCH   1  13
TORSDOF 5
