REMARK  Name = 
REMARK  5 active torsions:
REMARK  status: ('A' for Active; 'I' for Inactive)
REMARK    1  A    between atoms: N_1  and  C_2
REMARK    2  A    between atoms: C_2  and  C_3
REMARK    3  A    between atoms: C_6  and  C_7
REMARK    4  A    between atoms: C_7  and  N_8
REMARK    5  A    between atoms: C_13  and  C_14
REMARK                            x       y       z     vdW  Elec       q    Type
REMARK                         _______ _______ _______ _____ _____    ______ ____
ROOT
ATOM      1  N   UNL     1       4.266  -5.561   0.383  0.00  0.00    +0.000 N 
ATOM      2  N   UNL     1       4.431  -6.657  -0.383  0.00  0.00    +0.000 NA
ATOM      3  N   UNL     1       3.789  -7.657   0.205  0.00  0.00    +0.000 NA
ATOM      4  C   UNL     1       3.262  -7.189   1.378  0.00  0.00    +0.000 A 
ATOM      5  C   UNL     1       2.518  -7.854   2.364  0.00  0.00    +0.000 A 
ATOM      6  C   UNL     1       2.142  -7.142   3.515  0.00  0.00    +0.000 A 
ATOM      7  C   UNL     1       2.479  -5.783   3.643  0.00  0.00    +0.000 A 
ATOM      8  C   UNL     1       3.194  -5.099   2.649  0.00  0.00    +0.000 A 
ATOM      9  C   UNL     1       3.573  -5.846   1.532  0.00  0.00    +0.000 A 
ENDROOT
BRANCH   6  10
ATOM     10  C   UNL     1       1.400  -7.783   4.641  0.00  0.00    +0.000 C 
ATOM     11  N   UNL     1       1.101  -9.113   4.555  0.00  0.00    +0.000 N 
ATOM     12  O   UNL     1       1.074  -7.143   5.636  0.00  0.00    +0.000 OA
ATOM     13  H   UNL     1       1.359  -9.727   3.798  0.00  0.00    +0.000 HD
ATOM     14  H   UNL     1       0.625  -9.520   5.347  0.00  0.00    +0.000 HD
ENDBRANCH   6  10
BRANCH   1  15
ATOM     15  C   UNL     1       4.807  -4.287  -0.044  0.00  0.00    +0.000 C 
BRANCH  15  19
ATOM     16  C   UNL     1       2.982  -1.069  -1.081  0.00  0.00    +0.000 C 
ATOM     17  C   UNL     1       2.266  -2.371  -0.677  0.00  0.00    +0.000 C 
ATOM     18  C   UNL     1       2.747  -3.607  -1.439  0.00  0.00    +0.000 C 
ATOM     19  C   UNL     1       4.274  -3.796  -1.408  0.00  0.00    +0.000 C 
ATOM     20  C   UNL     1       4.977  -2.495  -1.829  0.00  0.00    +0.000 C 
ATOM     21  C   UNL     1       4.507  -1.275  -1.033  0.00  0.00    +0.000 C 
BRANCH  16  22
ATOM     22  C   UNL     1       2.548  -0.505  -2.452  0.00  0.00    +0.000 C 
BRANCH  22  23
ATOM     23  N   UNL     1       1.135  -0.136  -2.491  0.00  0.00    +0.000 NA
ATOM     24  H   UNL     1       0.897   0.180  -3.431  0.00  0.00    +0.000 HD
ATOM     25  H   UNL     1       0.971   0.664  -1.881  0.00  0.00    +0.000 HD
ENDBRANCH  22  23
ENDBRANCH  16  22
ENDBRANCH  15  19
ENDBRANCH   1  15
TORSDOF 5
