REMARK  Name = 
REMARK  5 active torsions:
REMARK  status: ('A' for Active; 'I' for Inactive)
REMARK    1  A    between atoms: C_1  and  C_2
REMARK    2  A    between atoms: C_8  and  C_9
REMARK    3  A    between atoms: C_9  and  N_10
REMARK    4  A    between atoms: N_10  and  C_11
REMARK    5  A    between atoms: C_14  and  C_15
REMARK                            x       y       z     vdW  Elec       q    Type
REMARK                         _______ _______ _______ _____ _____    ______ ____
ROOT
ATOM      1  C   UNL     1       4.117  -1.132  -4.504  0.00  0.00    +0.000 C 
ATOM      2  C   UNL     1       3.921  -2.644  -4.520  0.00  0.00    +0.000 C 
ATOM      3  C   UNL     1       5.265  -2.071  -4.821  0.00  0.00    +0.000 C 
ENDROOT
BRANCH   1  11
ATOM      4  C   UNL     1      -1.434  -2.248   1.493  0.00  0.00    +0.000 C 
ATOM      5  C   UNL     1      -0.616  -1.032   1.065  0.00  0.00    +0.000 C 
ATOM      6  C   UNL     1       0.808  -1.096   1.657  0.00  0.00    +0.000 C 
ATOM      7  C   UNL     1       1.721   0.005   1.099  0.00  0.00    +0.000 C 
ATOM      8  N   UNL     1       1.655  -0.089  -0.353  0.00  0.00    +0.000 N 
ATOM      9  C   UNL     1       2.797   0.076  -1.107  0.00  0.00    +0.000 A 
ATOM     10  C   UNL     1       2.879  -0.523  -2.367  0.00  0.00    +0.000 A 
ATOM     11  C   UNL     1       4.043  -0.449  -3.145  0.00  0.00    +0.000 A 
ATOM     12  C   UNL     1       5.102   0.279  -2.606  0.00  0.00    +0.000 A 
ATOM     13  C   UNL     1       4.962   0.845  -1.351  0.00  0.00    +0.000 A 
ATOM     14  N   UNL     1       3.848   0.744  -0.596  0.00  0.00    +0.000 NA
ATOM     15  C   UNL     1       0.347   0.182  -0.932  0.00  0.00    +0.000 C 
ATOM     16  C   UNL     1      -0.587  -0.933  -0.472  0.00  0.00    +0.000 C 
ENDBRANCH   1  11
BRANCH   1  17
ATOM     17  N   UNL     1       3.473  -0.365  -5.591  0.00  0.00    +0.000 N 
ATOM     18  H   UNL     1       2.494  -0.133  -5.431  0.00  0.00    +0.000 HD
BRANCH  17  19
ATOM     19  C   UNL     1       4.141   0.640  -6.321  0.00  0.00    +0.000 A 
ATOM     20  C   UNL     1       5.514   0.875  -6.235  0.00  0.00    +0.000 A 
ATOM     21  C   UNL     1       6.129   1.818  -7.056  0.00  0.00    +0.000 A 
ATOM     22  C   UNL     1       5.343   2.492  -7.976  0.00  0.00    +0.000 A 
ATOM     23  N   UNL     1       4.004   2.293  -8.124  0.00  0.00    +0.000 NA
ATOM     24  C   UNL     1       3.454   1.366  -7.301  0.00  0.00    +0.000 A 
BRANCH  22  25
ATOM     25  C   UNL     1       5.977   3.494  -8.890  0.00  0.00    +0.000 C 
ATOM     26  N   UNL     1       5.125   4.082  -9.786  0.00  0.00    +0.000 N 
ATOM     27  O   UNL     1       7.169   3.772  -8.849  0.00  0.00    +0.000 OA
ATOM     28  H   UNL     1       4.148   3.810  -9.791  0.00  0.00    +0.000 HD
ATOM     29  H   UNL     1       5.479   4.760 -10.443  0.00  0.00    +0.000 HD
ENDBRANCH  22  25
ENDBRANCH  17  19
ENDBRANCH   1  17
TORSDOF 4
