REMARK  Name = 
REMARK  4 active torsions:
REMARK  status: ('A' for Active; 'I' for Inactive)
REMARK    1  A    between atoms: C_2  and  C_4
REMARK    2  A    between atoms: C_7  and  C_8
REMARK    3  A    between atoms: C_8  and  C_9
REMARK    4  A    between atoms: C_9  and  C_10
REMARK                            x       y       z     vdW  Elec       q    Type
REMARK                         _______ _______ _______ _____ _____    ______ ____
ROOT
ATOM      1  C   UNL     1       9.400   1.557   3.143  0.00  0.00    +0.000 A 
ATOM      2  C   UNL     1       9.030   0.752   4.210  0.00  0.00    +0.000 A 
ATOM      3  C   UNL     1       7.706   0.802   4.647  0.00  0.00    +0.000 A 
ATOM      4  C   UNL     1       6.796   1.668   4.035  0.00  0.00    +0.000 A 
ATOM      5  C   UNL     1       7.274   2.429   2.965  0.00  0.00    +0.000 A 
ATOM      6  N   UNL     1       8.547   2.401   2.503  0.00  0.00    +0.000 NA
ENDROOT
BRANCH   1   8
ATOM      7  N   UNL     1      11.085   2.342   1.582  0.00  0.00    +0.000 N 
ATOM      8  C   UNL     1      10.806   1.499   2.625  0.00  0.00    +0.000 C 
ATOM      9  O   UNL     1      11.654   0.749   3.094  0.00  0.00    +0.000 OA
ATOM     10  H   UNL     1      12.008   2.347   1.173  0.00  0.00    +0.000 HD
ATOM     11  H   UNL     1      10.354   2.940   1.217  0.00  0.00    +0.000 HD
ENDBRANCH   1   8
BRANCH   4  12
ATOM     12  C   UNL     1       5.326   1.724   4.387  0.00  0.00    +0.000 C 
BRANCH  12  13
ATOM     13  C   UNL     1       4.992   1.546   5.865  0.00  0.00    +0.000 C 
ATOM     14  C   UNL     1       4.730   0.134   6.371  0.00  0.00    +0.000 C 
ATOM     15  C   UNL     1       3.575   1.064   6.192  0.00  0.00    +0.000 C 
BRANCH  13  16
ATOM     16  C   UNL     1       5.535   2.599   6.833  0.00  0.00    +0.000 A 
ATOM     17  C   UNL     1       4.910   3.853   6.966  0.00  0.00    +0.000 A 
ATOM     18  C   UNL     1       5.322   4.776   7.932  0.00  0.00    +0.000 A 
ATOM     19  C   UNL     1       6.383   4.469   8.778  0.00  0.00    +0.000 A 
ATOM     20  C   UNL     1       7.043   3.252   8.644  0.00  0.00    +0.000 A 
ATOM     21  C   UNL     1       6.624   2.333   7.680  0.00  0.00    +0.000 A 
ENDBRANCH  13  16
ENDBRANCH  12  13
ENDBRANCH   4  12
TORSDOF 4
