REMARK  Name = 
REMARK  5 active torsions:
REMARK  status: ('A' for Active; 'I' for Inactive)
REMARK    1  A    between atoms: C_7  and  C_8
REMARK    2  A    between atoms: N_10  and  C_11
REMARK    3  A    between atoms: C_11  and  C_12
REMARK    4  A    between atoms: C_15  and  C_16
REMARK    5  A    between atoms: C_16  and  N_17
REMARK                            x       y       z     vdW  Elec       q    Type
REMARK                         _______ _______ _______ _____ _____    ______ ____
ROOT
ATOM      1  C   UNL     1      -2.980  -3.084   2.463  0.00  0.00    +0.000 C 
ATOM      2  O   UNL     1      -1.960  -2.533   2.054  0.00  0.00    +0.000 OA
ATOM      3  N   UNL     1      -3.611  -4.064   1.744  0.00  0.00    +0.000 N 
ATOM      4  H   UNL     1      -4.404  -4.565   2.132  0.00  0.00    +0.000 HD
ENDROOT
BRANCH   1  11
ATOM      5  N   UNL     1      -7.928  -3.447   7.000  0.00  0.00    +0.000 N 
ATOM      6  C   UNL     1      -6.859  -3.296   6.177  0.00  0.00    +0.000 A 
ATOM      7  N   UNL     1      -5.927  -2.435   6.468  0.00  0.00    +0.000 NA
ATOM      8  C   UNL     1      -4.928  -2.385   5.555  0.00  0.00    +0.000 A 
ATOM      9  N   UNL     1      -3.857  -1.553   5.664  0.00  0.00    +0.000 N 
ATOM     10  C   UNL     1      -3.045  -1.727   4.573  0.00  0.00    +0.000 A 
ATOM     11  C   UNL     1      -3.595  -2.697   3.737  0.00  0.00    +0.000 A 
ATOM     12  C   UNL     1      -4.791  -3.115   4.395  0.00  0.00    +0.000 A 
ATOM     13  C   UNL     1      -5.831  -4.072   4.107  0.00  0.00    +0.000 A 
ATOM     14  O   UNL     1      -5.832  -4.811   3.127  0.00  0.00    +0.000 OA
ATOM     15  N   UNL     1      -6.841  -4.086   5.049  0.00  0.00    +0.000 N 
ATOM     16  H   UNL     1      -7.998  -2.691   7.676  0.00  0.00    +0.000 HD
ATOM     17  H   UNL     1      -8.815  -3.670   6.569  0.00  0.00    +0.000 HD
ATOM     18  H   UNL     1      -3.705  -0.908   6.429  0.00  0.00    +0.000 HD
ATOM     19  H   UNL     1      -7.564  -4.770   4.903  0.00  0.00    +0.000 HD
ENDBRANCH   1  11
BRANCH   3  20
ATOM     20  C   UNL     1      -3.159  -4.465   0.428  0.00  0.00    +0.000 C 
BRANCH  20  21
ATOM     21  C   UNL     1      -2.180  -5.618   0.445  0.00  0.00    +0.000 A 
ATOM     22  C   UNL     1      -0.812  -5.370   0.514  0.00  0.00    +0.000 A 
ATOM     23  C   UNL     1       0.075  -6.443   0.455  0.00  0.00    +0.000 A 
ATOM     24  C   UNL     1      -0.413  -7.748   0.342  0.00  0.00    +0.000 A 
ATOM     25  C   UNL     1      -1.794  -7.903   0.312  0.00  0.00    +0.000 A 
ATOM     26  N   UNL     1      -2.682  -6.878   0.359  0.00  0.00    +0.000 NA
BRANCH  24  27
ATOM     27  C   UNL     1       0.517  -8.933   0.311  0.00  0.00    +0.000 C 
BRANCH  27  28
ATOM     28  N   UNL     1       0.410  -9.792  -0.893  0.00  0.00    +0.000 NA
ATOM     29  C   UNL     1       0.812  -9.049  -2.102  0.00  0.00    +0.000 C 
ATOM     30  C   UNL     1       0.909  -9.929  -3.351  0.00  0.00    +0.000 C 
ATOM     31  C   UNL     1       1.840 -11.109  -3.118  0.00  0.00    +0.000 C 
ATOM     32  C   UNL     1       1.353 -11.897  -1.913  0.00  0.00    +0.000 C 
ATOM     33  C   UNL     1       1.235 -10.998  -0.681  0.00  0.00    +0.000 C 
ENDBRANCH  27  28
ENDBRANCH  24  27
ENDBRANCH  20  21
ENDBRANCH   3  20
TORSDOF 5
