REMARK  Name = 
REMARK  6 active torsions:
REMARK  status: ('A' for Active; 'I' for Inactive)
REMARK    1  A    between atoms: C_1  and  O_2
REMARK    2  A    between atoms: O_2  and  C_3
REMARK    3  A    between atoms: C_6  and  O_7
REMARK    4  A    between atoms: O_7  and  C_8
REMARK    5  A    between atoms: C_8  and  C_9
REMARK    6  A    between atoms: C_13  and  C_14
REMARK                            x       y       z     vdW  Elec       q    Type
REMARK                         _______ _______ _______ _____ _____    ______ ____
ROOT
ATOM      1  O   UNL     1       5.314  -0.412  -4.591  0.00  0.00    +0.000 OA
ENDROOT
BRANCH   1   5
ATOM      2  C   UNL     1       3.025  -0.124  -1.122  0.00  0.00    +0.000 A 
ATOM      3  C   UNL     1       2.655   0.541  -2.293  0.00  0.00    +0.000 A 
ATOM      4  C   UNL     1       3.427   0.405  -3.453  0.00  0.00    +0.000 A 
ATOM      5  C   UNL     1       4.574  -0.390  -3.441  0.00  0.00    +0.000 A 
ATOM      6  C   UNL     1       4.909  -1.094  -2.285  0.00  0.00    +0.000 A 
ATOM      7  C   UNL     1       4.147  -0.951  -1.130  0.00  0.00    +0.000 A 
BRANCH   2   9
ATOM      8  C   UNL     1       1.264   0.806   0.163  0.00  0.00    +0.000 C 
ATOM      9  O   UNL     1       2.391  -0.055   0.085  0.00  0.00    +0.000 OA
ENDBRANCH   2   9
ENDBRANCH   1   5
BRANCH   1  10
ATOM     10  C   UNL     1       6.689  -0.761  -4.385  0.00  0.00    +0.000 C 
BRANCH  10  11
ATOM     11  C   UNL     1       7.524  -0.252  -5.530  0.00  0.00    +0.000 A 
ATOM     12  C   UNL     1       7.534   1.110  -5.823  0.00  0.00    +0.000 A 
ATOM     13  C   UNL     1       8.328   1.568  -6.867  0.00  0.00    +0.000 A 
ATOM     14  C   UNL     1       9.095   0.657  -7.584  0.00  0.00    +0.000 A 
ATOM     15  C   UNL     1       9.041  -0.683  -7.222  0.00  0.00    +0.000 A 
ATOM     16  N   UNL     1       8.279  -1.153  -6.205  0.00  0.00    +0.000 NA
BRANCH  15  17
ATOM     17  C   UNL     1       9.812  -1.663  -7.932  0.00  0.00    +0.000 C 
ATOM     18  N   UNL     1      10.451  -2.423  -8.532  0.00  0.00    +0.000 NA
ENDBRANCH  15  17
ENDBRANCH  10  11
ENDBRANCH   1  10
TORSDOF 5
