REMARK  Name = 
REMARK  9 active torsions:
REMARK  status: ('A' for Active; 'I' for Inactive)
REMARK    1  A    between atoms: C_1  and  C_2
REMARK    2  A    between atoms: C_2  and  C_3
REMARK    3  A    between atoms: C_6  and  O_7
REMARK    4  A    between atoms: O_7  and  C_8
REMARK    5  A    between atoms: C_12  and  C_13
REMARK    6  A    between atoms: C_14  and  C_15
REMARK    7  A    between atoms: C_15  and  O_16
REMARK    8  A    between atoms: O_16  and  C_17
REMARK    9  A    between atoms: C_21  and  C_22
REMARK                            x       y       z     vdW  Elec       q    Type
REMARK                         _______ _______ _______ _____ _____    ______ ____
ROOT
ATOM      1  C   UNL     1       1.317   2.531   1.755  0.00  0.00    +0.000 A 
ATOM      2  C   UNL     1       0.192   2.322   0.963  0.00  0.00    +0.000 A 
ATOM      3  N   UNL     1      -0.784   3.241   0.765  0.00  0.00    +0.000 NA
ATOM      4  C   UNL     1      -0.641   4.414   1.423  0.00  0.00    +0.000 A 
ATOM      5  C   UNL     1       0.422   4.691   2.271  0.00  0.00    +0.000 A 
ATOM      6  C   UNL     1       1.420   3.736   2.434  0.00  0.00    +0.000 A 
ENDROOT
BRANCH   5   7
ATOM      7  C   UNL     1       0.495   5.910   2.998  0.00  0.00    +0.000 C 
ATOM      8  C   UNL     1       0.540   7.027   3.670  0.00  0.00    +0.000 C 
BRANCH   8   9
ATOM      9  C   UNL     1       0.592   8.328   4.452  0.00  0.00    +0.000 C 
BRANCH   9  10
ATOM     10  O   UNL     1       1.841   8.438   5.126  0.00  0.00    +0.000 OA
BRANCH  10  11
ATOM     11  C   UNL     1       2.016   9.567   5.882  0.00  0.00    +0.000 A 
ATOM     12  C   UNL     1       1.091  10.606   6.032  0.00  0.00    +0.000 A 
ATOM     13  C   UNL     1       1.393  11.710   6.833  0.00  0.00    +0.000 A 
ATOM     14  C   UNL     1       2.621  11.781   7.492  0.00  0.00    +0.000 A 
ATOM     15  C   UNL     1       3.547  10.749   7.347  0.00  0.00    +0.000 A 
ATOM     16  C   UNL     1       3.243   9.643   6.544  0.00  0.00    +0.000 A 
BRANCH  15  17
ATOM     17  C   UNL     1       4.810  10.817   8.022  0.00  0.00    +0.000 C 
ATOM     18  N   UNL     1       5.832  10.879   8.567  0.00  0.00    +0.000 NA
ENDBRANCH  15  17
ENDBRANCH  10  11
ENDBRANCH   9  10
ENDBRANCH   8   9
ENDBRANCH   5   7
BRANCH   1  19
ATOM     19  O   UNL     1       2.221   1.512   1.871  0.00  0.00    +0.000 OA
BRANCH  19  25
ATOM     20  C   UNL     1       3.761   2.278  -0.572  0.00  0.00    +0.000 C 
ATOM     21  C   UNL     1       4.489   2.086   0.750  0.00  0.00    +0.000 C 
ATOM     22  C   UNL     1       5.632   3.089   0.914  0.00  0.00    +0.000 C 
ATOM     23  O   UNL     1       5.017   0.728   0.846  0.00  0.00    +0.000 OA
ATOM     24  C   UNL     1       4.540   0.629   2.211  0.00  0.00    +0.000 C 
ATOM     25  C   UNL     1       3.625   1.850   2.028  0.00  0.00    +0.000 C 
ENDBRANCH  19  25
ENDBRANCH   1  19
TORSDOF 7
