REMARK  Name = 
REMARK  9 active torsions:
REMARK  status: ('A' for Active; 'I' for Inactive)
REMARK    1  A    between atoms: C_1  and  C_2
REMARK    2  A    between atoms: C_2  and  O_3
REMARK    3  A    between atoms: O_3  and  C_4
REMARK    4  A    between atoms: C_4  and  C_5
REMARK    5  A    between atoms: C_5  and  N_6
REMARK    6  A    between atoms: C_5  and  C_19
REMARK    7  A    between atoms: C_7  and  C_9
REMARK    8  A    between atoms: C_22  and  O_23
REMARK    9  A    between atoms: O_23  and  C_24
REMARK                            x       y       z     vdW  Elec       q    Type
REMARK                         _______ _______ _______ _____ _____    ______ ____
ROOT
ATOM      1  C   UNL     1       4.949   1.786  -2.004  0.00  0.00    +0.000 C 
ENDROOT
BRANCH   1   2
ATOM      2  C   UNL     1       6.466   1.778  -2.122  0.00  0.00    +0.000 A 
ATOM      3  C   UNL     1       7.067   0.828  -2.962  0.00  0.00    +0.000 A 
ATOM      4  C   UNL     1       8.456   0.742  -3.065  0.00  0.00    +0.000 A 
ATOM      5  C   UNL     1       9.272   1.651  -2.389  0.00  0.00    +0.000 A 
ATOM      6  C   UNL     1       8.692   2.576  -1.525  0.00  0.00    +0.000 A 
ATOM      7  C   UNL     1       7.301   2.632  -1.386  0.00  0.00    +0.000 A 
BRANCH   5   8
ATOM      8  O   UNL     1      10.647   1.671  -2.470  0.00  0.00    +0.000 OA
BRANCH   8   9
ATOM      9  C   UNL     1      11.265   1.331  -3.654  0.00  0.00    +0.000 A 
ATOM     10  C   UNL     1      10.727   1.566  -4.917  0.00  0.00    +0.000 A 
ATOM     11  C   UNL     1      11.432   1.120  -6.019  0.00  0.00    +0.000 A 
ATOM     12  N   UNL     1      12.642   0.526  -5.945  0.00  0.00    +0.000 NA
ATOM     13  C   UNL     1      13.172   0.380  -4.712  0.00  0.00    +0.000 A 
ATOM     14  C   UNL     1      12.529   0.761  -3.547  0.00  0.00    +0.000 A 
ENDBRANCH   8   9
ENDBRANCH   5   8
ENDBRANCH   1   2
BRANCH   1  15
ATOM     15  N   UNL     1       4.425   3.116  -1.740  0.00  0.00    +0.000 N 
ATOM     16  C   UNL     1       4.026   3.985  -2.714  0.00  0.00    +0.000 C 
ATOM     17  O   UNL     1       4.052   3.710  -3.910  0.00  0.00    +0.000 OA
ATOM     18  H   UNL     1       4.419   3.409  -0.770  0.00  0.00    +0.000 HD
BRANCH  16  19
ATOM     19  C   UNL     1       3.527   5.282  -2.235  0.00  0.00    +0.000 A 
ATOM     20  C   UNL     1       2.657   6.027  -3.020  0.00  0.00    +0.000 A 
ATOM     21  S   UNL     1       2.227   7.525  -2.326  0.00  0.00    +0.000 S 
ATOM     22  C   UNL     1       3.222   7.248  -0.973  0.00  0.00    +0.000 A 
ATOM     23  N   UNL     1       3.365   8.191  -0.004  0.00  0.00    +0.000 NA
ATOM     24  C   UNL     1       4.191   7.869   0.937  0.00  0.00    +0.000 A 
ATOM     25  N   UNL     1       4.862   6.681   1.010  0.00  0.00    +0.000 N 
ATOM     26  C   UNL     1       4.645   5.652   0.125  0.00  0.00    +0.000 A 
ATOM     27  O   UNL     1       5.085   4.529   0.347  0.00  0.00    +0.000 OA
ATOM     28  C   UNL     1       3.818   6.000  -1.016  0.00  0.00    +0.000 A 
ATOM     29  H   UNL     1       5.445   6.461   1.806  0.00  0.00    +0.000 HD
ENDBRANCH  16  19
ENDBRANCH   1  15
BRANCH   1  30
ATOM     30  C   UNL     1       4.495   0.797  -0.905  0.00  0.00    +0.000 C 
BRANCH  30  31
ATOM     31  O   UNL     1       3.065   0.698  -0.910  0.00  0.00    +0.000 OA
BRANCH  31  33
ATOM     32  C   UNL     1       1.073  -0.264  -0.027  0.00  0.00    +0.000 C 
ATOM     33  C   UNL     1       2.585  -0.222   0.066  0.00  0.00    +0.000 C 
ENDBRANCH  31  33
ENDBRANCH  30  31
ENDBRANCH   1  30
TORSDOF 8
