REMARK  Name = 
REMARK  5 active torsions:
REMARK  status: ('A' for Active; 'I' for Inactive)
REMARK    1  A    between atoms: C_2  and  C_4
REMARK    2  A    between atoms: C_7  and  N_8
REMARK    3  A    between atoms: N_8  and  C_9
REMARK    4  A    between atoms: C_9  and  C_10
REMARK    5  A    between atoms: C_14  and  C_15
REMARK                            x       y       z     vdW  Elec       q    Type
REMARK                         _______ _______ _______ _____ _____    ______ ____
ROOT
ATOM      1  C   UNL     1       4.410  -4.566   4.262  0.00  0.00    +0.000 C 
ENDROOT
BRANCH   1   2
ATOM      2  C   UNL     1       5.125  -5.232   5.409  0.00  0.00    +0.000 A 
ATOM      3  C   UNL     1       5.095  -6.612   5.564  0.00  0.00    +0.000 A 
ATOM      4  N   UNL     1       5.708  -7.270   6.570  0.00  0.00    +0.000 NA
ATOM      5  C   UNL     1       6.380  -6.514   7.476  0.00  0.00    +0.000 A 
ATOM      6  C   UNL     1       6.502  -5.123   7.429  0.00  0.00    +0.000 A 
ATOM      7  C   UNL     1       5.852  -4.492   6.353  0.00  0.00    +0.000 A 
BRANCH   6   8
ATOM      8  C   UNL     1       7.251  -4.385   8.463  0.00  0.00    +0.000 A 
ATOM      9  C   UNL     1       7.899  -3.171   8.214  0.00  0.00    +0.000 A 
ATOM     10  C   UNL     1       8.565  -2.519   9.253  0.00  0.00    +0.000 A 
ATOM     11  C   UNL     1       8.569  -3.094  10.511  0.00  0.00    +0.000 A 
ATOM     12  F   UNL     1       9.195  -2.493  11.529  0.00  0.00    +0.000 F 
ATOM     13  C   UNL     1       7.921  -4.299  10.691  0.00  0.00    +0.000 A 
ATOM     14  N   UNL     1       7.271  -4.957   9.697  0.00  0.00    +0.000 NA
ENDBRANCH   6   8
ENDBRANCH   1   2
BRANCH   1  15
ATOM     15  N   UNL     1       5.315  -4.461   3.123  0.00  0.00    +0.000 N 
ATOM     16  H   UNL     1       5.721  -5.359   2.876  0.00  0.00    +0.000 HD
BRANCH  15  20
ATOM     17  C   UNL     1       3.825  -2.660  -0.267  0.00  0.00    +0.000 A 
ATOM     18  C   UNL     1       3.038  -2.795   0.864  0.00  0.00    +0.000 A 
ATOM     19  N   UNL     1       3.486  -3.395   2.003  0.00  0.00    +0.000 NA
ATOM     20  C   UNL     1       4.751  -3.867   1.981  0.00  0.00    +0.000 A 
ATOM     21  C   UNL     1       5.531  -3.715   0.825  0.00  0.00    +0.000 A 
ATOM     22  N   UNL     1       5.102  -3.125  -0.323  0.00  0.00    +0.000 NA
BRANCH  17  24
ATOM     23  N   UNL     1       4.122  -1.923  -2.555  0.00  0.00    +0.000 N 
ATOM     24  C   UNL     1       3.284  -1.975  -1.474  0.00  0.00    +0.000 C 
ATOM     25  O   UNL     1       2.161  -1.488  -1.501  0.00  0.00    +0.000 OA
ATOM     26  H   UNL     1       3.815  -1.468  -3.402  0.00  0.00    +0.000 HD
ATOM     27  H   UNL     1       5.046  -2.337  -2.504  0.00  0.00    +0.000 HD
ENDBRANCH  17  24
ENDBRANCH  15  20
ENDBRANCH   1  15
TORSDOF 5
