REMARK  Name = 
REMARK  6 active torsions:
REMARK  status: ('A' for Active; 'I' for Inactive)
REMARK    1  A    between atoms: N_1  and  C_2
REMARK    2  A    between atoms: C_2  and  C_3
REMARK    3  A    between atoms: C_3  and  O_4
REMARK    4  A    between atoms: C_3  and  C_5
REMARK    5  A    between atoms: C_9  and  C_10
REMARK    6  A    between atoms: C_10  and  C_11
REMARK                            x       y       z     vdW  Elec       q    Type
REMARK                         _______ _______ _______ _____ _____    ______ ____
ROOT
ATOM      1  C   UNL     1       4.538   1.325  -0.044  0.00  0.00    +0.000 A 
ATOM      2  C   UNL     1       5.330   2.480  -0.196  0.00  0.00    +0.000 A 
ATOM      3  C   UNL     1       6.706   2.414  -0.029  0.00  0.00    +0.000 A 
ATOM      4  C   UNL     1       7.308   1.191   0.274  0.00  0.00    +0.000 A 
ATOM      5  C   UNL     1       6.539   0.024   0.417  0.00  0.00    +0.000 A 
ATOM      6  C   UNL     1       5.154   0.105   0.258  0.00  0.00    +0.000 A 
ENDROOT
BRANCH   1   7
ATOM      7  C   UNL     1       3.041   1.399  -0.228  0.00  0.00    +0.000 C 
BRANCH   7   8
ATOM      8  O   UNL     1       2.786   1.986  -1.507  0.00  0.00    +0.000 OA
ATOM      9  H   UNL     1       2.150   2.707  -1.356  0.00  0.00    +0.000 HD
ENDBRANCH   7   8
BRANCH   7  10
ATOM     10  C   UNL     1       2.382   2.210   0.915  0.00  0.00    +0.000 C 
BRANCH  10  11
ATOM     11  N   UNL     1       0.918   2.244   0.802  0.00  0.00    +0.000 NA
ATOM     12  H   UNL     1       0.537   2.691   1.638  0.00  0.00    +0.000 HD
ATOM     13  H   UNL     1       0.559   1.288   0.820  0.00  0.00    +0.000 HD
ENDBRANCH  10  11
ENDBRANCH   7  10
ENDBRANCH   1   7
BRANCH   5  14
ATOM     14  C   UNL     1       7.198  -1.308   0.640  0.00  0.00    +0.000 C 
BRANCH  14  15
ATOM     15  C   UNL     1       7.250  -1.606   2.098  0.00  0.00    +0.000 A 
ATOM     16  C   UNL     1       7.663  -0.792   3.138  0.00  0.00    +0.000 A 
ATOM     17  O   UNL     1       7.868  -1.513   4.271  0.00  0.00    +0.000 OA
ATOM     18  C   UNL     1       7.561  -2.805   3.977  0.00  0.00    +0.000 A 
ATOM     19  C   UNL     1       7.759  -3.899   4.816  0.00  0.00    +0.000 A 
ATOM     20  C   UNL     1       7.379  -5.148   4.313  0.00  0.00    +0.000 A 
ATOM     21  C   UNL     1       6.775  -5.269   3.059  0.00  0.00    +0.000 A 
ATOM     22  C   UNL     1       6.604  -4.150   2.233  0.00  0.00    +0.000 A 
ATOM     23  C   UNL     1       7.056  -2.897   2.687  0.00  0.00    +0.000 A 
ENDBRANCH  14  15
ENDBRANCH   5  14
TORSDOF 6
