REMARK  Name = 
REMARK  7 active torsions:
REMARK  status: ('A' for Active; 'I' for Inactive)
REMARK    1  A    between atoms: C_2  and  O_3
REMARK    2  A    between atoms: C_2  and  C_4
REMARK    3  A    between atoms: C_7  and  O_8
REMARK    4  A    between atoms: O_8  and  C_9
REMARK    5  A    between atoms: C_9  and  C_10
REMARK    6  A    between atoms: C_10  and  C_13
REMARK    7  A    between atoms: C_18  and  N_19
REMARK                            x       y       z     vdW  Elec       q    Type
REMARK                         _______ _______ _______ _____ _____    ______ ____
ROOT
ATOM      1  C   UNL     1       5.875   3.580   5.936  0.00  0.00    +0.000 C 
ATOM      2  F   UNL     1       5.374   4.640   5.231  0.00  0.00    +0.000 F 
ATOM      3  F   UNL     1       5.387   2.468   5.309  0.00  0.00    +0.000 F 
ENDROOT
BRANCH   1   4
ATOM      4  C   UNL     1       5.454   3.632   7.396  0.00  0.00    +0.000 A 
ATOM      5  C   UNL     1       5.266   4.853   8.043  0.00  0.00    +0.000 A 
ATOM      6  C   UNL     1       4.866   4.874   9.375  0.00  0.00    +0.000 A 
ATOM      7  C   UNL     1       4.618   3.682  10.076  0.00  0.00    +0.000 A 
ATOM      8 CL   UNL     1       3.977   3.919  11.673  0.00  0.00    +0.000 Cl
ATOM      9  C   UNL     1       4.790   2.415   9.465  0.00  0.00    +0.000 A 
ATOM     10  C   UNL     1       5.239   2.445   8.123  0.00  0.00    +0.000 A 
BRANCH   9  11
ATOM     11  N   UNL     1       4.507   1.188  10.056  0.00  0.00    +0.000 N 
ATOM     12  C   UNL     1       4.068   0.033   9.261  0.00  0.00    +0.000 C 
ATOM     13  C   UNL     1       2.801  -0.558   9.879  0.00  0.00    +0.000 C 
ATOM     14  C   UNL     1       2.980  -0.869  11.363  0.00  0.00    +0.000 C 
ATOM     15  C   UNL     1       3.527   0.342  12.121  0.00  0.00    +0.000 C 
ATOM     16  C   UNL     1       4.799   0.873  11.458  0.00  0.00    +0.000 C 
ENDBRANCH   9  11
ENDBRANCH   1   4
BRANCH   1  17
ATOM     17  C   UNL     1       7.402   3.588   5.811  0.00  0.00    +0.000 C 
BRANCH  17  18
ATOM     18  O   UNL     1       7.814   3.518   4.430  0.00  0.00    +0.000 OA
BRANCH  18  22
ATOM     19  C   UNL     1      11.909   3.534   4.005  0.00  0.00    +0.000 A 
ATOM     20  C   UNL     1      11.102   3.426   2.872  0.00  0.00    +0.000 A 
ATOM     21  C   UNL     1       9.714   3.430   3.024  0.00  0.00    +0.000 A 
ATOM     22  C   UNL     1       9.188   3.525   4.305  0.00  0.00    +0.000 A 
ATOM     23  N   UNL     1       9.950   3.617   5.417  0.00  0.00    +0.000 NA
ATOM     24  C   UNL     1      11.292   3.608   5.247  0.00  0.00    +0.000 A 
BRANCH  19  26
ATOM     25  O   UNL     1      14.068   3.049   4.847  0.00  0.00    +0.000 OA
ATOM     26  C   UNL     1      13.388   3.529   3.958  0.00  0.00    +0.000 C 
BRANCH  26  27
ATOM     27  O   UNL     1      13.895   4.136   2.872  0.00  0.00    +0.000 OA
ATOM     28  H   UNL     1      13.260   4.637   2.326  0.00  0.00    +0.000 HD
ENDBRANCH  26  27
ENDBRANCH  19  26
ENDBRANCH  18  22
ENDBRANCH  17  18
ENDBRANCH   1  17
TORSDOF 7
