REMARK  Name = 
REMARK  6 active torsions:
REMARK  status: ('A' for Active; 'I' for Inactive)
REMARK    1  A    between atoms: C_2  and  C_21
REMARK    2  A    between atoms: N_3  and  C_4
REMARK    3  A    between atoms: C_4  and  C_5
REMARK    4  A    between atoms: C_8  and  C_9
REMARK    5  A    between atoms: C_9  and  N_10
REMARK    6  A    between atoms: C_11  and  C_13
REMARK                            x       y       z     vdW  Elec       q    Type
REMARK                         _______ _______ _______ _____ _____    ______ ____
ROOT
ATOM      1  C   UNL     1      11.206  -0.556 -13.929  0.00  0.00    +0.000 A 
ATOM      2  C   UNL     1      10.960  -0.551 -12.554  0.00  0.00    +0.000 A 
ATOM      3  C   UNL     1      10.149   0.437 -11.997  0.00  0.00    +0.000 A 
ATOM      4  C   UNL     1       9.576   1.393 -12.833  0.00  0.00    +0.000 A 
ATOM      5  N   UNL     1       9.792   1.403 -14.174  0.00  0.00    +0.000 NA
ATOM      6  C   UNL     1      10.585   0.430 -14.686  0.00  0.00    +0.000 A 
ENDROOT
BRANCH   1   7
ATOM      7  C   UNL     1      12.073  -1.600 -14.569  0.00  0.00    +0.000 C 
BRANCH   7  10
ATOM      8  O   UNL     1      13.077  -3.797 -15.944  0.00  0.00    +0.000 OA
ATOM      9  C   UNL     1      11.904  -3.823 -15.583  0.00  0.00    +0.000 C 
ATOM     10  N   UNL     1      11.305  -2.752 -14.968  0.00  0.00    +0.000 N 
ATOM     11  H   UNL     1      10.418  -2.893 -14.496  0.00  0.00    +0.000 HD
BRANCH   9  12
ATOM     12  C   UNL     1      11.051  -4.992 -15.824  0.00  0.00    +0.000 A 
ATOM     13  C   UNL     1      11.346  -5.866 -16.862  0.00  0.00    +0.000 A 
ATOM     14  S   UNL     1      10.234  -7.154 -17.003  0.00  0.00    +0.000 S 
ATOM     15  C   UNL     1       9.350  -6.613 -15.651  0.00  0.00    +0.000 A 
ATOM     16  N   UNL     1       8.262  -7.301 -15.203  0.00  0.00    +0.000 NA
ATOM     17  C   UNL     1       7.709  -6.789 -14.152  0.00  0.00    +0.000 A 
ATOM     18  N   UNL     1       8.143  -5.660 -13.509  0.00  0.00    +0.000 N 
ATOM     19  C   UNL     1       9.209  -4.915 -13.950  0.00  0.00    +0.000 A 
ATOM     20  O   UNL     1       9.528  -3.869 -13.390  0.00  0.00    +0.000 OA
ATOM     21  C   UNL     1       9.880  -5.453 -15.116  0.00  0.00    +0.000 A 
ATOM     22  H   UNL     1       7.654  -5.304 -12.702  0.00  0.00    +0.000 HD
ENDBRANCH   9  12
ENDBRANCH   7  10
ENDBRANCH   1   7
BRANCH   4  23
ATOM     23  C   UNL     1       8.676   2.468 -12.265  0.00  0.00    +0.000 C 
BRANCH  23  24
ATOM     24  N   UNL     1       9.402   3.657 -11.865  0.00  0.00    +0.000 N 
ATOM     25  C   UNL     1       9.862   3.832 -10.576  0.00  0.00    +0.000 C 
ATOM     26  O   UNL     1       9.628   3.020  -9.685  0.00  0.00    +0.000 OA
ATOM     27  H   UNL     1       9.666   4.306 -12.591  0.00  0.00    +0.000 HD
BRANCH  25  28
ATOM     28  C   UNL     1      10.645   5.153 -10.352  0.00  0.00    +0.000 C 
ATOM     29  C   UNL     1      11.138   5.315  -8.908  0.00  0.00    +0.000 C 
ATOM     30  C   UNL     1      12.283   4.360  -8.572  0.00  0.00    +0.000 C 
ATOM     31  C   UNL     1      13.386   4.441  -9.620  0.00  0.00    +0.000 C 
ATOM     32  C   UNL     1      12.838   4.321 -11.039  0.00  0.00    +0.000 C 
ATOM     33  N   UNL     1      11.774   5.291 -11.301  0.00  0.00    +0.000 NA
ATOM     34  H   UNL     1      11.454   5.185 -12.260  0.00  0.00    +0.000 HD
ENDBRANCH  25  28
ENDBRANCH  23  24
ENDBRANCH   4  23
TORSDOF 6
