REMARK  Name = 
REMARK  8 active torsions:
REMARK  status: ('A' for Active; 'I' for Inactive)
REMARK    1  A    between atoms: C_1  and  C_2
REMARK    2  A    between atoms: C_2  and  N_3
REMARK    3  A    between atoms: C_2  and  C_26
REMARK    4  A    between atoms: N_3  and  C_4
REMARK    5  A    between atoms: C_4  and  C_5
REMARK    6  A    between atoms: C_10  and  C_11
REMARK    7  A    between atoms: C_11  and  N_12
REMARK    8  A    between atoms: C_13  and  C_15
REMARK                            x       y       z     vdW  Elec       q    Type
REMARK                         _______ _______ _______ _____ _____    ______ ____
ROOT
ATOM      1  C   UNL     1      -1.036   0.816  -0.847  0.00  0.00    +0.000 A 
ATOM      2  C   UNL     1      -1.801  -0.337  -0.643  0.00  0.00    +0.000 A 
ATOM      3  C   UNL     1      -3.190  -0.260  -0.664  0.00  0.00    +0.000 A 
ATOM      4  F   UNL     1      -3.914  -1.373  -0.487  0.00  0.00    +0.000 F 
ATOM      5  C   UNL     1      -3.841   0.946  -0.898  0.00  0.00    +0.000 A 
ATOM      6  C   UNL     1      -3.095   2.108  -1.123  0.00  0.00    +0.000 A 
ATOM      7  C   UNL     1      -1.695   2.037  -1.070  0.00  0.00    +0.000 A 
ENDROOT
BRANCH   1   8
ATOM      8  C   UNL     1       0.469   0.745  -0.948  0.00  0.00    +0.000 C 
BRANCH   8   9
ATOM      9  N   UNL     1       1.145   1.578   0.046  0.00  0.00    +0.000 NA
ATOM     10  H   UNL     1       0.854   1.281   0.977  0.00  0.00    +0.000 HD
BRANCH   9  12
ATOM     11  C   UNL     1       3.174   1.833  -1.421  0.00  0.00    +0.000 C 
ATOM     12  C   UNL     1       2.611   1.476  -0.035  0.00  0.00    +0.000 C 
BRANCH  12  13
ATOM     13  C   UNL     1       3.279   2.362   1.017  0.00  0.00    +0.000 A 
ATOM     14  C   UNL     1       4.169   1.803   1.952  0.00  0.00    +0.000 A 
ATOM     15  C   UNL     1       4.877   2.619   2.840  0.00  0.00    +0.000 A 
ATOM     16  C   UNL     1       4.697   3.998   2.813  0.00  0.00    +0.000 A 
ATOM     17  C   UNL     1       3.791   4.565   1.924  0.00  0.00    +0.000 A 
ATOM     18  C   UNL     1       3.083   3.749   1.035  0.00  0.00    +0.000 A 
ENDBRANCH  12  13
ENDBRANCH   9  12
ENDBRANCH   8   9
ENDBRANCH   1   8
BRANCH   6  19
ATOM     19  C   UNL     1      -3.774   3.415  -1.424  0.00  0.00    +0.000 C 
BRANCH  19  20
ATOM     20  N   UNL     1      -4.085   4.141  -0.221  0.00  0.00    +0.000 N 
ATOM     21  C   UNL     1      -3.288   5.154   0.243  0.00  0.00    +0.000 C 
ATOM     22  O   UNL     1      -2.265   5.504  -0.338  0.00  0.00    +0.000 OA
ATOM     23  H   UNL     1      -4.813   3.759   0.374  0.00  0.00    +0.000 HD
BRANCH  21  24
ATOM     24  C   UNL     1      -3.762   5.862   1.439  0.00  0.00    +0.000 A 
ATOM     25  C   UNL     1      -3.331   7.161   1.674  0.00  0.00    +0.000 A 
ATOM     26  S   UNL     1      -3.971   7.848   3.096  0.00  0.00    +0.000 S 
ATOM     27  C   UNL     1      -4.815   6.419   3.469  0.00  0.00    +0.000 A 
ATOM     28  N   UNL     1      -5.547   6.320   4.612  0.00  0.00    +0.000 NA
ATOM     29  C   UNL     1      -6.101   5.168   4.790  0.00  0.00    +0.000 A 
ATOM     30  N   UNL     1      -6.010   4.113   3.920  0.00  0.00    +0.000 N 
ATOM     31  C   UNL     1      -5.348   4.194   2.716  0.00  0.00    +0.000 A 
ATOM     32  O   UNL     1      -5.403   3.284   1.896  0.00  0.00    +0.000 OA
ATOM     33  C   UNL     1      -4.648   5.446   2.500  0.00  0.00    +0.000 A 
ATOM     34  H   UNL     1      -6.501   3.251   4.101  0.00  0.00    +0.000 HD
ENDBRANCH  21  24
ENDBRANCH  19  20
ENDBRANCH   6  19
TORSDOF 7
