REMARK  Name = 
REMARK  5 active torsions:
REMARK  status: ('A' for Active; 'I' for Inactive)
REMARK    1  A    between atoms: N_1  and  C_2
REMARK    2  A    between atoms: C_2  and  C_3
REMARK    3  A    between atoms: C_3  and  C_4
REMARK    4  A    between atoms: C_7  and  C_8
REMARK    5  A    between atoms: C_8  and  N_9
REMARK                            x       y       z     vdW  Elec       q    Type
REMARK                         _______ _______ _______ _____ _____    ______ ____
ROOT
ATOM      1  C   UNL     1       4.523   0.753   1.199  0.00  0.00    +0.000 A 
ATOM      2  C   UNL     1       5.166   1.191   2.363  0.00  0.00    +0.000 A 
ATOM      3  C   UNL     1       6.560   1.158   2.462  0.00  0.00    +0.000 A 
ATOM      4  C   UNL     1       7.340   0.691   1.396  0.00  0.00    +0.000 A 
ATOM      5  C   UNL     1       6.695   0.270   0.225  0.00  0.00    +0.000 A 
ATOM      6  C   UNL     1       5.301   0.308   0.124  0.00  0.00    +0.000 A 
ENDROOT
BRANCH   1   7
ATOM      7  C   UNL     1       3.015   0.741   1.113  0.00  0.00    +0.000 C 
BRANCH   7   8
ATOM      8  C   UNL     1       2.436   2.061   0.594  0.00  0.00    +0.000 C 
BRANCH   8   9
ATOM      9  N   UNL     1       0.974   2.014   0.571  0.00  0.00    +0.000 NA
ATOM     10  H   UNL     1       0.611   2.912   0.252  0.00  0.00    +0.000 HD
ATOM     11  H   UNL     1       0.619   1.885   1.518  0.00  0.00    +0.000 HD
ENDBRANCH   8   9
ENDBRANCH   7   8
ENDBRANCH   1   7
BRANCH   4  12
ATOM     12  C   UNL     1       8.846   0.646   1.495  0.00  0.00    +0.000 C 
BRANCH  12  13
ATOM     13  N   UNL     1       9.345  -0.624   2.005  0.00  0.00    +0.000 N 
ATOM     14  N   UNL     1       9.625  -1.625   1.132  0.00  0.00    +0.000 NA
ATOM     15  C   UNL     1      10.223  -2.546   1.896  0.00  0.00    +0.000 A 
ATOM     16  C   UNL     1      10.349  -2.141   3.237  0.00  0.00    +0.000 A 
ATOM     17  N   UNL     1      10.921  -2.752   4.303  0.00  0.00    +0.000 NA
ATOM     18  C   UNL     1      10.872  -2.040   5.448  0.00  0.00    +0.000 A 
ATOM     19  C   UNL     1      10.288  -0.788   5.597  0.00  0.00    +0.000 A 
ATOM     20  C   UNL     1       9.700  -0.171   4.494  0.00  0.00    +0.000 A 
ATOM     21  C   UNL     1       9.755  -0.886   3.294  0.00  0.00    +0.000 A 
ENDBRANCH  12  13
ENDBRANCH   4  12
TORSDOF 5
