REMARK  Name = 
REMARK  7 active torsions:
REMARK  status: ('A' for Active; 'I' for Inactive)
REMARK    1  A    between atoms: C_1  and  O_2
REMARK    2  A    between atoms: O_2  and  C_3
REMARK    3  A    between atoms: C_3  and  C_4
REMARK    4  A    between atoms: C_3  and  C_18
REMARK    5  A    between atoms: C_4  and  N_5
REMARK    6  A    between atoms: N_8  and  C_9
REMARK    7  A    between atoms: C_9  and  C_10
REMARK                            x       y       z     vdW  Elec       q    Type
REMARK                         _______ _______ _______ _____ _____    ______ ____
ROOT
ATOM      1  C   UNL     1       3.012  -3.563  -0.952  0.00  0.00    +0.000 C 
ENDROOT
BRANCH   1   2
ATOM      2  C   UNL     1       3.268  -4.429   0.268  0.00  0.00    +0.000 A 
ATOM      3  C   UNL     1       2.603  -5.613   0.550  0.00  0.00    +0.000 A 
ATOM      4  S   UNL     1       3.241  -6.442   1.900  0.00  0.00    +0.000 S 
ATOM      5  C   UNL     1       4.474  -5.284   2.099  0.00  0.00    +0.000 A 
ATOM      6  N   UNL     1       5.472  -5.454   3.005  0.00  0.00    +0.000 NA
ATOM      7  C   UNL     1       6.365  -4.517   2.992  0.00  0.00    +0.000 A 
ATOM      8  N   UNL     1       6.320  -3.400   2.198  0.00  0.00    +0.000 N 
ATOM      9  C   UNL     1       5.289  -3.148   1.320  0.00  0.00    +0.000 A 
ATOM     10  O   UNL     1       5.206  -2.095   0.698  0.00  0.00    +0.000 OA
ATOM     11  C   UNL     1       4.328  -4.228   1.220  0.00  0.00    +0.000 A 
ATOM     12  H   UNL     1       7.024  -2.684   2.276  0.00  0.00    +0.000 HD
ENDBRANCH   1   2
BRANCH   1  14
ATOM     13  C   UNL     1       2.625  -3.789  -3.307  0.00  0.00    +0.000 C 
ATOM     14  O   UNL     1       2.512  -4.382  -2.024  0.00  0.00    +0.000 OA
ENDBRANCH   1  14
BRANCH   1  15
ATOM     15  C   UNL     1       2.173  -2.266  -0.701  0.00  0.00    +0.000 C 
BRANCH  15  16
ATOM     16  N   UNL     1       0.690  -2.327  -0.702  0.00  0.00    +0.000 NA
ATOM     17  C   UNL     1       0.116  -0.963  -0.760  0.00  0.00    +0.000 C 
ATOM     18  C   UNL     1       0.161  -0.179   0.580  0.00  0.00    +0.000 C 
ATOM     19  N   UNL     1      -0.475  -0.881   1.720  0.00  0.00    +0.000 NA
ATOM     20  C   UNL     1       0.101  -2.243   1.796  0.00  0.00    +0.000 C 
ATOM     21  C   UNL     1       0.115  -3.031   0.461  0.00  0.00    +0.000 C 
BRANCH  19  22
ATOM     22  C   UNL     1      -1.939  -0.877   1.548  0.00  0.00    +0.000 C 
BRANCH  22  23
ATOM     23  C   UNL     1      -2.734  -1.446   2.696  0.00  0.00    +0.000 A 
ATOM     24  C   UNL     1      -3.667  -2.468   2.485  0.00  0.00    +0.000 A 
ATOM     25  C   UNL     1      -4.464  -2.913   3.536  0.00  0.00    +0.000 A 
ATOM     26  C   UNL     1      -4.302  -2.318   4.775  0.00  0.00    +0.000 A 
ATOM     27  N   UNL     1      -3.409  -1.337   5.025  0.00  0.00    +0.000 NA
ATOM     28  C   UNL     1      -2.645  -0.926   3.983  0.00  0.00    +0.000 A 
ENDBRANCH  22  23
ENDBRANCH  19  22
ENDBRANCH  15  16
ENDBRANCH   1  15
TORSDOF 6
