REMARK  Name = 
REMARK  6 active torsions:
REMARK  status: ('A' for Active; 'I' for Inactive)
REMARK    1  A    between atoms: C_1  and  N_2
REMARK    2  A    between atoms: C_3  and  C_5
REMARK    3  A    between atoms: C_8  and  C_9
REMARK    4  A    between atoms: C_9  and  C_10
REMARK    5  A    between atoms: C_9  and  N_11
REMARK    6  A    between atoms: N_11  and  C_12
REMARK                            x       y       z     vdW  Elec       q    Type
REMARK                         _______ _______ _______ _____ _____    ______ ____
ROOT
ATOM      1  C   UNL     1       8.826   0.378   1.187  0.00  0.00    +0.000 C 
ATOM      2  C   UNL     1       9.225   1.853   1.083  0.00  0.00    +0.000 C 
ENDROOT
BRANCH   1   6
ATOM      3  C   UNL     1       4.571   0.087   0.952  0.00  0.00    +0.000 A 
ATOM      4  C   UNL     1       5.408  -0.935   0.558  0.00  0.00    +0.000 A 
ATOM      5  N   UNL     1       6.758  -0.884   0.658  0.00  0.00    +0.000 NA
ATOM      6  C   UNL     1       7.288   0.259   1.151  0.00  0.00    +0.000 A 
ATOM      7  N   UNL     1       6.543   1.297   1.594  0.00  0.00    +0.000 NA
ATOM      8  C   UNL     1       5.202   1.196   1.464  0.00  0.00    +0.000 A 
BRANCH   3  11
ATOM      9  C   UNL     1       1.053  -1.255   0.723  0.00  0.00    +0.000 C 
ATOM     10  N   UNL     1       2.488  -1.160   0.833  0.00  0.00    +0.000 N 
ATOM     11  C   UNL     1       3.108   0.071   0.800  0.00  0.00    +0.000 C 
ATOM     12  O   UNL     1       2.505   1.130   0.668  0.00  0.00    +0.000 OA
ATOM     13  H   UNL     1       2.993  -1.985   1.126  0.00  0.00    +0.000 HD
ENDBRANCH   3  11
ENDBRANCH   1   6
BRANCH   1  14
ATOM     14  N   UNL     1       9.377  -0.242   2.418  0.00  0.00    +0.000 N 
ATOM     15  H   UNL     1       8.679  -0.842   2.857  0.00  0.00    +0.000 HD
BRANCH  14  16
ATOM     16  C   UNL     1      10.639  -0.849   2.405  0.00  0.00    +0.000 A 
ATOM     17  C   UNL     1      10.909  -1.867   3.337  0.00  0.00    +0.000 A 
ATOM     18  C   UNL     1      12.171  -2.474   3.419  0.00  0.00    +0.000 A 
ATOM     19  C   UNL     1      13.201  -2.040   2.593  0.00  0.00    +0.000 A 
ATOM     20 CL   UNL     1      14.750  -2.782   2.691  0.00  0.00    +0.000 Cl
ATOM     21  C   UNL     1      12.964  -1.003   1.701  0.00  0.00    +0.000 A 
ATOM     22  F   UNL     1      13.944  -0.540   0.910  0.00  0.00    +0.000 F 
ATOM     23  C   UNL     1      11.702  -0.412   1.610  0.00  0.00    +0.000 A 
ENDBRANCH  14  16
ENDBRANCH   1  14
TORSDOF 4
