REMARK  Name = 
REMARK  6 active torsions:
REMARK  status: ('A' for Active; 'I' for Inactive)
REMARK    1  A    between atoms: C_2  and  C_3
REMARK    2  A    between atoms: C_7  and  C_8
REMARK    3  A    between atoms: C_12  and  C_13
REMARK    4  A    between atoms: C_13  and  N_14
REMARK    5  A    between atoms: N_14  and  C_15
REMARK    6  A    between atoms: C_18  and  C_19
REMARK                            x       y       z     vdW  Elec       q    Type
REMARK                         _______ _______ _______ _____ _____    ______ ____
ROOT
ATOM      1  C   UNL     1      -4.665   4.184   2.208  0.00  0.00    +0.000 C 
ATOM      2  C   UNL     1      -6.165   4.398   2.093  0.00  0.00    +0.000 C 
ATOM      3  C   UNL     1      -5.302   5.537   2.517  0.00  0.00    +0.000 C 
ENDROOT
BRANCH   1   8
ATOM      4  C   UNL     1      -2.337   5.030  -0.587  0.00  0.00    +0.000 A 
ATOM      5  C   UNL     1      -2.472   3.966  -1.473  0.00  0.00    +0.000 A 
ATOM      6  C   UNL     1      -3.318   2.916  -1.143  0.00  0.00    +0.000 A 
ATOM      7  C   UNL     1      -4.023   2.965   0.053  0.00  0.00    +0.000 A 
ATOM      8  C   UNL     1      -3.869   4.061   0.903  0.00  0.00    +0.000 A 
ATOM      9  N   UNL     1      -3.015   5.068   0.585  0.00  0.00    +0.000 NA
BRANCH   4  14
ATOM     10  C   UNL     1      -1.044   8.593  -0.594  0.00  0.00    +0.000 A 
ATOM     11  C   UNL     1       0.036   8.430  -1.449  0.00  0.00    +0.000 A 
ATOM     12  N   UNL     1       0.387   7.247  -1.998  0.00  0.00    +0.000 NA
ATOM     13  C   UNL     1      -0.385   6.176  -1.685  0.00  0.00    +0.000 A 
ATOM     14  C   UNL     1      -1.509   6.215  -0.859  0.00  0.00    +0.000 A 
ATOM     15  C   UNL     1      -1.816   7.468  -0.299  0.00  0.00    +0.000 A 
BRANCH  10  17
ATOM     16  N   UNL     1      -1.606  10.918   0.387  0.00  0.00    +0.000 NA
ATOM     17  C   UNL     1      -1.355   9.872  -0.049  0.00  0.00    +0.000 C 
ENDBRANCH  10  17
ENDBRANCH   4  14
ENDBRANCH   1   8
BRANCH   1  18
ATOM     18  N   UNL     1      -4.024   3.532   3.377  0.00  0.00    +0.000 N 
ATOM     19  H   UNL     1      -3.050   3.805   3.508  0.00  0.00    +0.000 HD
BRANCH  18  20
ATOM     20  C   UNL     1      -4.246   2.185   3.722  0.00  0.00    +0.000 A 
ATOM     21  C   UNL     1      -3.510   1.612   4.768  0.00  0.00    +0.000 A 
ATOM     22  C   UNL     1      -3.766   0.300   5.175  0.00  0.00    +0.000 A 
ATOM     23  C   UNL     1      -4.773  -0.399   4.526  0.00  0.00    +0.000 A 
ATOM     24  N   UNL     1      -5.538   0.125   3.532  0.00  0.00    +0.000 NA
ATOM     25  C   UNL     1      -5.261   1.402   3.183  0.00  0.00    +0.000 A 
BRANCH  23  26
ATOM     26  C   UNL     1      -5.080  -1.813   4.898  0.00  0.00    +0.000 C 
ATOM     27  N   UNL     1      -6.096  -2.388   4.183  0.00  0.00    +0.000 N 
ATOM     28  O   UNL     1      -4.469  -2.420   5.769  0.00  0.00    +0.000 OA
ATOM     29  H   UNL     1      -6.572  -1.841   3.475  0.00  0.00    +0.000 HD
ATOM     30  H   UNL     1      -6.366  -3.345   4.365  0.00  0.00    +0.000 HD
ENDBRANCH  23  26
ENDBRANCH  18  20
ENDBRANCH   1  18
TORSDOF 6
