REMARK  Name = 
REMARK  7 active torsions:
REMARK  status: ('A' for Active; 'I' for Inactive)
REMARK    1  A    between atoms: C_2  and  C_20
REMARK    2  A    between atoms: N_3  and  C_4
REMARK    3  A    between atoms: C_4  and  C_5
REMARK    4  A    between atoms: C_8  and  C_9
REMARK    5  A    between atoms: C_9  and  N_10
REMARK    6  A    between atoms: N_10  and  C_11
REMARK    7  A    between atoms: C_11  and  C_12
REMARK                            x       y       z     vdW  Elec       q    Type
REMARK                         _______ _______ _______ _____ _____    ______ ____
ROOT
ATOM      1  C   UNL     1       2.755   2.644  -4.034  0.00  0.00    +0.000 C 
ENDROOT
BRANCH   1   2
ATOM      2  C   UNL     1       3.165   2.712  -2.551  0.00  0.00    +0.000 C 
ATOM      3  C   UNL     1       4.602   2.218  -2.302  0.00  0.00    +0.000 C 
ATOM      4  C   UNL     1       5.676   3.191  -2.788  0.00  0.00    +0.000 C 
ATOM      5  C   UNL     1       5.485   4.628  -2.263  0.00  0.00    +0.000 C 
ATOM      6  C   UNL     1       4.049   5.107  -2.528  0.00  0.00    +0.000 C 
ATOM      7  C   UNL     1       2.987   4.138  -2.010  0.00  0.00    +0.000 C 
BRANCH   5   8
ATOM      8  C   UNL     1       5.879   4.792  -0.775  0.00  0.00    +0.000 C 
BRANCH   8   9
ATOM      9  N   UNL     1       7.300   4.493  -0.618  0.00  0.00    +0.000 NA
ATOM     10  H   UNL     1       7.851   5.101  -1.224  0.00  0.00    +0.000 HD
BRANCH   9  11
ATOM     11  C   UNL     1       7.776   4.635   0.755  0.00  0.00    +0.000 C 
BRANCH  11  12
ATOM     12  C   UNL     1       9.232   4.253   0.828  0.00  0.00    +0.000 A 
ATOM     13  C   UNL     1       9.664   2.976   0.451  0.00  0.00    +0.000 A 
ATOM     14  C   UNL     1      11.019   2.663   0.484  0.00  0.00    +0.000 A 
ATOM     15  C   UNL     1      11.905   3.639   0.905  0.00  0.00    +0.000 A 
ATOM     16  N   UNL     1      11.530   4.878   1.292  0.00  0.00    +0.000 NA
ATOM     17  C   UNL     1      10.205   5.155   1.244  0.00  0.00    +0.000 A 
ENDBRANCH  11  12
ENDBRANCH   9  11
ENDBRANCH   8   9
ENDBRANCH   5   8
ENDBRANCH   1   2
BRANCH   1  20
ATOM     18  O   UNL     1       0.712   0.690  -3.797  0.00  0.00    +0.000 OA
ATOM     19  C   UNL     1       1.743   0.411  -4.407  0.00  0.00    +0.000 C 
ATOM     20  N   UNL     1       2.777   1.297  -4.550  0.00  0.00    +0.000 N 
ATOM     21  H   UNL     1       3.581   1.042  -5.114  0.00  0.00    +0.000 HD
BRANCH  19  22
ATOM     22  C   UNL     1       1.954  -0.919  -4.992  0.00  0.00    +0.000 A 
ATOM     23  C   UNL     1       1.218  -2.001  -4.531  0.00  0.00    +0.000 A 
ATOM     24  S   UNL     1       1.602  -3.469  -5.311  0.00  0.00    +0.000 S 
ATOM     25  C   UNL     1       2.737  -2.701  -6.321  0.00  0.00    +0.000 A 
ATOM     26  N   UNL     1       3.419  -3.401  -7.269  0.00  0.00    +0.000 NA
ATOM     27  C   UNL     1       4.219  -2.688  -7.988  0.00  0.00    +0.000 A 
ATOM     28  N   UNL     1       4.406  -1.339  -7.841  0.00  0.00    +0.000 N 
ATOM     29  C   UNL     1       3.792  -0.604  -6.857  0.00  0.00    +0.000 A 
ATOM     30  O   UNL     1       4.080   0.576  -6.683  0.00  0.00    +0.000 OA
ATOM     31  C   UNL     1       2.843  -1.349  -6.047  0.00  0.00    +0.000 A 
ATOM     32  H   UNL     1       5.071  -0.844  -8.418  0.00  0.00    +0.000 HD
ENDBRANCH  19  22
ENDBRANCH   1  20
TORSDOF 7
