REMARK  Name = 
REMARK  8 active torsions:
REMARK  status: ('A' for Active; 'I' for Inactive)
REMARK    1  A    between atoms: C_1  and  C_2
REMARK    2  A    between atoms: C_2  and  C_3
REMARK    3  A    between atoms: C_7  and  C_8
REMARK    4  A    between atoms: C_8  and  C_9
REMARK    5  A    between atoms: C_9  and  N_10
REMARK    6  A    between atoms: N_10  and  C_11
REMARK    7  A    between atoms: C_14  and  C_15
REMARK    8  A    between atoms: C_23  and  O_24
REMARK                            x       y       z     vdW  Elec       q    Type
REMARK                         _______ _______ _______ _____ _____    ______ ____
ROOT
ATOM      1  C   UNL     1       2.940   0.311   1.332  0.00  0.00    +0.000 A 
ATOM      2  C   UNL     1       2.708   1.587   1.867  0.00  0.00    +0.000 A 
ATOM      3  C   UNL     1       3.027   1.882   3.198  0.00  0.00    +0.000 A 
ATOM      4  C   UNL     1       3.573   0.906   4.033  0.00  0.00    +0.000 A 
ATOM      5  C   UNL     1       3.829  -0.375   3.538  0.00  0.00    +0.000 A 
ATOM      6  C   UNL     1       3.532  -0.630   2.186  0.00  0.00    +0.000 A 
ENDROOT
BRANCH   1   8
ATOM      7  C   UNL     1       0.921   0.024  -0.078  0.00  0.00    +0.000 C 
ATOM      8  C   UNL     1       2.467  -0.076  -0.091  0.00  0.00    +0.000 C 
ATOM      9  C   UNL     1       3.078   0.887  -1.143  0.00  0.00    +0.000 C 
ATOM     10  C   UNL     1       2.729   0.520  -2.588  0.00  0.00    +0.000 C 
ATOM     11  C   UNL     1       3.100  -0.921  -2.927  0.00  0.00    +0.000 C 
ATOM     12  C   UNL     1       2.509  -1.909  -1.930  0.00  0.00    +0.000 C 
ATOM     13  C   UNL     1       2.865  -1.532  -0.496  0.00  0.00    +0.000 C 
BRANCH  11  14
ATOM     14  O   UNL     1       2.641  -1.239  -4.236  0.00  0.00    +0.000 OA
ATOM     15  H   UNL     1       1.669  -1.206  -4.232  0.00  0.00    +0.000 HD
ENDBRANCH  11  14
ENDBRANCH   1   8
BRANCH   5  16
ATOM     16  C   UNL     1       4.359  -1.459   4.466  0.00  0.00    +0.000 C 
BRANCH  16  17
ATOM     17  C   UNL     1       4.611  -2.788   3.745  0.00  0.00    +0.000 C 
BRANCH  17  18
ATOM     18  N   UNL     1       5.068  -3.876   4.611  0.00  0.00    +0.000 N 
ATOM     19  H   UNL     1       4.464  -3.998   5.424  0.00  0.00    +0.000 HD
BRANCH  18  20
ATOM     20  C   UNL     1       5.252  -5.097   3.926  0.00  0.00    +0.000 A 
ATOM     21  C   UNL     1       5.703  -5.212   2.614  0.00  0.00    +0.000 A 
ATOM     22  N   UNL     1       5.914  -6.371   1.957  0.00  0.00    +0.000 NA
ATOM     23  C   UNL     1       5.701  -7.489   2.684  0.00  0.00    +0.000 A 
ATOM     24  N   UNL     1       5.317  -7.525   3.974  0.00  0.00    +0.000 NA
ATOM     25  C   UNL     1       5.123  -6.323   4.562  0.00  0.00    +0.000 A 
BRANCH  23  26
ATOM     26  C   UNL     1       5.930  -8.797   1.962  0.00  0.00    +0.000 C 
ATOM     27  N   UNL     1       6.330  -8.684   0.648  0.00  0.00    +0.000 N 
ATOM     28  O   UNL     1       5.781  -9.899   2.473  0.00  0.00    +0.000 OA
ATOM     29  H   UNL     1       6.472  -7.768   0.239  0.00  0.00    +0.000 HD
ATOM     30  H   UNL     1       6.522  -9.521   0.118  0.00  0.00    +0.000 HD
ENDBRANCH  23  26
ENDBRANCH  18  20
ENDBRANCH  17  18
ENDBRANCH  16  17
ENDBRANCH   5  16
TORSDOF 7
