REMARK  Name = 
REMARK  6 active torsions:
REMARK  status: ('A' for Active; 'I' for Inactive)
REMARK    1  A    between atoms: C_2  and  C_4
REMARK    2  A    between atoms: C_7  and  C_8
REMARK    3  A    between atoms: C_8  and  C_9
REMARK    4  A    between atoms: C_9  and  C_10
REMARK    5  A    between atoms: C_14  and  N_15
REMARK    6  A    between atoms: C_18  and  O_19
REMARK                            x       y       z     vdW  Elec       q    Type
REMARK                         _______ _______ _______ _____ _____    ______ ____
ROOT
ATOM      1  C   UNL     1       5.502   6.637   3.058  0.00  0.00    +0.000 A 
ATOM      2  C   UNL     1       6.732   6.632   3.699  0.00  0.00    +0.000 A 
ATOM      3  N   UNL     1       7.401   7.749   4.051  0.00  0.00    +0.000 NA
ATOM      4  C   UNL     1       6.814   8.935   3.744  0.00  0.00    +0.000 A 
ATOM      5  C   UNL     1       5.583   9.092   3.105  0.00  0.00    +0.000 A 
ATOM      6  C   UNL     1       4.934   7.891   2.799  0.00  0.00    +0.000 A 
ENDROOT
BRANCH   5   7
ATOM      7  N   UNL     1       5.007  10.309   2.792  0.00  0.00    +0.000 N 
ATOM      8  C   UNL     1       5.278  11.518   3.566  0.00  0.00    +0.000 C 
ATOM      9  C   UNL     1       5.978  12.549   2.689  0.00  0.00    +0.000 C 
ATOM     10  C   UNL     1       5.220  12.795   1.384  0.00  0.00    +0.000 C 
ATOM     11  C   UNL     1       4.899  11.495   0.653  0.00  0.00    +0.000 C 
ATOM     12  C   UNL     1       4.219  10.476   1.566  0.00  0.00    +0.000 C 
BRANCH  10  13
ATOM     13  O   UNL     1       4.025  13.539   1.627  0.00  0.00    +0.000 OA
ATOM     14  H   UNL     1       3.434  13.016   2.193  0.00  0.00    +0.000 HD
ENDBRANCH  10  13
ENDBRANCH   5   7
BRANCH   1  15
ATOM     15  C   UNL     1       4.794   5.348   2.720  0.00  0.00    +0.000 C 
BRANCH  15  16
ATOM     16  C   UNL     1       3.907   5.436   1.468  0.00  0.00    +0.000 C 
BRANCH  16  20
ATOM     17  C   UNL     1       1.915   1.754   0.449  0.00  0.00    +0.000 A 
ATOM     18  C   UNL     1       1.308   2.661   1.324  0.00  0.00    +0.000 A 
ATOM     19  C   UNL     1       1.962   3.846   1.663  0.00  0.00    +0.000 A 
ATOM     20  C   UNL     1       3.225   4.137   1.129  0.00  0.00    +0.000 A 
ATOM     21  C   UNL     1       3.839   3.216   0.272  0.00  0.00    +0.000 A 
ATOM     22  C   UNL     1       3.188   2.028  -0.064  0.00  0.00    +0.000 A 
BRANCH  17  24
ATOM     23  N   UNL     1      -0.115   0.465   0.079  0.00  0.00    +0.000 N 
ATOM     24  C   UNL     1       1.252   0.484   0.065  0.00  0.00    +0.000 C 
ATOM     25  O   UNL     1       1.894  -0.499  -0.286  0.00  0.00    +0.000 OA
ATOM     26  H   UNL     1      -0.555  -0.373  -0.282  0.00  0.00    +0.000 HD
ATOM     27  H   UNL     1      -0.667   1.310   0.110  0.00  0.00    +0.000 HD
ENDBRANCH  17  24
ENDBRANCH  16  20
ENDBRANCH  15  16
ENDBRANCH   1  15
TORSDOF 6
