REMARK  Name = 
REMARK  6 active torsions:
REMARK  status: ('A' for Active; 'I' for Inactive)
REMARK    1  A    between atoms: C_1  and  C_2
REMARK    2  A    between atoms: C_2  and  N_3
REMARK    3  A    between atoms: C_2  and  C_19
REMARK    4  A    between atoms: C_4  and  C_6
REMARK    5  A    between atoms: C_11  and  C_13
REMARK    6  A    between atoms: N_16  and  C_17
REMARK                            x       y       z     vdW  Elec       q    Type
REMARK                         _______ _______ _______ _____ _____    ______ ____
ROOT
ATOM      1  N   UNL     1      -0.150   2.902  -1.706  0.00  0.00    +0.000 N 
ATOM      2  C   UNL     1      -0.167   1.531  -1.410  0.00  0.00    +0.000 C 
ATOM      3  O   UNL     1       0.732   0.780  -1.765  0.00  0.00    +0.000 OA
ATOM      4  H   UNL     1      -1.044   3.351  -1.616  0.00  0.00    +0.000 HD
ENDROOT
BRANCH   2   5
ATOM      5  C   UNL     1      -1.580   1.024  -0.781  0.00  0.00    +0.000 C 
ATOM      6  C   UNL     1      -2.097   2.070   0.239  0.00  0.00    +0.000 C 
ATOM      7  C   UNL     1      -3.441   1.521   0.681  0.00  0.00    +0.000 C 
ATOM      8  C   UNL     1      -3.217   0.021   0.723  0.00  0.00    +0.000 C 
ATOM      9  N   UNL     1      -1.995  -0.230  -0.047  0.00  0.00    +0.000 N 
ATOM     10  C   UNL     1      -1.461  -1.504  -0.225  0.00  0.00    +0.000 C 
ATOM     11  O   UNL     1      -0.394  -1.676  -0.807  0.00  0.00    +0.000 OA
BRANCH  10  12
ATOM     12  C   UNL     1      -2.221  -2.712   0.403  0.00  0.00    +0.000 C 
ATOM     13  C   UNL     1      -1.417  -4.016   0.486  0.00  0.00    +0.000 C 
ATOM     14  C   UNL     1      -1.837  -4.861  -0.711  0.00  0.00    +0.000 C 
ATOM     15  N   UNL     1      -3.031  -4.236  -1.271  0.00  0.00    +0.000 NA
ATOM     16  C   UNL     1      -4.101  -5.169  -1.593  0.00  0.00    +0.000 C 
ATOM     17  C   UNL     1      -3.451  -3.136  -0.401  0.00  0.00    +0.000 C 
ENDBRANCH  10  12
ENDBRANCH   2   5
BRANCH   1  19
ATOM     18  C   UNL     1       2.228   3.933  -2.134  0.00  0.00    +0.000 C 
ATOM     19  C   UNL     1       0.759   3.755  -2.495  0.00  0.00    +0.000 C 
BRANCH  19  20
ATOM     20  C   UNL     1       0.487   3.572  -3.975  0.00  0.00    +0.000 A 
ATOM     21  C   UNL     1      -0.201   4.489  -4.758  0.00  0.00    +0.000 A 
ATOM     22  S   UNL     1      -0.621   3.863  -6.296  0.00  0.00    +0.000 S 
ATOM     23  C   UNL     1       0.152   2.383  -5.959  0.00  0.00    +0.000 A 
ATOM     24  N   UNL     1       0.049   1.306  -6.785  0.00  0.00    +0.000 NA
ATOM     25  C   UNL     1       0.658   0.252  -6.342  0.00  0.00    +0.000 A 
ATOM     26  N   UNL     1       1.436   0.200  -5.217  0.00  0.00    +0.000 N 
ATOM     27  C   UNL     1       1.753   1.333  -4.506  0.00  0.00    +0.000 A 
ATOM     28  O   UNL     1       2.789   1.409  -3.855  0.00  0.00    +0.000 OA
ATOM     29  C   UNL     1       0.867   2.443  -4.776  0.00  0.00    +0.000 A 
ATOM     30  H   UNL     1       2.001  -0.603  -5.004  0.00  0.00    +0.000 HD
ENDBRANCH  19  20
ENDBRANCH   1  19
TORSDOF 4
