REMARK  Name = 
REMARK  9 active torsions:
REMARK  status: ('A' for Active; 'I' for Inactive)
REMARK    1  A    between atoms: C_2  and  C_22
REMARK    2  A    between atoms: N_3  and  C_4
REMARK    3  A    between atoms: C_4  and  C_5
REMARK    4  A    between atoms: C_7  and  C_8
REMARK    5  A    between atoms: C_8  and  O_9
REMARK    6  A    between atoms: C_8  and  C_10
REMARK    7  A    between atoms: C_10  and  O_11
REMARK    8  A    between atoms: C_10  and  C_12
REMARK    9  A    between atoms: C_12  and  C_13
REMARK                            x       y       z     vdW  Elec       q    Type
REMARK                         _______ _______ _______ _____ _____    ______ ____
ROOT
ATOM      1  C   UNL     1       3.322  -0.012   3.621  0.00  0.00    +0.000 A 
ATOM      2  C   UNL     1       3.779   1.170   4.167  0.00  0.00    +0.000 A 
ATOM      3  C   UNL     1       4.685   1.070   5.206  0.00  0.00    +0.000 A 
ATOM      4  N   UNL     1       5.096  -0.124   5.691  0.00  0.00    +0.000 NA
ATOM      5  C   UNL     1       4.551  -1.213   5.128  0.00  0.00    +0.000 A 
ATOM      6  N   UNL     1       3.674  -1.221   4.111  0.00  0.00    +0.000 NA
ENDROOT
BRANCH   1   7
ATOM      7  C   UNL     1       2.320   0.051   2.486  0.00  0.00    +0.000 C 
BRANCH   7  10
ATOM      8  O   UNL     1       0.918   2.515   2.886  0.00  0.00    +0.000 OA
ATOM      9  C   UNL     1       0.437   1.453   3.259  0.00  0.00    +0.000 C 
ATOM     10  N   UNL     1       0.990   0.216   3.019  0.00  0.00    +0.000 N 
ATOM     11  H   UNL     1       0.702  -0.545   3.613  0.00  0.00    +0.000 HD
BRANCH   9  12
ATOM     12  C   UNL     1      -0.640   1.354   4.239  0.00  0.00    +0.000 A 
ATOM     13  C   UNL     1      -0.781   2.246   5.288  0.00  0.00    +0.000 A 
ATOM     14  S   UNL     1      -1.573   1.500   6.619  0.00  0.00    +0.000 S 
ATOM     15  C   UNL     1      -1.901   0.094   5.705  0.00  0.00    +0.000 A 
ATOM     16  N   UNL     1      -2.420  -1.034   6.260  0.00  0.00    +0.000 NA
ATOM     17  C   UNL     1      -2.682  -1.968   5.403  0.00  0.00    +0.000 A 
ATOM     18  N   UNL     1      -2.519  -1.862   4.042  0.00  0.00    +0.000 N 
ATOM     19  C   UNL     1      -1.965  -0.753   3.434  0.00  0.00    +0.000 A 
ATOM     20  O   UNL     1      -1.834  -0.669   2.226  0.00  0.00    +0.000 OA
ATOM     21  C   UNL     1      -1.556   0.263   4.385  0.00  0.00    +0.000 A 
ATOM     22  H   UNL     1      -2.824  -2.600   3.425  0.00  0.00    +0.000 HD
ENDBRANCH   9  12
ENDBRANCH   7  10
ENDBRANCH   1   7
BRANCH   3  23
ATOM     23  C   UNL     1       5.276   2.338   5.801  0.00  0.00    +0.000 C 
BRANCH  23  24
ATOM     24  O   UNL     1       5.576   2.108   7.186  0.00  0.00    +0.000 OA
ATOM     25  H   UNL     1       5.878   1.178   7.225  0.00  0.00    +0.000 HD
ENDBRANCH  23  24
BRANCH  23  26
ATOM     26  C   UNL     1       6.566   2.811   5.079  0.00  0.00    +0.000 C 
BRANCH  26  27
ATOM     27  O   UNL     1       7.581   1.796   5.146  0.00  0.00    +0.000 OA
ATOM     28  H   UNL     1       7.326   1.074   4.543  0.00  0.00    +0.000 HD
ENDBRANCH  26  27
BRANCH  26  29
ATOM     29  C   UNL     1       6.323   3.256   3.625  0.00  0.00    +0.000 C 
BRANCH  29  30
ATOM     30  C   UNL     1       7.574   3.711   2.916  0.00  0.00    +0.000 A 
ATOM     31  C   UNL     1       8.312   4.803   3.368  0.00  0.00    +0.000 A 
ATOM     32  C   UNL     1       9.477   5.152   2.687  0.00  0.00    +0.000 A 
ATOM     33  C   UNL     1       9.867   4.414   1.577  0.00  0.00    +0.000 A 
ATOM     34  C   UNL     1       9.069   3.354   1.186  0.00  0.00    +0.000 A 
ATOM     35  N   UNL     1       7.935   2.993   1.823  0.00  0.00    +0.000 NA
ENDBRANCH  29  30
ENDBRANCH  26  29
ENDBRANCH  23  26
ENDBRANCH   3  23
TORSDOF 9
