REMARK  Name = 
REMARK  9 active torsions:
REMARK  status: ('A' for Active; 'I' for Inactive)
REMARK    1  A    between atoms: C_1  and  O_2
REMARK    2  A    between atoms: O_2  and  C_3
REMARK    3  A    between atoms: C_10  and  C_11
REMARK    4  A    between atoms: N_13  and  C_14
REMARK    5  A    between atoms: C_14  and  C_15
REMARK    6  A    between atoms: C_18  and  N_19
REMARK    7  A    between atoms: N_19  and  C_20
REMARK    8  A    between atoms: C_20  and  C_21
REMARK    9  A    between atoms: C_21  and  C_22
REMARK                            x       y       z     vdW  Elec       q    Type
REMARK                         _______ _______ _______ _____ _____    ______ ____
ROOT
ATOM      1  C   UNL     1       2.912  -0.083  -3.360  0.00  0.00    +0.000 C 
ENDROOT
BRANCH   1   2
ATOM      2  C   UNL     1       1.707  -0.960  -3.142  0.00  0.00    +0.000 A 
ATOM      3  C   UNL     1       1.821  -2.354  -3.189  0.00  0.00    +0.000 A 
ATOM      4  C   UNL     1       0.718  -3.167  -2.906  0.00  0.00    +0.000 A 
ATOM      5  C   UNL     1      -0.513  -2.611  -2.541  0.00  0.00    +0.000 A 
ATOM      6  C   UNL     1      -0.651  -1.221  -2.618  0.00  0.00    +0.000 A 
ATOM      7  C   UNL     1       0.447  -0.401  -2.902  0.00  0.00    +0.000 A 
BRANCH   5   8
ATOM      8  N   UNL     1      -1.628  -3.363  -2.154  0.00  0.00    +0.000 N 
ATOM      9  H   UNL     1      -2.259  -3.487  -2.945  0.00  0.00    +0.000 HD
BRANCH   8  10
ATOM     10  C   UNL     1      -1.395  -4.618  -1.429  0.00  0.00    +0.000 C 
BRANCH  10  11
ATOM     11  C   UNL     1      -0.684  -4.364  -0.090  0.00  0.00    +0.000 C 
BRANCH  11  12
ATOM     12  C   UNL     1      -0.412  -5.632   0.674  0.00  0.00    +0.000 A 
ATOM     13  C   UNL     1       0.767  -6.353   0.464  0.00  0.00    +0.000 A 
ATOM     14  C   UNL     1       0.975  -7.511   1.198  0.00  0.00    +0.000 A 
ATOM     15  N   UNL     1       0.100  -7.991   2.105  0.00  0.00    +0.000 NA
ATOM     16  C   UNL     1      -1.031  -7.279   2.293  0.00  0.00    +0.000 A 
ATOM     17  C   UNL     1      -1.331  -6.111   1.608  0.00  0.00    +0.000 A 
ENDBRANCH  11  12
ENDBRANCH  10  11
ENDBRANCH   8  10
ENDBRANCH   5   8
ENDBRANCH   1   2
BRANCH   1  20
ATOM     18  C   UNL     1       4.200   0.894  -5.207  0.00  0.00    +0.000 C 
ATOM     19  O   UNL     1       5.038   1.344  -4.428  0.00  0.00    +0.000 OA
ATOM     20  N   UNL     1       3.125   0.179  -4.758  0.00  0.00    +0.000 N 
ATOM     21  H   UNL     1       2.387  -0.080  -5.398  0.00  0.00    +0.000 HD
BRANCH  18  29
ATOM     22  C   UNL     1       2.335  -0.167  -7.894  0.00  0.00    +0.000 A 
ATOM     23  N   UNL     1       1.841  -0.500  -9.102  0.00  0.00    +0.000 NA
ATOM     24  C   UNL     1       2.492  -0.070 -10.186  0.00  0.00    +0.000 A 
ATOM     25  N   UNL     1       3.595   0.674 -10.217  0.00  0.00    +0.000 NA
ATOM     26  C   UNL     1       4.057   0.979  -8.994  0.00  0.00    +0.000 A 
ATOM     27  S   UNL     1       5.453   1.933  -8.839  0.00  0.00    +0.000 S 
ATOM     28  C   UNL     1       5.386   1.843  -7.143  0.00  0.00    +0.000 A 
ATOM     29  C   UNL     1       4.318   1.093  -6.662  0.00  0.00    +0.000 A 
ATOM     30  C   UNL     1       3.507   0.600  -7.773  0.00  0.00    +0.000 A 
BRANCH  22  32
ATOM     31  C   UNL     1       0.785  -1.666  -6.968  0.00  0.00    +0.000 C 
ATOM     32  O   UNL     1       1.614  -0.522  -6.775  0.00  0.00    +0.000 OA
ENDBRANCH  22  32
ENDBRANCH  18  29
ENDBRANCH   1  20
TORSDOF 8
