REMARK  Name = 
REMARK  8 active torsions:
REMARK  status: ('A' for Active; 'I' for Inactive)
REMARK    1  A    between atoms: C_1  and  C_2
REMARK    2  A    between atoms: C_2  and  C_3
REMARK    3  A    between atoms: C_2  and  C_19
REMARK    4  A    between atoms: C_3  and  N_4
REMARK    5  A    between atoms: N_7  and  C_8
REMARK    6  A    between atoms: C_8  and  C_9
REMARK    7  A    between atoms: C_9  and  C_10
REMARK    8  A    between atoms: C_19  and  C_21
REMARK                            x       y       z     vdW  Elec       q    Type
REMARK                         _______ _______ _______ _____ _____    ______ ____
ROOT
ATOM      1  C   UNL     1       0.898   0.071   0.028  0.00  0.00    +0.000 C 
ENDROOT
BRANCH   1   2
ATOM      2  N   UNL     1       0.359  -0.852   1.049  0.00  0.00    +0.000 NA
ATOM      3  C   UNL     1       0.836  -2.233   0.795  0.00  0.00    +0.000 C 
ATOM      4  C   UNL     1       0.092  -2.973  -0.349  0.00  0.00    +0.000 C 
ATOM      5  N   UNL     1      -1.389  -2.966  -0.222  0.00  0.00    +0.000 NA
ATOM      6  C   UNL     1      -1.814  -1.562  -0.048  0.00  0.00    +0.000 C 
ATOM      7  C   UNL     1      -1.116  -0.849   1.129  0.00  0.00    +0.000 C 
BRANCH   5   8
ATOM      8  C   UNL     1      -1.805  -3.834   0.899  0.00  0.00    +0.000 C 
BRANCH   8   9
ATOM      9  C   UNL     1      -3.329  -3.937   1.080  0.00  0.00    +0.000 C 
BRANCH   9  10
ATOM     10  C   UNL     1      -3.679  -4.794   2.274  0.00  0.00    +0.000 A 
ATOM     11  C   UNL     1      -3.763  -4.224   3.549  0.00  0.00    +0.000 A 
ATOM     12  C   UNL     1      -4.060  -5.027   4.649  0.00  0.00    +0.000 A 
ATOM     13  N   UNL     1      -4.268  -6.387   4.512  0.00  0.00    +0.000 N 
ATOM     14  O   UNL     1      -4.530  -7.109   5.521  0.00  0.00    +0.000 OA
ATOM     15  C   UNL     1      -4.176  -6.943   3.247  0.00  0.00    +0.000 A 
ATOM     16  C   UNL     1      -3.884  -6.166   2.126  0.00  0.00    +0.000 A 
ENDBRANCH   9  10
ENDBRANCH   8   9
ENDBRANCH   5   8
ENDBRANCH   1   2
BRANCH   1  18
ATOM     17  C   UNL     1       0.785   2.051   1.624  0.00  0.00    +0.000 C 
ATOM     18  C   UNL     1       0.469   1.541   0.215  0.00  0.00    +0.000 C 
BRANCH  18  19
ATOM     19  C   UNL     1       1.125   2.421  -0.859  0.00  0.00    +0.000 C 
ATOM     20  O   UNL     1       2.037   1.976  -1.553  0.00  0.00    +0.000 OA
BRANCH  19  21
ATOM     21  C   UNL     1       0.630   3.797  -1.040  0.00  0.00    +0.000 A 
ATOM     22  C   UNL     1      -0.656   4.188  -0.696  0.00  0.00    +0.000 A 
ATOM     23  S   UNL     1      -0.936   5.859  -0.886  0.00  0.00    +0.000 S 
ATOM     24  C   UNL     1       0.649   6.113  -1.444  0.00  0.00    +0.000 A 
ATOM     25  N   UNL     1       1.098   7.369  -1.710  0.00  0.00    +0.000 NA
ATOM     26  C   UNL     1       2.329   7.423  -2.086  0.00  0.00    +0.000 A 
ATOM     27  N   UNL     1       3.142   6.334  -2.261  0.00  0.00    +0.000 N 
ATOM     28  C   UNL     1       2.696   5.036  -2.129  0.00  0.00    +0.000 A 
ATOM     29  O   UNL     1       3.395   4.106  -2.509  0.00  0.00    +0.000 OA
ATOM     30  C   UNL     1       1.357   4.930  -1.570  0.00  0.00    +0.000 A 
ATOM     31  H   UNL     1       4.073   6.435  -2.636  0.00  0.00    +0.000 HD
ENDBRANCH  19  21
ENDBRANCH  18  19
ENDBRANCH   1  18
TORSDOF 7
