REMARK  Name = 
REMARK  7 active torsions:
REMARK  status: ('A' for Active; 'I' for Inactive)
REMARK    1  A    between atoms: C_1  and  O_2
REMARK    2  A    between atoms: O_2  and  C_3
REMARK    3  A    between atoms: C_5  and  C_6
REMARK    4  A    between atoms: C_6  and  O_7
REMARK    5  A    between atoms: O_7  and  C_8
REMARK    6  A    between atoms: C_12  and  C_13
REMARK    7  A    between atoms: C_17  and  C_18
REMARK                            x       y       z     vdW  Elec       q    Type
REMARK                         _______ _______ _______ _____ _____    ______ ____
ROOT
ATOM      1  C   UNL     1       2.971   0.806   0.938  0.00  0.00    +0.000 A 
ATOM      2  C   UNL     1       2.499   0.785   2.249  0.00  0.00    +0.000 A 
ATOM      3  C   UNL     1       3.290   1.289   3.289  0.00  0.00    +0.000 A 
ATOM      4  C   UNL     1       4.539   1.855   2.990  0.00  0.00    +0.000 A 
ATOM      5  C   UNL     1       5.063   1.847   1.686  0.00  0.00    +0.000 A 
ATOM      6  C   UNL     1       4.237   1.340   0.667  0.00  0.00    +0.000 A 
ENDROOT
BRANCH   5   7
ATOM      7  C   UNL     1       6.467   2.241   1.421  0.00  0.00    +0.000 A 
ATOM      8  C   UNL     1       7.474   1.966   2.372  0.00  0.00    +0.000 A 
ATOM      9  C   UNL     1       8.819   2.233   2.114  0.00  0.00    +0.000 A 
ATOM     10  C   UNL     1       9.181   2.775   0.892  0.00  0.00    +0.000 A 
ATOM     11  F   UNL     1      10.474   2.999   0.627  0.00  0.00    +0.000 F 
ATOM     12  C   UNL     1       8.221   3.074  -0.065  0.00  0.00    +0.000 A 
ATOM     13  C   UNL     1       6.871   2.818   0.202  0.00  0.00    +0.000 A 
ENDBRANCH   5   7
BRANCH   1  15
ATOM     14  C   UNL     1       1.107  -0.400   0.085  0.00  0.00    +0.000 C 
ATOM     15  O   UNL     1       2.321   0.301  -0.155  0.00  0.00    +0.000 OA
ENDBRANCH   1  15
BRANCH   3  16
ATOM     16  C   UNL     1       2.834   1.190   4.722  0.00  0.00    +0.000 C 
BRANCH  16  17
ATOM     17  O   UNL     1       2.073   2.346   5.049  0.00  0.00    +0.000 OA
BRANCH  17  18
ATOM     18  C   UNL     1       1.627   2.442   6.335  0.00  0.00    +0.000 A 
ATOM     19  C   UNL     1       0.860   3.564   6.630  0.00  0.00    +0.000 A 
ATOM     20  N   UNL     1       0.334   3.832   7.850  0.00  0.00    +0.000 NA
ATOM     21  C   UNL     1       0.589   2.937   8.830  0.00  0.00    +0.000 A 
ATOM     22  C   UNL     1       1.342   1.787   8.640  0.00  0.00    +0.000 A 
ATOM     23  C   UNL     1       1.868   1.537   7.369  0.00  0.00    +0.000 A 
BRANCH  22  24
ATOM     24  C   UNL     1       1.568   0.885   9.725  0.00  0.00    +0.000 C 
ATOM     25  N   UNL     1       1.762   0.145  10.595  0.00  0.00    +0.000 NA
ENDBRANCH  22  24
ENDBRANCH  17  18
ENDBRANCH  16  17
ENDBRANCH   3  16
TORSDOF 6
