REMARK  Name = 
REMARK  4 active torsions:
REMARK  status: ('A' for Active; 'I' for Inactive)
REMARK    1  A    between atoms: C_2  and  C_4
REMARK    2  A    between atoms: C_8  and  C_9
REMARK    3  A    between atoms: C_9  and  N_10
REMARK    4  A    between atoms: C_13  and  C_14
REMARK                            x       y       z     vdW  Elec       q    Type
REMARK                         _______ _______ _______ _____ _____    ______ ____
ROOT
ATOM      1  N   UNL     1       2.072  -4.903   1.400  0.00  0.00    +0.000 N 
ATOM      2  C   UNL     1       1.822  -6.280   1.348  0.00  0.00    +0.000 A 
ATOM      3  C   UNL     1       0.491  -6.699   1.391  0.00  0.00    +0.000 A 
ATOM      4  C   UNL     1       0.166  -8.063   1.371  0.00  0.00    +0.000 A 
ATOM      5  C   UNL     1       1.235  -8.958   1.250  0.00  0.00    +0.000 A 
ATOM      6  C   UNL     1       2.527  -8.462   1.186  0.00  0.00    +0.000 A 
ATOM      7  N   UNL     1       2.837  -7.153   1.241  0.00  0.00    +0.000 NA
ATOM      8  H   UNL     1       1.832  -4.499   0.498  0.00  0.00    +0.000 HD
ENDROOT
BRANCH   4   9
ATOM      9  C   UNL     1      -1.233  -8.531   1.484  0.00  0.00    +0.000 A 
ATOM     10  C   UNL     1      -2.314  -7.795   0.974  0.00  0.00    +0.000 A 
ATOM     11  C   UNL     1      -3.622  -8.263   1.100  0.00  0.00    +0.000 A 
ATOM     12  C   UNL     1      -3.829  -9.474   1.733  0.00  0.00    +0.000 A 
ATOM     13  N   UNL     1      -2.833 -10.223   2.246  0.00  0.00    +0.000 NA
ATOM     14  C   UNL     1      -1.575  -9.732   2.113  0.00  0.00    +0.000 A 
ENDBRANCH   4   9
BRANCH   1  15
ATOM     15  C   UNL     1       3.418  -4.554   1.825  0.00  0.00    +0.000 C 
BRANCH  15  20
ATOM     16  C   UNL     1       4.271  -0.903   2.545  0.00  0.00    +0.000 A 
ATOM     17  C   UNL     1       3.384  -0.687   3.592  0.00  0.00    +0.000 A 
ATOM     18  N   UNL     1       2.506  -1.616   4.037  0.00  0.00    +0.000 NA
ATOM     19  C   UNL     1       2.540  -2.822   3.425  0.00  0.00    +0.000 A 
ATOM     20  C   UNL     1       3.403  -3.152   2.379  0.00  0.00    +0.000 A 
ATOM     21  C   UNL     1       4.285  -2.161   1.934  0.00  0.00    +0.000 A 
BRANCH  16  23
ATOM     22  N   UNL     1       5.617   0.219   0.862  0.00  0.00    +0.000 N 
ATOM     23  C   UNL     1       5.183   0.192   2.158  0.00  0.00    +0.000 C 
ATOM     24  O   UNL     1       5.512   1.063   2.953  0.00  0.00    +0.000 OA
ATOM     25  H   UNL     1       6.151   1.036   0.591  0.00  0.00    +0.000 HD
ATOM     26  H   UNL     1       5.168  -0.310   0.128  0.00  0.00    +0.000 HD
ENDBRANCH  16  23
ENDBRANCH  15  20
ENDBRANCH   1  15
TORSDOF 4
