REMARK  Name = 
REMARK  7 active torsions:
REMARK  status: ('A' for Active; 'I' for Inactive)
REMARK    1  A    between atoms: C_2  and  C_3
REMARK    2  A    between atoms: C_7  and  O_8
REMARK    3  A    between atoms: O_8  and  C_9
REMARK    4  A    between atoms: C_9  and  C_10
REMARK    5  A    between atoms: C_14  and  C_15
REMARK    6  A    between atoms: C_19  and  O_20
REMARK    7  A    between atoms: O_20  and  C_21
REMARK                            x       y       z     vdW  Elec       q    Type
REMARK                         _______ _______ _______ _____ _____    ______ ____
ROOT
ATOM      1  C   UNL     1      -3.013   3.985   0.233  0.00  0.00    +0.000 A 
ATOM      2  C   UNL     1      -3.808   4.345  -0.866  0.00  0.00    +0.000 A 
ATOM      3  C   UNL     1      -5.182   4.542  -0.731  0.00  0.00    +0.000 A 
ATOM      4  C   UNL     1      -5.797   4.357   0.507  0.00  0.00    +0.000 A 
ATOM      5  C   UNL     1      -5.048   4.017   1.643  0.00  0.00    +0.000 A 
ATOM      6  C   UNL     1      -3.656   3.895   1.485  0.00  0.00    +0.000 A 
ENDROOT
BRANCH   5   7
ATOM      7  C   UNL     1      -5.693   3.703   2.933  0.00  0.00    +0.000 A 
ATOM      8  C   UNL     1      -6.891   2.983   2.986  0.00  0.00    +0.000 A 
ATOM      9  N   UNL     1      -7.544   2.640   4.121  0.00  0.00    +0.000 NA
ATOM     10  C   UNL     1      -6.967   3.019   5.279  0.00  0.00    +0.000 A 
ATOM     11  C   UNL     1      -5.759   3.697   5.365  0.00  0.00    +0.000 A 
ATOM     12  C   UNL     1      -5.129   4.058   4.173  0.00  0.00    +0.000 A 
BRANCH  11  13
ATOM     13  O   UNL     1      -5.318   3.981   6.624  0.00  0.00    +0.000 OA
BRANCH  13  14
ATOM     14  C   UNL     1      -3.912   4.068   6.775  0.00  0.00    +0.000 C 
ATOM     15  F   UNL     1      -3.519   5.330   6.475  0.00  0.00    +0.000 F 
ATOM     16  F   UNL     1      -3.638   3.873   8.089  0.00  0.00    +0.000 F 
ENDBRANCH  13  14
ENDBRANCH  11  13
ENDBRANCH   5   7
BRANCH   1  17
ATOM     17  C   UNL     1      -1.547   3.587   0.080  0.00  0.00    +0.000 C 
ATOM     18  C   UNL     1      -1.050   2.429   0.943  0.00  0.00    +0.000 C 
ATOM     19  C   UNL     1      -1.210   2.235  -0.525  0.00  0.00    +0.000 C 
BRANCH  17  20
ATOM     20  O   UNL     1      -0.555   4.645  -0.041  0.00  0.00    +0.000 OA
BRANCH  20  25
ATOM     21  C   UNL     1      -0.422   7.410  -2.392  0.00  0.00    +0.000 A 
ATOM     22  C   UNL     1      -0.498   6.711  -3.587  0.00  0.00    +0.000 A 
ATOM     23  N   UNL     1      -0.553   5.364  -3.658  0.00  0.00    +0.000 NA
ATOM     24  C   UNL     1      -0.555   4.698  -2.482  0.00  0.00    +0.000 A 
ATOM     25  C   UNL     1      -0.529   5.307  -1.237  0.00  0.00    +0.000 A 
ATOM     26  C   UNL     1      -0.427   6.693  -1.189  0.00  0.00    +0.000 A 
BRANCH  21  28
ATOM     27  N   UNL     1      -0.302  10.007  -2.420  0.00  0.00    +0.000 NA
ATOM     28  C   UNL     1      -0.354   8.844  -2.404  0.00  0.00    +0.000 C 
ENDBRANCH  21  28
ENDBRANCH  20  25
ENDBRANCH  17  20
ENDBRANCH   1  17
TORSDOF 7
