REMARK  Name = 
REMARK  10 active torsions:
REMARK  status: ('A' for Active; 'I' for Inactive)
REMARK    1  A    between atoms: C_1  and  C_2
REMARK    2  A    between atoms: C_2  and  N_3
REMARK    3  A    between atoms: C_2  and  C_20
REMARK    4  A    between atoms: N_3  and  C_4
REMARK    5  A    between atoms: C_4  and  C_5
REMARK    6  A    between atoms: C_8  and  C_9
REMARK    7  A    between atoms: C_9  and  C_10
REMARK    8  A    between atoms: C_9  and  C_12
REMARK    9  A    between atoms: C_10  and  O_11
REMARK   10  A    between atoms: C_12  and  N_13
REMARK                            x       y       z     vdW  Elec       q    Type
REMARK                         _______ _______ _______ _____ _____    ______ ____
ROOT
ATOM      1  C   UNL     1      -6.777  -0.734  -6.848  0.00  0.00    +0.000 C 
ENDROOT
BRANCH   1   2
ATOM      2  C   UNL     1      -6.354  -0.819  -5.405  0.00  0.00    +0.000 A 
ATOM      3  C   UNL     1      -6.731   0.179  -4.494  0.00  0.00    +0.000 A 
ATOM      4  C   UNL     1      -6.333   0.108  -3.161  0.00  0.00    +0.000 A 
ATOM      5  C   UNL     1      -5.555  -0.967  -2.700  0.00  0.00    +0.000 A 
ATOM      6  C   UNL     1      -5.196  -1.971  -3.610  0.00  0.00    +0.000 A 
ATOM      7  C   UNL     1      -5.591  -1.897  -4.947  0.00  0.00    +0.000 A 
BRANCH   5   8
ATOM      8  C   UNL     1      -5.096  -0.964  -1.245  0.00  0.00    +0.000 C 
BRANCH   8   9
ATOM      9  C   UNL     1      -3.788  -0.160  -1.092  0.00  0.00    +0.000 C 
BRANCH   9  10
ATOM     10  O   UNL     1      -2.660  -0.821  -1.661  0.00  0.00    +0.000 OA
ATOM     11  H   UNL     1      -2.904  -1.084  -2.564  0.00  0.00    +0.000 HD
ENDBRANCH   9  10
ENDBRANCH   8   9
BRANCH   8  12
ATOM     12  C   UNL     1      -5.003  -2.379  -0.616  0.00  0.00    +0.000 C 
BRANCH  12  13
ATOM     13  N   UNL     1      -4.628  -2.372   0.808  0.00  0.00    +0.000 NA
ATOM     14  C   UNL     1      -5.636  -1.781   1.687  0.00  0.00    +0.000 C 
ATOM     15  C   UNL     1      -6.564  -2.924   2.043  0.00  0.00    +0.000 C 
ATOM     16  O   UNL     1      -5.817  -4.128   1.843  0.00  0.00    +0.000 OA
ATOM     17  C   UNL     1      -4.546  -3.738   1.324  0.00  0.00    +0.000 C 
ENDBRANCH  12  13
ENDBRANCH   8  12
ENDBRANCH   5   8
ENDBRANCH   1   2
BRANCH   1  18
ATOM     18  N   UNL     1      -6.281   0.494  -7.461  0.00  0.00    +0.000 NA
ATOM     19  H   UNL     1      -5.265   0.519  -7.359  0.00  0.00    +0.000 HD
BRANCH  18  21
ATOM     20  C   UNL     1      -8.119   0.500  -9.146  0.00  0.00    +0.000 C 
ATOM     21  C   UNL     1      -6.612   0.609  -8.886  0.00  0.00    +0.000 C 
BRANCH  21  22
ATOM     22  C   UNL     1      -6.070   1.951  -9.343  0.00  0.00    +0.000 A 
ATOM     23  C   UNL     1      -6.430   3.166  -8.776  0.00  0.00    +0.000 A 
ATOM     24  S   UNL     1      -5.642   4.506  -9.477  0.00  0.00    +0.000 S 
ATOM     25  C   UNL     1      -4.790   3.511 -10.565  0.00  0.00    +0.000 A 
ATOM     26  N   UNL     1      -3.909   4.036 -11.455  0.00  0.00    +0.000 NA
ATOM     27  C   UNL     1      -3.335   3.159 -12.215  0.00  0.00    +0.000 A 
ATOM     28  N   UNL     1      -3.568   1.807 -12.167  0.00  0.00    +0.000 N 
ATOM     29  C   UNL     1      -4.462   1.228 -11.294  0.00  0.00    +0.000 A 
ATOM     30  O   UNL     1      -4.667   0.019 -11.301  0.00  0.00    +0.000 OA
ATOM     31  C   UNL     1      -5.117   2.173 -10.406  0.00  0.00    +0.000 A 
ATOM     32  H   UNL     1      -3.094   1.180 -12.798  0.00  0.00    +0.000 HD
ENDBRANCH  21  22
ENDBRANCH  18  21
ENDBRANCH   1  18
TORSDOF 9
