REMARK  Name = 
REMARK  8 active torsions:
REMARK  status: ('A' for Active; 'I' for Inactive)
REMARK    1  A    between atoms: C_1  and  C_2
REMARK    2  A    between atoms: C_2  and  C_3
REMARK    3  A    between atoms: C_2  and  C_14
REMARK    4  A    between atoms: C_3  and  N_4
REMARK    5  A    between atoms: C_8  and  C_9
REMARK    6  A    between atoms: C_18  and  O_19
REMARK    7  A    between atoms: O_19  and  C_20
REMARK    8  A    between atoms: C_20  and  C_21
REMARK                            x       y       z     vdW  Elec       q    Type
REMARK                         _______ _______ _______ _____ _____    ______ ____
ROOT
ATOM      1  C   UNL     1       1.001   0.063   0.008  0.00  0.00    +0.000 C 
ATOM      2  C   UNL     1       2.449   0.077   0.392  0.00  0.00    +0.000 C 
ENDROOT
BRANCH   2   3
ATOM      3  C   UNL     1       3.076  -1.199   0.823  0.00  0.00    +0.000 A 
ATOM      4  C   UNL     1       2.935  -2.371   0.072  0.00  0.00    +0.000 A 
ATOM      5  C   UNL     1       3.566  -3.557   0.472  0.00  0.00    +0.000 A 
ATOM      6  C   UNL     1       4.363  -3.585   1.617  0.00  0.00    +0.000 A 
ATOM      7  C   UNL     1       4.532  -2.423   2.362  0.00  0.00    +0.000 A 
ATOM      8  C   UNL     1       3.862  -1.258   1.986  0.00  0.00    +0.000 A 
BRANCH   7   9
ATOM      9  O   UNL     1       5.304  -2.314   3.485  0.00  0.00    +0.000 OA
BRANCH   9  10
ATOM     10  C   UNL     1       6.494  -3.113   3.491  0.00  0.00    +0.000 C 
BRANCH  10  11
ATOM     11  C   UNL     1       7.612  -2.448   4.292  0.00  0.00    +0.000 C 
ATOM     12  F   UNL     1       7.246  -1.272   4.844  0.00  0.00    +0.000 F 
ATOM     13  F   UNL     1       8.029  -3.256   5.296  0.00  0.00    +0.000 F 
ATOM     14  F   UNL     1       8.688  -2.208   3.504  0.00  0.00    +0.000 F 
ENDBRANCH  10  11
ENDBRANCH   9  10
ENDBRANCH   7   9
ENDBRANCH   2   3
BRANCH   2  15
ATOM     15  C   UNL     1       3.086   1.353   0.874  0.00  0.00    +0.000 C 
BRANCH  15  16
ATOM     16  N   UNL     1       2.929   2.448  -0.062  0.00  0.00    +0.000 N 
ATOM     17  C   UNL     1       3.575   3.596   0.411  0.00  0.00    +0.000 A 
ATOM     18  N   UNL     1       4.656   3.473   1.201  0.00  0.00    +0.000 NA
ATOM     19  C   UNL     1       5.203   4.598   1.707  0.00  0.00    +0.000 A 
ATOM     20  C   UNL     1       4.729   5.855   1.431  0.00  0.00    +0.000 A 
ATOM     21  C   UNL     1       3.626   5.887   0.608  0.00  0.00    +0.000 A 
ATOM     22  N   UNL     1       3.032   4.780   0.094  0.00  0.00    +0.000 NA
ATOM     23  H   UNL     1       1.979   2.730  -0.266  0.00  0.00    +0.000 HD
BRANCH  20  24
ATOM     24  C   UNL     1       5.374   7.025   2.043  0.00  0.00    +0.000 C 
ATOM     25  N   UNL     1       5.245   8.232   1.415  0.00  0.00    +0.000 N 
ATOM     26  O   UNL     1       6.035   6.916   3.067  0.00  0.00    +0.000 OA
ATOM     27  H   UNL     1       4.935   8.336   0.459  0.00  0.00    +0.000 HD
ATOM     28  H   UNL     1       5.797   8.988   1.805  0.00  0.00    +0.000 HD
ENDBRANCH  20  24
ENDBRANCH  15  16
ENDBRANCH   2  15
TORSDOF 7
