REMARK  Name = 
REMARK  5 active torsions:
REMARK  status: ('A' for Active; 'I' for Inactive)
REMARK    1  A    between atoms: C_1  and  C_2
REMARK    2  A    between atoms: C_2  and  O_3
REMARK    3  A    between atoms: C_2  and  C_13
REMARK    4  A    between atoms: O_3  and  C_4
REMARK    5  A    between atoms: C_7  and  C_8
REMARK                            x       y       z     vdW  Elec       q    Type
REMARK                         _______ _______ _______ _____ _____    ______ ____
ROOT
ATOM      1  C   UNL     1       2.305  -1.311  -2.086  0.00  0.00    +0.000 A 
ATOM      2  C   UNL     1       1.998  -1.259  -3.434  0.00  0.00    +0.000 A 
ATOM      3  C   UNL     1       1.747  -2.448  -4.110  0.00  0.00    +0.000 A 
ATOM      4  C   UNL     1       1.848  -3.636  -3.405  0.00  0.00    +0.000 A 
ATOM      5  N   UNL     1       2.160  -3.665  -2.083  0.00  0.00    +0.000 NA
ATOM      6  N   UNL     1       2.391  -2.479  -1.412  0.00  0.00    +0.000 NA
ENDROOT
BRANCH   4   7
ATOM      7  C   UNL     1       1.642  -4.937  -4.104  0.00  0.00    +0.000 C 
ATOM      8  N   UNL     1       1.803  -6.078  -3.360  0.00  0.00    +0.000 N 
ATOM      9  O   UNL     1       1.354  -5.000  -5.296  0.00  0.00    +0.000 OA
ATOM     10  H   UNL     1       2.060  -6.034  -2.381  0.00  0.00    +0.000 HD
ATOM     11  H   UNL     1       1.699  -6.975  -3.814  0.00  0.00    +0.000 HD
ENDBRANCH   4   7
BRANCH   1  12
ATOM     12  O   UNL     1       2.595  -0.109  -1.483  0.00  0.00    +0.000 OA
BRANCH  12  14
ATOM     13  C   UNL     1       0.864  -0.092   0.245  0.00  0.00    +0.000 C 
ATOM     14  C   UNL     1       2.363  -0.032  -0.069  0.00  0.00    +0.000 C 
BRANCH  14  15
ATOM     15  C   UNL     1       2.934   1.315   0.377  0.00  0.00    +0.000 A 
ATOM     16  C   UNL     1       4.247   1.408   0.839  0.00  0.00    +0.000 A 
ATOM     17  C   UNL     1       4.759   2.660   1.180  0.00  0.00    +0.000 A 
ATOM     18  C   UNL     1       3.956   3.786   1.054  0.00  0.00    +0.000 A 
ATOM     19  C   UNL     1       2.664   3.614   0.593  0.00  0.00    +0.000 A 
ATOM     20  N   UNL     1       2.143   2.416   0.250  0.00  0.00    +0.000 NA
ENDBRANCH  14  15
ENDBRANCH  12  14
ENDBRANCH   1  12
TORSDOF 4
