REMARK  Name = 
REMARK  6 active torsions:
REMARK  status: ('A' for Active; 'I' for Inactive)
REMARK    1  A    between atoms: C_2  and  C_19
REMARK    2  A    between atoms: N_3  and  C_4
REMARK    3  A    between atoms: C_4  and  C_5
REMARK    4  A    between atoms: C_8  and  C_9
REMARK    5  A    between atoms: C_9  and  O_10
REMARK    6  A    between atoms: C_9  and  C_11
REMARK                            x       y       z     vdW  Elec       q    Type
REMARK                         _______ _______ _______ _____ _____    ______ ____
ROOT
ATOM      1  C   UNL     1       6.883 -10.052  -2.791  0.00  0.00    +0.000 C 
ENDROOT
BRANCH   1   2
ATOM      2  C   UNL     1       6.477  -9.234  -1.585  0.00  0.00    +0.000 A 
ATOM      3  N   UNL     1       6.976  -9.587  -0.386  0.00  0.00    +0.000 NA
ATOM      4  C   UNL     1       6.679  -8.782   0.651  0.00  0.00    +0.000 A 
ATOM      5  C   UNL     1       5.922  -7.635   0.538  0.00  0.00    +0.000 A 
ATOM      6  C   UNL     1       5.373  -7.426  -0.712  0.00  0.00    +0.000 A 
ATOM      7  N   UNL     1       5.627  -8.205  -1.783  0.00  0.00    +0.000 NA
BRANCH   5   8
ATOM      8  C   UNL     1       5.770  -6.668   1.674  0.00  0.00    +0.000 C 
BRANCH   8   9
ATOM      9  C   UNL     1       6.317  -5.261   1.425  0.00  0.00    +0.000 A 
ATOM     10  C   UNL     1       5.852  -4.176   2.190  0.00  0.00    +0.000 A 
ATOM     11  C   UNL     1       6.384  -2.895   2.026  0.00  0.00    +0.000 A 
ATOM     12  C   UNL     1       7.411  -2.676   1.113  0.00  0.00    +0.000 A 
ATOM     13  C   UNL     1       7.904  -3.737   0.360  0.00  0.00    +0.000 A 
ATOM     14  C   UNL     1       7.367  -5.018   0.518  0.00  0.00    +0.000 A 
ENDBRANCH   8   9
BRANCH   8  15
ATOM     15  O   UNL     1       4.384  -6.670   2.015  0.00  0.00    +0.000 OA
ATOM     16  H   UNL     1       4.001  -5.827   1.726  0.00  0.00    +0.000 HD
ENDBRANCH   8  15
ENDBRANCH   5   8
ENDBRANCH   1   2
BRANCH   1  19
ATOM     17  O   UNL     1       7.182 -12.101  -4.717  0.00  0.00    +0.000 OA
ATOM     18  C   UNL     1       6.131 -11.987  -4.100  0.00  0.00    +0.000 C 
ATOM     19  N   UNL     1       5.909 -11.074  -3.102  0.00  0.00    +0.000 N 
ATOM     20  H   UNL     1       4.959 -10.852  -2.852  0.00  0.00    +0.000 HD
BRANCH  18  21
ATOM     21  C   UNL     1       4.894 -12.650  -4.481  0.00  0.00    +0.000 A 
ATOM     22  C   UNL     1       4.509 -12.801  -5.801  0.00  0.00    +0.000 A 
ATOM     23  S   UNL     1       2.820 -13.063  -5.934  0.00  0.00    +0.000 S 
ATOM     24  C   UNL     1       2.636 -13.141  -4.241  0.00  0.00    +0.000 A 
ATOM     25  N   UNL     1       1.421 -13.199  -3.637  0.00  0.00    +0.000 NA
ATOM     26  C   UNL     1       1.474 -13.311  -2.349  0.00  0.00    +0.000 A 
ATOM     27  N   UNL     1       2.630 -13.408  -1.612  0.00  0.00    +0.000 N 
ATOM     28  C   UNL     1       3.889 -13.347  -2.178  0.00  0.00    +0.000 A 
ATOM     29  O   UNL     1       4.905 -13.516  -1.516  0.00  0.00    +0.000 OA
ATOM     30  C   UNL     1       3.861 -13.105  -3.593  0.00  0.00    +0.000 A 
ATOM     31  H   UNL     1       2.600 -13.591  -0.618  0.00  0.00    +0.000 HD
ENDBRANCH  18  21
ENDBRANCH   1  19
TORSDOF 6
