REMARK  Name = 
REMARK  8 active torsions:
REMARK  status: ('A' for Active; 'I' for Inactive)
REMARK    1  A    between atoms: C_1  and  C_2
REMARK    2  A    between atoms: C_2  and  N_3
REMARK    3  A    between atoms: C_2  and  C_25
REMARK    4  A    between atoms: N_3  and  C_4
REMARK    5  A    between atoms: C_4  and  C_5
REMARK    6  A    between atoms: C_8  and  C_9
REMARK    7  A    between atoms: C_9  and  N_10
REMARK    8  A    between atoms: C_11  and  C_13
REMARK                            x       y       z     vdW  Elec       q    Type
REMARK                         _______ _______ _______ _____ _____    ______ ____
ROOT
ATOM      1  C   UNL     1      -1.010   0.616   1.205  0.00  0.00    +0.000 A 
ATOM      2  C   UNL     1      -1.709  -0.542   1.539  0.00  0.00    +0.000 A 
ATOM      3  C   UNL     1      -3.101  -0.531   1.532  0.00  0.00    +0.000 A 
ATOM      4  C   UNL     1      -3.768   0.640   1.171  0.00  0.00    +0.000 A 
ATOM      5  N   UNL     1      -3.107   1.779   0.846  0.00  0.00    +0.000 NA
ATOM      6  C   UNL     1      -1.755   1.740   0.863  0.00  0.00    +0.000 A 
ENDROOT
BRANCH   1   7
ATOM      7  C   UNL     1       0.490   0.638   1.158  0.00  0.00    +0.000 C 
BRANCH   7   8
ATOM      8  N   UNL     1       1.044   1.619   2.085  0.00  0.00    +0.000 NA
ATOM      9  H   UNL     1       0.724   1.400   3.032  0.00  0.00    +0.000 HD
BRANCH   8  11
ATOM     10  C   UNL     1       3.074   1.918   0.678  0.00  0.00    +0.000 C 
ATOM     11  C   UNL     1       2.516   1.651   2.085  0.00  0.00    +0.000 C 
BRANCH  11  12
ATOM     12  C   UNL     1       3.009   2.708   3.056  0.00  0.00    +0.000 A 
ATOM     13  C   UNL     1       2.648   4.056   2.928  0.00  0.00    +0.000 A 
ATOM     14  C   UNL     1       3.136   5.000   3.827  0.00  0.00    +0.000 A 
ATOM     15  C   UNL     1       3.973   4.568   4.841  0.00  0.00    +0.000 A 
ATOM     16  N   UNL     1       4.341   3.280   5.009  0.00  0.00    +0.000 NA
ATOM     17  C   UNL     1       3.852   2.383   4.117  0.00  0.00    +0.000 A 
ENDBRANCH  11  12
ENDBRANCH   8  11
ENDBRANCH   7   8
ENDBRANCH   1   7
BRANCH   4  18
ATOM     18  C   UNL     1      -5.278   0.686   1.171  0.00  0.00    +0.000 C 
BRANCH  18  19
ATOM     19  N   UNL     1      -5.793   1.106   2.454  0.00  0.00    +0.000 N 
ATOM     20  C   UNL     1      -7.006   0.684   2.930  0.00  0.00    +0.000 C 
ATOM     21  O   UNL     1      -7.699  -0.132   2.330  0.00  0.00    +0.000 OA
ATOM     22  H   UNL     1      -5.389   1.965   2.818  0.00  0.00    +0.000 HD
BRANCH  20  23
ATOM     23  C   UNL     1      -7.398   1.200   4.248  0.00  0.00    +0.000 A 
ATOM     24  C   UNL     1      -8.259   0.464   5.051  0.00  0.00    +0.000 A 
ATOM     25  S   UNL     1      -8.567   1.187   6.565  0.00  0.00    +0.000 S 
ATOM     26  C   UNL     1      -7.598   2.533   6.182  0.00  0.00    +0.000 A 
ATOM     27  N   UNL     1      -7.451   3.561   7.056  0.00  0.00    +0.000 NA
ATOM     28  C   UNL     1      -6.711   4.529   6.625  0.00  0.00    +0.000 A 
ATOM     29  N   UNL     1      -6.098   4.551   5.397  0.00  0.00    +0.000 N 
ATOM     30  C   UNL     1      -6.193   3.524   4.493  0.00  0.00    +0.000 A 
ATOM     31  O   UNL     1      -5.595   3.557   3.423  0.00  0.00    +0.000 OA
ATOM     32  C   UNL     1      -7.030   2.418   4.924  0.00  0.00    +0.000 A 
ATOM     33  H   UNL     1      -5.519   5.331   5.123  0.00  0.00    +0.000 HD
ENDBRANCH  20  23
ENDBRANCH  18  19
ENDBRANCH   4  18
TORSDOF 7
