REMARK  Name = 
REMARK  11 active torsions:
REMARK  status: ('A' for Active; 'I' for Inactive)
REMARK    1  A    between atoms: C_1  and  C_2
REMARK    2  A    between atoms: C_3  and  N_4
REMARK    3  A    between atoms: N_4  and  C_5
REMARK    4  A    between atoms: C_5  and  C_6
REMARK    5  A    between atoms: C_6  and  C_9
REMARK    6  A    between atoms: N_14  and  C_15
REMARK    7  A    between atoms: C_23  and  C_24
REMARK    8  A    between atoms: C_25  and  C_26
REMARK    9  A    between atoms: C_26  and  C_27
REMARK   10  A    between atoms: C_26  and  C_28
REMARK   11  A    between atoms: C_26  and  C_29
REMARK                            x       y       z     vdW  Elec       q    Type
REMARK                         _______ _______ _______ _____ _____    ______ ____
ROOT
ATOM      1  N   UNL     1       0.974   2.572   0.058  0.00  0.00    +0.000 N 
ATOM      2  H   UNL     1       1.802   2.614  -0.536  0.00  0.00    +0.000 HD
ENDROOT
BRANCH   1   5
ATOM      3  C   UNL     1       2.496  -0.001   0.003  0.00  0.00    +0.000 C 
ATOM      4  C   UNL     1       0.992   0.080  -0.001  0.00  0.00    +0.000 A 
ATOM      5  C   UNL     1       0.303   1.323  -0.008  0.00  0.00    +0.000 A 
ATOM      6  C   UNL     1      -1.101   1.276   0.035  0.00  0.00    +0.000 A 
ATOM      7  C   UNL     1      -1.761   0.071   0.028  0.00  0.00    +0.000 A 
ATOM      8  N   UNL     1      -1.134  -1.106   0.019  0.00  0.00    +0.000 NA
ATOM      9  C   UNL     1       0.223  -1.113   0.023  0.00  0.00    +0.000 A 
BRANCH   9  10
ATOM     10  C   UNL     1       0.784  -2.493   0.056  0.00  0.00    +0.000 C 
ATOM     11  C   UNL     1      -0.005  -3.591   0.073  0.00  0.00    +0.000 C 
BRANCH  11  12
ATOM     12  C   UNL     1       0.366  -5.070   0.045  0.00  0.00    +0.000 C 
ATOM     13  C   UNL     1      -0.210  -5.682  -1.247  0.00  0.00    +0.000 C 
ATOM     14  C   UNL     1       1.884  -5.316   0.065  0.00  0.00    +0.000 C 
BRANCH  12  15
ATOM     15  C   UNL     1      -0.257  -5.797   1.271  0.00  0.00    +0.000 C 
ATOM     16  N   UNL     1      -1.620  -5.827   1.358  0.00  0.00    +0.000 N 
ATOM     17  O   UNL     1       0.403  -6.365   2.140  0.00  0.00    +0.000 OA
ATOM     18  H   UNL     1      -2.216  -5.222   0.810  0.00  0.00    +0.000 HD
ATOM     19  H   UNL     1      -2.010  -6.254   2.188  0.00  0.00    +0.000 HD
ENDBRANCH  12  15
ENDBRANCH  11  12
ENDBRANCH   9  10
ENDBRANCH   1   5
BRANCH   1  20
ATOM     20  C   UNL     1       0.121   3.797  -0.021  0.00  0.00    +0.000 C 
BRANCH  20  21
ATOM     21  C   UNL     1       0.820   5.175  -0.080  0.00  0.00    +0.000 C 
ATOM     22  F   UNL     1       1.665   5.307   0.985  0.00  0.00    +0.000 F 
ATOM     23  F   UNL     1       1.630   5.198  -1.185  0.00  0.00    +0.000 F 
BRANCH  21  24
ATOM     24  C   UNL     1      -0.219   6.306  -0.121  0.00  0.00    +0.000 A 
ATOM     25  C   UNL     1       0.214   7.613  -0.229  0.00  0.00    +0.000 A 
ATOM     26  C   UNL     1      -0.769   8.571  -0.301  0.00  0.00    +0.000 A 
ATOM     27  N   UNL     1      -2.088   8.293  -0.282  0.00  0.00    +0.000 NA
ATOM     28  C   UNL     1      -2.433   7.010  -0.166  0.00  0.00    +0.000 A 
ATOM     29  N   UNL     1      -3.803   6.749  -0.171  0.00  0.00    +0.000 N 
ATOM     30  N   UNL     1      -1.548   6.005  -0.067  0.00  0.00    +0.000 NA
ATOM     31  H   UNL     1      -4.260   7.653  -0.112  0.00  0.00    +0.000 HD
BRANCH  29  32
ATOM     32  C   UNL     1      -4.423   5.709   0.593  0.00  0.00    +0.000 C 
ATOM     33  C   UNL     1      -4.137   4.277   0.106  0.00  0.00    +0.000 C 
ATOM     34  N   UNL     1      -5.583   3.970   0.189  0.00  0.00    +0.000 NA
ATOM     35  C   UNL     1      -5.877   5.420   0.156  0.00  0.00    +0.000 C 
ATOM     36  H   UNL     1      -5.857   3.521   1.062  0.00  0.00    +0.000 HD
ENDBRANCH  29  32
ENDBRANCH  21  24
ENDBRANCH  20  21
ENDBRANCH   1  20
TORSDOF 8
