REMARK  Name = 
REMARK  7 active torsions:
REMARK  status: ('A' for Active; 'I' for Inactive)
REMARK    1  A    between atoms: C_1  and  C_2
REMARK    2  A    between atoms: C_2  and  C_3
REMARK    3  A    between atoms: C_2  and  C_4
REMARK    4  A    between atoms: C_2  and  C_15
REMARK    5  A    between atoms: C_4  and  O_5
REMARK    6  A    between atoms: O_5  and  C_6
REMARK    7  A    between atoms: C_9  and  C_10
REMARK                            x       y       z     vdW  Elec       q    Type
REMARK                         _______ _______ _______ _____ _____    ______ ____
ROOT
ATOM      1  O   UNL     1       4.429   1.632   0.049  0.00  0.00    +0.000 OA
ENDROOT
BRANCH   1   2
ATOM      2  C   UNL     1       5.002   2.871   0.128  0.00  0.00    +0.000 A 
ATOM      3  C   UNL     1       4.325   4.086   0.157  0.00  0.00    +0.000 A 
ATOM      4  C   UNL     1       5.045   5.278   0.258  0.00  0.00    +0.000 A 
ATOM      5  C   UNL     1       6.430   5.210   0.321  0.00  0.00    +0.000 A 
ATOM      6  N   UNL     1       7.133   4.046   0.288  0.00  0.00    +0.000 NA
ATOM      7  C   UNL     1       6.394   2.912   0.192  0.00  0.00    +0.000 A 
BRANCH   5   8
ATOM      8  C   UNL     1       7.219   6.478   0.443  0.00  0.00    +0.000 C 
ATOM      9  N   UNL     1       8.574   6.324   0.507  0.00  0.00    +0.000 N 
ATOM     10  O   UNL     1       6.693   7.583   0.485  0.00  0.00    +0.000 OA
ATOM     11  H   UNL     1       8.974   5.393   0.474  0.00  0.00    +0.000 HD
ATOM     12  H   UNL     1       9.172   7.133   0.597  0.00  0.00    +0.000 HD
ENDBRANCH   5   8
ENDBRANCH   1   2
BRANCH   1  13
ATOM     13  C   UNL     1       2.999   1.592  -0.000  0.00  0.00    +0.000 C 
BRANCH  13  15
ATOM     14  C   UNL     1       0.947   0.167  -0.104  0.00  0.00    +0.000 C 
ATOM     15  C   UNL     1       2.490   0.122  -0.052  0.00  0.00    +0.000 C 
ATOM     16  C   UNL     1       2.988  -0.502  -1.376  0.00  0.00    +0.000 C 
BRANCH  15  17
ATOM     17  C   UNL     1       3.019  -0.709   1.180  0.00  0.00    +0.000 C 
ATOM     18  C   UNL     1       2.558  -2.184   1.185  0.00  0.00    +0.000 C 
ATOM     19  C   UNL     1       3.014  -2.918   2.441  0.00  0.00    +0.000 C 
ATOM     20  O   UNL     1       2.568  -2.244   3.613  0.00  0.00    +0.000 OA
ATOM     21  C   UNL     1       3.123  -0.936   3.711  0.00  0.00    +0.000 C 
ATOM     22  C   UNL     1       2.665  -0.072   2.543  0.00  0.00    +0.000 C 
ENDBRANCH  15  17
ENDBRANCH  13  15
ENDBRANCH   1  13
TORSDOF 5
