REMARK  Name = 
REMARK  6 active torsions:
REMARK  status: ('A' for Active; 'I' for Inactive)
REMARK    1  A    between atoms: N_1  and  C_2
REMARK    2  A    between atoms: C_2  and  C_3
REMARK    3  A    between atoms: C_6  and  N_7
REMARK    4  A    between atoms: C_11  and  C_12
REMARK    5  A    between atoms: C_12  and  N_13
REMARK    6  A    between atoms: C_14  and  C_16
REMARK                            x       y       z     vdW  Elec       q    Type
REMARK                         _______ _______ _______ _____ _____    ______ ____
ROOT
ATOM      1  N   UNL     1       3.145   5.510   1.578  0.00  0.00    +0.000 N 
ATOM      2  C   UNL     1       2.928   6.102   2.834  0.00  0.00    +0.000 A 
ATOM      3  C   UNL     1       3.387   5.429   3.962  0.00  0.00    +0.000 A 
ATOM      4  C   UNL     1       3.166   5.972   5.229  0.00  0.00    +0.000 A 
ATOM      5  C   UNL     1       2.555   7.218   5.345  0.00  0.00    +0.000 A 
ATOM      6  C   UNL     1       2.165   7.836   4.163  0.00  0.00    +0.000 A 
ATOM      7  N   UNL     1       2.335   7.307   2.926  0.00  0.00    +0.000 NA
ATOM      8  H   UNL     1       4.099   5.743   1.311  0.00  0.00    +0.000 HD
ENDROOT
BRANCH   1  12
ATOM      9  C   UNL     1       0.240   4.458  -1.365  0.00  0.00    +0.000 C 
ATOM     10  C   UNL     1      -0.230   5.344  -0.209  0.00  0.00    +0.000 C 
ATOM     11  C   UNL     1       0.770   5.372   0.938  0.00  0.00    +0.000 C 
ATOM     12  C   UNL     1       2.175   5.844   0.518  0.00  0.00    +0.000 C 
ATOM     13  C   UNL     1       2.654   5.155  -0.781  0.00  0.00    +0.000 C 
ATOM     14  C   UNL     1       1.587   4.999  -1.868  0.00  0.00    +0.000 C 
BRANCH   9  15
ATOM     15  C   UNL     1       0.305   2.954  -1.012  0.00  0.00    +0.000 C 
BRANCH  15  16
ATOM     16  N   UNL     1      -0.991   2.390  -0.635  0.00  0.00    +0.000 NA
ATOM     17  H   UNL     1      -1.244   2.691   0.305  0.00  0.00    +0.000 HD
ATOM     18  H   UNL     1      -1.721   2.742  -1.254  0.00  0.00    +0.000 HD
ENDBRANCH  15  16
ENDBRANCH   9  15
ENDBRANCH   1  12
BRANCH   5  19
ATOM     19  C   UNL     1       2.331   7.868   6.679  0.00  0.00    +0.000 C 
BRANCH  19  20
ATOM     20  N   UNL     1       1.042   7.549   7.247  0.00  0.00    +0.000 N 
ATOM     21  C   UNL     1       0.635   8.146   8.413  0.00  0.00    +0.000 C 
ATOM     22  O   UNL     1       1.320   8.996   8.979  0.00  0.00    +0.000 OA
ATOM     23  H   UNL     1       0.585   6.694   6.939  0.00  0.00    +0.000 HD
BRANCH  21  24
ATOM     24  C   UNL     1      -0.686   7.768   8.938  0.00  0.00    +0.000 A 
ATOM     25  C   UNL     1      -1.374   8.647   9.764  0.00  0.00    +0.000 A 
ATOM     26  S   UNL     1      -2.891   8.064  10.279  0.00  0.00    +0.000 S 
ATOM     27  C   UNL     1      -2.667   6.596   9.449  0.00  0.00    +0.000 A 
ATOM     28  N   UNL     1      -3.603   5.611   9.510  0.00  0.00    +0.000 NA
ATOM     29  C   UNL     1      -3.293   4.542   8.856  0.00  0.00    +0.000 A 
ATOM     30  N   UNL     1      -2.134   4.373   8.138  0.00  0.00    +0.000 N 
ATOM     31  C   UNL     1      -1.176   5.352   8.027  0.00  0.00    +0.000 A 
ATOM     32  O   UNL     1      -0.171   5.192   7.336  0.00  0.00    +0.000 OA
ATOM     33  C   UNL     1      -1.464   6.564   8.763  0.00  0.00    +0.000 A 
ATOM     34  H   UNL     1      -1.960   3.515   7.639  0.00  0.00    +0.000 HD
ENDBRANCH  21  24
ENDBRANCH  19  20
ENDBRANCH   5  19
TORSDOF 6
