REMARK  Name = 
REMARK  9 active torsions:
REMARK  status: ('A' for Active; 'I' for Inactive)
REMARK    1  A    between atoms: C_1  and  O_2
REMARK    2  A    between atoms: O_2  and  C_3
REMARK    3  A    between atoms: C_10  and  C_11
REMARK    4  A    between atoms: N_13  and  C_14
REMARK    5  A    between atoms: C_14  and  C_15
REMARK    6  A    between atoms: C_18  and  N_19
REMARK    7  A    between atoms: N_19  and  C_20
REMARK    8  A    between atoms: C_20  and  C_21
REMARK    9  A    between atoms: C_21  and  O_22
REMARK                            x       y       z     vdW  Elec       q    Type
REMARK                         _______ _______ _______ _____ _____    ______ ____
ROOT
ATOM      1  C   UNL     1       4.633  -0.713   4.462  0.00  0.00    +0.000 C 
ENDROOT
BRANCH   1   2
ATOM      2  C   UNL     1       5.518  -1.182   5.591  0.00  0.00    +0.000 A 
ATOM      3  C   UNL     1       6.385  -0.276   6.192  0.00  0.00    +0.000 A 
ATOM      4  C   UNL     1       7.227  -0.682   7.226  0.00  0.00    +0.000 A 
ATOM      5  C   UNL     1       7.201  -1.990   7.737  0.00  0.00    +0.000 A 
ATOM      6  C   UNL     1       6.382  -2.914   7.079  0.00  0.00    +0.000 A 
ATOM      7  C   UNL     1       5.537  -2.512   6.028  0.00  0.00    +0.000 A 
BRANCH   5   8
ATOM      8  N   UNL     1       8.037  -2.413   8.813  0.00  0.00    +0.000 N 
ATOM      9  H   UNL     1       7.677  -3.289   9.194  0.00  0.00    +0.000 HD
BRANCH   8  10
ATOM     10  C   UNL     1       8.255  -1.354   9.789  0.00  0.00    +0.000 C 
BRANCH  10  11
ATOM     11  C   UNL     1       9.207  -1.687  10.940  0.00  0.00    +0.000 C 
BRANCH  11  12
ATOM     12  O   UNL     1       9.337  -0.553  11.797  0.00  0.00    +0.000 OA
ATOM     13  C   UNL     1       9.902   0.643  11.269  0.00  0.00    +0.000 C 
ATOM     14  C   UNL     1      11.417   0.596  11.414  0.00  0.00    +0.000 C 
ATOM     15  O   UNL     1      11.738   0.443  12.796  0.00  0.00    +0.000 OA
ATOM     16  C   UNL     1      11.185  -0.758  13.343  0.00  0.00    +0.000 C 
ATOM     17  C   UNL     1       9.668  -0.803  13.153  0.00  0.00    +0.000 C 
ENDBRANCH  11  12
ENDBRANCH  10  11
ENDBRANCH   8  10
ENDBRANCH   5   8
ENDBRANCH   1   2
BRANCH   1  20
ATOM     18  C   UNL     1       6.054   0.286   2.704  0.00  0.00    +0.000 C 
ATOM     19  O   UNL     1       6.096   1.376   3.271  0.00  0.00    +0.000 OA
ATOM     20  N   UNL     1       5.320  -0.764   3.195  0.00  0.00    +0.000 N 
ATOM     21  H   UNL     1       5.432  -1.673   2.766  0.00  0.00    +0.000 HD
BRANCH  18  29
ATOM     22  C   UNL     1       7.325  -2.509   1.282  0.00  0.00    +0.000 A 
ATOM     23  N   UNL     1       7.884  -3.489   0.534  0.00  0.00    +0.000 NA
ATOM     24  C   UNL     1       8.431  -3.186  -0.652  0.00  0.00    +0.000 A 
ATOM     25  C   UNL     1       8.466  -1.916  -1.182  0.00  0.00    +0.000 A 
ATOM     26  C   UNL     1       7.877  -0.907  -0.409  0.00  0.00    +0.000 A 
ATOM     27  S   UNL     1       7.793   0.754  -0.834  0.00  0.00    +0.000 S 
ATOM     28  C   UNL     1       7.003   1.153   0.610  0.00  0.00    +0.000 A 
ATOM     29  C   UNL     1       6.749   0.063   1.427  0.00  0.00    +0.000 A 
ATOM     30  C   UNL     1       7.279  -1.167   0.833  0.00  0.00    +0.000 A 
BRANCH  22  32
ATOM     31  C   UNL     1       7.285  -4.073   3.013  0.00  0.00    +0.000 C 
ATOM     32  O   UNL     1       6.749  -2.863   2.485  0.00  0.00    +0.000 OA
ENDBRANCH  22  32
ENDBRANCH  18  29
ENDBRANCH   1  20
TORSDOF 8
