REMARK  Name = 
REMARK  8 active torsions:
REMARK  status: ('A' for Active; 'I' for Inactive)
REMARK    1  A    between atoms: C_1  and  C_2
REMARK    2  A    between atoms: C_2  and  C_3
REMARK    3  A    between atoms: C_2  and  C_4
REMARK    4  A    between atoms: C_2  and  C_5
REMARK    5  A    between atoms: C_9  and  N_10
REMARK    6  A    between atoms: N_10  and  C_11
REMARK    7  A    between atoms: C_11  and  C_12
REMARK    8  A    between atoms: C_17  and  C_18
REMARK                            x       y       z     vdW  Elec       q    Type
REMARK                         _______ _______ _______ _____ _____    ______ ____
ROOT
ATOM      1  C   UNL     1       4.760  -0.699  -5.797  0.00  0.00    +0.000 C 
ENDROOT
BRANCH   1   2
ATOM      2  C   UNL     1       5.088  -1.969  -6.539  0.00  0.00    +0.000 A 
ATOM      3  C   UNL     1       6.399  -2.459  -6.585  0.00  0.00    +0.000 A 
ATOM      4  C   UNL     1       6.690  -3.598  -7.332  0.00  0.00    +0.000 A 
ATOM      5  F   UNL     1       7.953  -4.041  -7.385  0.00  0.00    +0.000 F 
ATOM      6  C   UNL     1       5.700  -4.280  -8.030  0.00  0.00    +0.000 A 
ATOM      7  C   UNL     1       4.383  -3.815  -7.976  0.00  0.00    +0.000 A 
ATOM      8  C   UNL     1       4.083  -2.668  -7.226  0.00  0.00    +0.000 A 
BRANCH   7   9
ATOM      9  C   UNL     1       3.294  -4.522  -8.653  0.00  0.00    +0.000 C 
ATOM     10  C   UNL     1       2.613  -5.485  -8.009  0.00  0.00    +0.000 C 
ATOM     11  C   UNL     1       1.401  -6.140  -8.599  0.00  0.00    +0.000 C 
ATOM     12  O   UNL     1       0.887  -5.417  -9.723  0.00  0.00    +0.000 OA
ATOM     13  C   UNL     1       1.916  -5.086 -10.658  0.00  0.00    +0.000 C 
ATOM     14  C   UNL     1       2.899  -4.089 -10.038  0.00  0.00    +0.000 C 
ENDBRANCH   7   9
ENDBRANCH   1   2
BRANCH   1  15
ATOM     15  N   UNL     1       4.445  -0.952  -4.413  0.00  0.00    +0.000 N 
ATOM     16  H   UNL     1       4.406  -1.898  -4.054  0.00  0.00    +0.000 HD
BRANCH  15  21
ATOM     17  C   UNL     1       3.507   0.559  -1.342  0.00  0.00    +0.000 A 
ATOM     18  N   UNL     1       3.459   1.881  -1.599  0.00  0.00    +0.000 NA
ATOM     19  C   UNL     1       3.745   2.256  -2.851  0.00  0.00    +0.000 A 
ATOM     20  C   UNL     1       4.077   1.372  -3.847  0.00  0.00    +0.000 A 
ATOM     21  C   UNL     1       4.111   0.033  -3.514  0.00  0.00    +0.000 A 
ATOM     22  N   UNL     1       3.824  -0.377  -2.265  0.00  0.00    +0.000 NA
BRANCH  17  24
ATOM     23  C   UNL     1       1.704   0.542   0.384  0.00  0.00    +0.000 C 
ATOM     24  C   UNL     1       3.157   0.127   0.081  0.00  0.00    +0.000 C 
ATOM     25  C   UNL     1       4.103   0.824   1.077  0.00  0.00    +0.000 C 
ATOM     26  C   UNL     1       3.282  -1.395   0.278  0.00  0.00    +0.000 C 
ENDBRANCH  17  24
ENDBRANCH  15  21
ENDBRANCH   1  15
TORSDOF 5
