REMARK  Name = 
REMARK  7 active torsions:
REMARK  status: ('A' for Active; 'I' for Inactive)
REMARK    1  A    between atoms: C_1  and  C_2
REMARK    2  A    between atoms: C_2  and  C_3
REMARK    3  A    between atoms: C_2  and  C_14
REMARK    4  A    between atoms: C_3  and  N_4
REMARK    5  A    between atoms: N_4  and  C_5
REMARK    6  A    between atoms: C_8  and  C_9
REMARK    7  A    between atoms: C_18  and  C_19
REMARK                            x       y       z     vdW  Elec       q    Type
REMARK                         _______ _______ _______ _____ _____    ______ ____
ROOT
ATOM      1  N   UNL     1       2.821  -0.133  -2.439  0.00  0.00    +0.000 N 
ATOM      2  H   UNL     1       1.817  -0.281  -2.519  0.00  0.00    +0.000 HD
ENDROOT
BRANCH   1   3
ATOM      3  C   UNL     1       3.364   0.322  -3.648  0.00  0.00    +0.000 A 
ATOM      4  C   UNL     1       2.695   0.053  -4.848  0.00  0.00    +0.000 A 
ATOM      5  C   UNL     1       3.234   0.465  -6.067  0.00  0.00    +0.000 A 
ATOM      6  C   UNL     1       4.460   1.113  -6.054  0.00  0.00    +0.000 A 
ATOM      7  N   UNL     1       5.179   1.349  -4.925  0.00  0.00    +0.000 NA
ATOM      8  C   UNL     1       4.618   0.927  -3.767  0.00  0.00    +0.000 A 
BRANCH   6   9
ATOM      9  C   UNL     1       5.065   1.598  -7.334  0.00  0.00    +0.000 C 
ATOM     10  N   UNL     1       6.271   2.233  -7.201  0.00  0.00    +0.000 N 
ATOM     11  O   UNL     1       4.526   1.455  -8.421  0.00  0.00    +0.000 OA
ATOM     12  H   UNL     1       6.683   2.327  -6.279  0.00  0.00    +0.000 HD
ATOM     13  H   UNL     1       6.744   2.590  -8.018  0.00  0.00    +0.000 HD
ENDBRANCH   6   9
ENDBRANCH   1   3
BRANCH   1  14
ATOM     14  C   UNL     1       3.155   0.627  -1.236  0.00  0.00    +0.000 C 
BRANCH  14  16
ATOM     15  C   UNL     1       2.846  -1.288   0.450  0.00  0.00    +0.000 C 
ATOM     16  C   UNL     1       2.387   0.027  -0.099  0.00  0.00    +0.000 C 
BRANCH  16  17
ATOM     17  C   UNL     1       1.007   0.477   0.128  0.00  0.00    +0.000 A 
ATOM     18  C   UNL     1       0.716   1.827   0.359  0.00  0.00    +0.000 A 
ATOM     19  C   UNL     1      -0.607   2.254   0.499  0.00  0.00    +0.000 A 
ATOM     20  C   UNL     1      -1.650   1.334   0.401  0.00  0.00    +0.000 A 
ATOM     21  C   UNL     1      -1.370  -0.016   0.183  0.00  0.00    +0.000 A 
ATOM     22  C   UNL     1      -0.045  -0.443   0.058  0.00  0.00    +0.000 A 
BRANCH  21  23
ATOM     23  C   UNL     1      -2.434  -0.965   0.061  0.00  0.00    +0.000 C 
ATOM     24  N   UNL     1      -3.286  -1.743  -0.054  0.00  0.00    +0.000 NA
ENDBRANCH  21  23
ENDBRANCH  16  17
ENDBRANCH  14  16
ENDBRANCH   1  14
TORSDOF 6
