REMARK  Name = 
REMARK  10 active torsions:
REMARK  status: ('A' for Active; 'I' for Inactive)
REMARK    1  A    between atoms: C_1  and  C_2
REMARK    2  A    between atoms: C_2  and  C_3
REMARK    3  A    between atoms: C_5  and  O_6
REMARK    4  A    between atoms: O_6  and  C_7
REMARK    5  A    between atoms: C_9  and  C_10
REMARK    6  A    between atoms: C_10  and  C_11
REMARK    7  A    between atoms: C_11  and  N_12
REMARK    8  A    between atoms: C_16  and  C_17
REMARK    9  A    between atoms: C_27  and  C_28
REMARK   10  A    between atoms: C_27  and  C_29
REMARK                            x       y       z     vdW  Elec       q    Type
REMARK                         _______ _______ _______ _____ _____    ______ ____
ROOT
ATOM      1  C   UNL     1       6.421  -1.019   0.710  0.00  0.00    +0.000 A 
ATOM      2  C   UNL     1       6.226  -2.403   0.683  0.00  0.00    +0.000 A 
ATOM      3  C   UNL     1       7.278  -3.293   0.953  0.00  0.00    +0.000 A 
ATOM      4  C   UNL     1       8.539  -2.756   1.256  0.00  0.00    +0.000 A 
ATOM      5  C   UNL     1       8.726  -1.374   1.293  0.00  0.00    +0.000 A 
ATOM      6  F   UNL     1       9.947  -0.892   1.573  0.00  0.00    +0.000 F 
ATOM      7  C   UNL     1       7.673  -0.503   1.031  0.00  0.00    +0.000 A 
ATOM      8  F   UNL     1       7.885   0.820   1.059  0.00  0.00    +0.000 F 
ENDROOT
BRANCH   1   9
ATOM      9  O   UNL     1       5.415  -0.123   0.420  0.00  0.00    +0.000 OA
BRANCH   9  14
ATOM     10  C   UNL     1       4.208   0.657  -3.883  0.00  0.00    +0.000 C 
ATOM     11  C   UNL     1       4.717   0.577  -2.444  0.00  0.00    +0.000 C 
ATOM     12  C   UNL     1       5.939   1.495  -2.282  0.00  0.00    +0.000 C 
ATOM     13  C   UNL     1       5.007  -0.881  -1.987  0.00  0.00    +0.000 C 
ATOM     14  C   UNL     1       4.439  -0.521  -0.581  0.00  0.00    +0.000 C 
ATOM     15  C   UNL     1       3.625   0.630  -1.285  0.00  0.00    +0.000 C 
ATOM     16  C   UNL     1       3.508   1.947  -0.518  0.00  0.00    +0.000 C 
ATOM     17  C   UNL     1       2.212   0.168  -1.695  0.00  0.00    +0.000 C 
ENDBRANCH   9  14
ENDBRANCH   1   9
BRANCH   3  18
ATOM     18  C   UNL     1       6.983  -4.783   0.899  0.00  0.00    +0.000 C 
BRANCH  18  19
ATOM     19  C   UNL     1       8.173  -5.701   1.201  0.00  0.00    +0.000 C 
BRANCH  19  20
ATOM     20  N   UNL     1       7.801  -7.120   1.124  0.00  0.00    +0.000 N 
ATOM     21  C   UNL     1       8.904  -7.963   1.396  0.00  0.00    +0.000 A 
ATOM     22  C   UNL     1       8.755  -9.357   1.377  0.00  0.00    +0.000 A 
ATOM     23  N   UNL     1       9.767 -10.243   1.609  0.00  0.00    +0.000 NA
ATOM     24  C   UNL     1      10.967  -9.664   1.878  0.00  0.00    +0.000 A 
ATOM     25  C   UNL     1      11.130  -8.286   1.918  0.00  0.00    +0.000 A 
ATOM     26  N   UNL     1      10.107  -7.425   1.686  0.00  0.00    +0.000 NA
ATOM     27  H   UNL     1       7.423  -7.369   0.213  0.00  0.00    +0.000 HD
BRANCH  24  28
ATOM     28  C   UNL     1      12.137 -10.547   2.123  0.00  0.00    +0.000 C 
ATOM     29  N   UNL     1      11.930 -11.897   2.066  0.00  0.00    +0.000 N 
ATOM     30  O   UNL     1      13.249 -10.088   2.364  0.00  0.00    +0.000 OA
ATOM     31  H   UNL     1      11.008 -12.276   1.884  0.00  0.00    +0.000 HD
ATOM     32  H   UNL     1      12.708 -12.515   2.243  0.00  0.00    +0.000 HD
ENDBRANCH  24  28
ENDBRANCH  19  20
ENDBRANCH  18  19
ENDBRANCH   3  18
TORSDOF 6
