REMARK  Name = 
REMARK  8 active torsions:
REMARK  status: ('A' for Active; 'I' for Inactive)
REMARK    1  A    between atoms: C_1  and  C_2
REMARK    2  A    between atoms: C_2  and  N_3
REMARK    3  A    between atoms: C_2  and  C_4
REMARK    4  A    between atoms: C_4  and  C_5
REMARK    5  A    between atoms: C_9  and  O_10
REMARK    6  A    between atoms: O_10  and  C_11
REMARK    7  A    between atoms: C_11  and  C_12
REMARK    8  A    between atoms: C_19  and  C_20
REMARK                            x       y       z     vdW  Elec       q    Type
REMARK                         _______ _______ _______ _____ _____    ______ ____
ROOT
ATOM      1  C   UNL     1       4.614   0.996   1.022  0.00  0.00    +0.000 A 
ATOM      2  N   UNL     1       5.272   0.983  -0.175  0.00  0.00    +0.000 NA
ATOM      3  C   UNL     1       6.630   0.963  -0.120  0.00  0.00    +0.000 A 
ATOM      4 CL   UNL     1       7.390   0.958  -1.656  0.00  0.00    +0.000 Cl
ATOM      5  C   UNL     1       7.327   0.919   1.085  0.00  0.00    +0.000 A 
ATOM      6  N   UNL     1       6.681   0.943   2.274  0.00  0.00    +0.000 NA
ATOM      7  C   UNL     1       5.319   0.997   2.224  0.00  0.00    +0.000 A 
ENDROOT
BRANCH   7   8
ATOM      8  C   UNL     1       4.676   1.022   3.501  0.00  0.00    +0.000 C 
ATOM      9  N   UNL     1       4.142   1.024   4.536  0.00  0.00    +0.000 NA
ENDBRANCH   7   8
BRANCH   1  10
ATOM     10  C   UNL     1       3.102   1.016   0.966  0.00  0.00    +0.000 C 
BRANCH  10  12
ATOM     11  C   UNL     1       2.837   3.372  -0.088  0.00  0.00    +0.000 C 
ATOM     12  C   UNL     1       2.497   2.398   1.001  0.00  0.00    +0.000 C 
BRANCH  12  13
ATOM     13  N   UNL     1       1.452   2.708   1.909  0.00  0.00    +0.000 NA
ATOM     14  H   UNL     1       1.088   3.653   1.976  0.00  0.00    +0.000 HD
ATOM     15  H   UNL     1       1.217   2.104   2.690  0.00  0.00    +0.000 HD
ENDBRANCH  12  13
ENDBRANCH  10  12
ENDBRANCH   1  10
BRANCH   5  16
ATOM     16  O   UNL     1       8.707   0.890   1.090  0.00  0.00    +0.000 OA
BRANCH  16  17
ATOM     17  C   UNL     1       9.236   0.337   2.302  0.00  0.00    +0.000 C 
BRANCH  17  18
ATOM     18  C   UNL     1      10.740   0.464   2.315  0.00  0.00    +0.000 A 
ATOM     19  C   UNL     1      11.392   1.080   3.391  0.00  0.00    +0.000 A 
ATOM     20  C   UNL     1      12.774   1.186   3.363  0.00  0.00    +0.000 A 
ATOM     21  N   UNL     1      13.542   0.712   2.361  0.00  0.00    +0.000 NA
ATOM     22  C   UNL     1      12.898   0.102   1.342  0.00  0.00    +0.000 A 
ATOM     23  C   UNL     1      11.520  -0.050   1.277  0.00  0.00    +0.000 A 
ENDBRANCH  17  18
ENDBRANCH  16  17
ENDBRANCH   5  16
TORSDOF 7
