REMARK  Name = 
REMARK  5 active torsions:
REMARK  status: ('A' for Active; 'I' for Inactive)
REMARK    1  A    between atoms: N_1  and  C_2
REMARK    2  A    between atoms: C_2  and  C_3
REMARK    3  A    between atoms: C_7  and  C_8
REMARK    4  A    between atoms: C_8  and  S_9
REMARK    5  A    between atoms: S_9  and  C_10
REMARK                            x       y       z     vdW  Elec       q    Type
REMARK                         _______ _______ _______ _____ _____    ______ ____
ROOT
ATOM      1  C   UNL     1       2.882  -1.163   0.991  0.00  0.00    +0.000 A 
ATOM      2  C   UNL     1       2.606  -2.518   0.819  0.00  0.00    +0.000 A 
ATOM      3  C   UNL     1       3.015  -3.405   1.800  0.00  0.00    +0.000 A 
ATOM      4  N   UNL     1       3.665  -3.040   2.930  0.00  0.00    +0.000 NA
ATOM      5  C   UNL     1       3.927  -1.719   3.105  0.00  0.00    +0.000 A 
ATOM      6  C   UNL     1       3.576  -0.773   2.140  0.00  0.00    +0.000 A 
ENDROOT
BRANCH   1   7
ATOM      7  C   UNL     1       2.428  -0.134  -0.009  0.00  0.00    +0.000 C 
BRANCH   7   8
ATOM      8  N   UNL     1       0.975  -0.125  -0.134  0.00  0.00    +0.000 NA
ATOM      9  H   UNL     1       0.695   0.670  -0.705  0.00  0.00    +0.000 HD
ATOM     10  H   UNL     1       0.568   0.031   0.790  0.00  0.00    +0.000 HD
ENDBRANCH   7   8
ENDBRANCH   1   7
BRANCH   5  11
ATOM     11  C   UNL     1       4.654  -1.336   4.384  0.00  0.00    +0.000 C 
BRANCH  11  12
ATOM     12  S   UNL     1       4.184   0.319   5.026  0.00  0.00    +0.000 S 
BRANCH  12  13
ATOM     13  C   UNL     1       5.189   0.558   6.472  0.00  0.00    +0.000 A 
ATOM     14  C   UNL     1       5.044   1.779   7.137  0.00  0.00    +0.000 A 
ATOM     15  C   UNL     1       5.793   2.059   8.278  0.00  0.00    +0.000 A 
ATOM     16  C   UNL     1       6.674   1.095   8.729  0.00  0.00    +0.000 A 
ATOM     17  N   UNL     1       6.846  -0.101   8.124  0.00  0.00    +0.000 NA
ATOM     18  C   UNL     1       6.102  -0.341   7.014  0.00  0.00    +0.000 A 
ENDBRANCH  12  13
ENDBRANCH  11  12
ENDBRANCH   5  11
TORSDOF 5
