REMARK  Name = 
REMARK  3 active torsions:
REMARK  status: ('A' for Active; 'I' for Inactive)
REMARK    1  A    between atoms: C_2  and  C_4
REMARK    2  A    between atoms: N_8  and  C_9
REMARK    3  A    between atoms: C_9  and  C_10
REMARK                            x       y       z     vdW  Elec       q    Type
REMARK                         _______ _______ _______ _____ _____    ______ ____
ROOT
ATOM      1  C   UNL     1       3.165  -1.055  -0.786  0.00  0.00    +0.000 A 
ATOM      2  C   UNL     1       2.526  -1.713  -1.831  0.00  0.00    +0.000 A 
ATOM      3  C   UNL     1       3.191  -2.751  -2.483  0.00  0.00    +0.000 A 
ATOM      4  C   UNL     1       4.481  -3.101  -2.094  0.00  0.00    +0.000 A 
ATOM      5  N   UNL     1       5.163  -4.172  -2.619  0.00  0.00    +0.000 N 
ATOM      6  N   UNL     1       5.116  -2.451  -1.099  0.00  0.00    +0.000 NA
ATOM      7  C   UNL     1       4.457  -1.442  -0.473  0.00  0.00    +0.000 A 
ATOM      8  H   UNL     1       6.098  -4.213  -2.228  0.00  0.00    +0.000 HD
ENDROOT
BRANCH   1  10
ATOM      9  N   UNL     1       1.158  -0.006   0.084  0.00  0.00    +0.000 N 
ATOM     10  C   UNL     1       2.523   0.021  -0.005  0.00  0.00    +0.000 C 
ATOM     11  O   UNL     1       3.181   0.878   0.567  0.00  0.00    +0.000 OA
ATOM     12  H   UNL     1       0.739   0.665   0.715  0.00  0.00    +0.000 HD
ATOM     13  H   UNL     1       0.617  -0.829  -0.142  0.00  0.00    +0.000 HD
ENDBRANCH   1  10
BRANCH   5  14
ATOM     14  C   UNL     1       5.037  -4.574  -4.004  0.00  0.00    +0.000 C 
BRANCH  14  15
ATOM     15  C   UNL     1       4.552  -6.005  -4.107  0.00  0.00    +0.000 A 
ATOM     16  C   UNL     1       4.891  -6.778  -5.230  0.00  0.00    +0.000 A 
ATOM     17  C   UNL     1       4.417  -8.087  -5.368  0.00  0.00    +0.000 A 
ATOM     18  C   UNL     1       3.590  -8.636  -4.390  0.00  0.00    +0.000 A 
ATOM     19  C   UNL     1       3.242  -7.873  -3.284  0.00  0.00    +0.000 A 
ATOM     20  F   UNL     1       2.443  -8.395  -2.345  0.00  0.00    +0.000 F 
ATOM     21  C   UNL     1       3.708  -6.571  -3.138  0.00  0.00    +0.000 A 
ENDBRANCH  14  15
ENDBRANCH   5  14
TORSDOF 3
