REMARK  Name = 
REMARK  10 active torsions:
REMARK  status: ('A' for Active; 'I' for Inactive)
REMARK    1  A    between atoms: C_2  and  C_23
REMARK    2  A    between atoms: N_3  and  C_4
REMARK    3  A    between atoms: C_4  and  C_5
REMARK    4  A    between atoms: C_8  and  C_9
REMARK    5  A    between atoms: C_9  and  CA_10
REMARK    6  A    between atoms: CA_10  and  C_11
REMARK    7  A    between atoms: CA_10  and  N_13
REMARK    8  A    between atoms: C_11  and  O_12
REMARK    9  A    between atoms: N_13  and  C_14
REMARK   10  A    between atoms: C_14  and  C_15
REMARK                            x       y       z     vdW  Elec       q    Type
REMARK                         _______ _______ _______ _____ _____    ______ ____
ROOT
ATOM      1  C   UNL     1       2.978   0.635  -3.521  0.00  0.00    +0.000 A 
ATOM      2  C   UNL     1       3.009   1.915  -4.069  0.00  0.00    +0.000 A 
ATOM      3  C   UNL     1       3.898   2.179  -5.106  0.00  0.00    +0.000 A 
ATOM      4  C   UNL     1       4.756   1.173  -5.554  0.00  0.00    +0.000 A 
ATOM      5  C   UNL     1       4.652  -0.074  -4.952  0.00  0.00    +0.000 A 
ATOM      6  N   UNL     1       3.793  -0.360  -3.952  0.00  0.00    +0.000 NA
ENDROOT
BRANCH   1   7
ATOM      7  C   UNL     1       2.075   0.328  -2.353  0.00  0.00    +0.000 C 
BRANCH   7  10
ATOM      8  O   UNL     1       0.804   0.338   0.099  0.00  0.00    +0.000 OA
ATOM      9  C   UNL     1       2.012   0.564   0.078  0.00  0.00    +0.000 C 
ATOM     10  N   UNL     1       2.708   0.662  -1.098  0.00  0.00    +0.000 N 
ATOM     11  H   UNL     1       3.721   0.574  -1.079  0.00  0.00    +0.000 HD
BRANCH   9  12
ATOM     12  C   UNL     1       2.767   0.797   1.315  0.00  0.00    +0.000 A 
ATOM     13  C   UNL     1       2.095   1.185   2.465  0.00  0.00    +0.000 A 
ATOM     14  S   UNL     1       3.120   1.440   3.804  0.00  0.00    +0.000 S 
ATOM     15  C   UNL     1       4.494   0.993   2.909  0.00  0.00    +0.000 A 
ATOM     16  N   UNL     1       5.725   0.962   3.483  0.00  0.00    +0.000 NA
ATOM     17  C   UNL     1       6.674   0.571   2.698  0.00  0.00    +0.000 A 
ATOM     18  N   UNL     1       6.502   0.218   1.385  0.00  0.00    +0.000 N 
ATOM     19  C   UNL     1       5.287   0.269   0.753  0.00  0.00    +0.000 A 
ATOM     20  O   UNL     1       5.175   0.005  -0.441  0.00  0.00    +0.000 OA
ATOM     21  C   UNL     1       4.177   0.676   1.602  0.00  0.00    +0.000 A 
ATOM     22  H   UNL     1       7.286  -0.070   0.818  0.00  0.00    +0.000 HD
ENDBRANCH   9  12
ENDBRANCH   7  10
ENDBRANCH   1   7
BRANCH   4  23
ATOM     23  C   UNL     1       5.739   1.410  -6.666  0.00  0.00    +0.000 C 
BRANCH  23  24
ATOM     24  CA  UNL     1       6.777   2.528  -6.392  0.00  0.00    +0.000 C 
BRANCH  24  25
ATOM     25  N   UNL     1       7.681   2.761  -7.555  0.00  0.00    +0.000 NA
ATOM     26  H   UNL     1       8.124   1.880  -7.828  0.00  0.00    +0.000 HD
BRANCH  25  27
ATOM     27  C   UNL     1       6.935   3.261  -8.725  0.00  0.00    +0.000 C 
BRANCH  27  28
ATOM     28  C   UNL     1       7.787   3.429  -9.959  0.00  0.00    +0.000 A 
ATOM     29  C   UNL     1       8.359   4.657 -10.269  0.00  0.00    +0.000 A 
ATOM     30  N   UNL     1       9.053   4.876 -11.412  0.00  0.00    +0.000 NA
ATOM     31  C   UNL     1       9.161   3.809 -12.234  0.00  0.00    +0.000 A 
ATOM     32  C   UNL     1       8.613   2.576 -11.927  0.00  0.00    +0.000 A 
ATOM     33  N   UNL     1       7.922   2.355 -10.785  0.00  0.00    +0.000 NA
ENDBRANCH  27  28
ENDBRANCH  25  27
ENDBRANCH  24  25
BRANCH  24  34
ATOM     34  C   UNL     1       7.622   2.176  -5.138  0.00  0.00    +0.000 C 
BRANCH  34  35
ATOM     35  O   UNL     1       8.571   3.199  -4.843  0.00  0.00    +0.000 OA
ATOM     36  H   UNL     1       9.094   3.314  -5.657  0.00  0.00    +0.000 HD
ENDBRANCH  34  35
ENDBRANCH  24  34
ENDBRANCH  23  24
ENDBRANCH   4  23
TORSDOF 10
