REMARK  Name = 
REMARK  4 active torsions:
REMARK  status: ('A' for Active; 'I' for Inactive)
REMARK    1  A    between atoms: N_6  and  C_7
REMARK    2  A    between atoms: C_11  and  C_12
REMARK    3  A    between atoms: C_12  and  N_13
REMARK    4  A    between atoms: C_18  and  C_19
REMARK                            x       y       z     vdW  Elec       q    Type
REMARK                         _______ _______ _______ _____ _____    ______ ____
ROOT
ATOM      1  C   UNL     1       3.720  -1.142  -3.763  0.00  0.00    +0.000 A 
ATOM      2  C   UNL     1       4.935  -0.461  -3.933  0.00  0.00    +0.000 A 
ATOM      3  C   UNL     1       5.841  -0.800  -4.944  0.00  0.00    +0.000 A 
ATOM      4  C   UNL     1       5.559  -1.850  -5.811  0.00  0.00    +0.000 A 
ATOM      5  C   UNL     1       4.373  -2.573  -5.664  0.00  0.00    +0.000 A 
ATOM      6  C   UNL     1       3.462  -2.195  -4.656  0.00  0.00    +0.000 A 
ENDROOT
BRANCH   1  12
ATOM      7  F   UNL     1       0.319   0.126  -0.673  0.00  0.00    +0.000 F 
ATOM      8  C   UNL     1       0.241  -0.010  -2.025  0.00  0.00    +0.000 C 
ATOM      9  F   UNL     1      -1.039   0.303  -2.357  0.00  0.00    +0.000 F 
ATOM     10  C   UNL     1       0.517  -1.451  -2.401  0.00  0.00    +0.000 C 
ATOM     11  C   UNL     1       1.969  -1.780  -2.103  0.00  0.00    +0.000 C 
ATOM     12  N   UNL     1       2.837  -0.797  -2.755  0.00  0.00    +0.000 N 
ATOM     13  C   UNL     1       2.624   0.599  -2.372  0.00  0.00    +0.000 C 
ATOM     14  C   UNL     1       1.183   0.978  -2.680  0.00  0.00    +0.000 C 
ENDBRANCH   1  12
BRANCH   5  15
ATOM     15  C   UNL     1       4.073  -3.754  -6.556  0.00  0.00    +0.000 C 
BRANCH  15  16
ATOM     16  N   UNL     1       3.264  -3.345  -7.687  0.00  0.00    +0.000 N 
ATOM     17  C   UNL     1       2.882  -4.297  -8.619  0.00  0.00    +0.000 A 
ATOM     18  C   UNL     1       2.549  -5.616  -8.305  0.00  0.00    +0.000 A 
ATOM     19  N   UNL     1       2.125  -6.530  -9.213  0.00  0.00    +0.000 NA
ATOM     20  C   UNL     1       2.004  -6.068 -10.475  0.00  0.00    +0.000 A 
ATOM     21  C   UNL     1       2.310  -4.761 -10.827  0.00  0.00    +0.000 A 
ATOM     22  N   UNL     1       2.764  -3.865  -9.893  0.00  0.00    +0.000 NA
ATOM     23  H   UNL     1       3.589  -2.515  -8.177  0.00  0.00    +0.000 HD
BRANCH  21  24
ATOM     24  C   UNL     1       2.097  -4.326 -12.261  0.00  0.00    +0.000 C 
ATOM     25  F   UNL     1       1.662  -5.338 -13.072  0.00  0.00    +0.000 F 
ATOM     26  F   UNL     1       1.165  -3.340 -12.390  0.00  0.00    +0.000 F 
ATOM     27  F   UNL     1       3.231  -3.856 -12.855  0.00  0.00    +0.000 F 
ENDBRANCH  21  24
ENDBRANCH  15  16
ENDBRANCH   5  15
TORSDOF 4
