REMARK  Name = 
REMARK  8 active torsions:
REMARK  status: ('A' for Active; 'I' for Inactive)
REMARK    1  A    between atoms: C_1  and  C_2
REMARK    2  A    between atoms: C_4  and  C_5
REMARK    3  A    between atoms: C_5  and  C_6
REMARK    4  A    between atoms: C_5  and  N_7
REMARK    5  A    between atoms: C_8  and  C_10
REMARK    6  A    between atoms: C_22  and  C_23
REMARK    7  A    between atoms: C_23  and  O_24
REMARK    8  A    between atoms: O_24  and  C_25
REMARK                            x       y       z     vdW  Elec       q    Type
REMARK                         _______ _______ _______ _____ _____    ______ ____
ROOT
ATOM      1  C   UNL     1      -1.849   2.555   0.112  0.00  0.00    +0.000 C 
ATOM      2  C   UNL     1      -1.131   3.663   0.892  0.00  0.00    +0.000 C 
ENDROOT
BRANCH   1   6
ATOM      3  C   UNL     1       2.558   0.069  -0.001  0.00  0.00    +0.000 C 
ATOM      4  C   UNL     1       1.055   0.013  -0.003  0.00  0.00    +0.000 A 
ATOM      5  C   UNL     1       0.338   1.224   0.003  0.00  0.00    +0.000 A 
ATOM      6  C   UNL     1      -1.065   1.256   0.039  0.00  0.00    +0.000 A 
ATOM      7  C   UNL     1      -1.752   0.037   0.002  0.00  0.00    +0.000 A 
ATOM      8  C   UNL     1      -1.055  -1.173  -0.008  0.00  0.00    +0.000 A 
ATOM      9  C   UNL     1       0.350  -1.205  -0.005  0.00  0.00    +0.000 A 
BRANCH   9  10
ATOM     10  C   UNL     1       1.042  -2.553   0.011  0.00  0.00    +0.000 C 
BRANCH  10  11
ATOM     11  O   UNL     1       1.253  -2.957   1.365  0.00  0.00    +0.000 OA
BRANCH  11  12
ATOM     12  C   UNL     1       1.764  -4.238   1.460  0.00  0.00    +0.000 A 
ATOM     13  C   UNL     1       1.993  -4.725   2.739  0.00  0.00    +0.000 A 
ATOM     14  C   UNL     1       2.497  -6.016   2.875  0.00  0.00    +0.000 A 
ATOM     15  C   UNL     1       2.745  -6.772   1.736  0.00  0.00    +0.000 A 
ATOM     16  C   UNL     1       2.484  -6.201   0.501  0.00  0.00    +0.000 A 
ATOM     17  N   UNL     1       2.003  -4.950   0.338  0.00  0.00    +0.000 NA
ENDBRANCH  11  12
ENDBRANCH  10  11
ENDBRANCH   9  10
ENDBRANCH   1   6
BRANCH   1  18
ATOM     18  N   UNL     1      -2.159   3.038  -1.220  0.00  0.00    +0.000 N 
ATOM     19  C   UNL     1      -3.373   2.850  -1.825  0.00  0.00    +0.000 C 
ATOM     20  O   UNL     1      -4.298   2.255  -1.277  0.00  0.00    +0.000 OA
ATOM     21  H   UNL     1      -1.369   3.344  -1.778  0.00  0.00    +0.000 HD
BRANCH  19  22
ATOM     22  C   UNL     1      -3.545   3.471  -3.147  0.00  0.00    +0.000 A 
ATOM     23  C   UNL     1      -4.826   3.729  -3.619  0.00  0.00    +0.000 A 
ATOM     24  S   UNL     1      -4.856   4.480  -5.148  0.00  0.00    +0.000 S 
ATOM     25  C   UNL     1      -3.159   4.449  -5.257  0.00  0.00    +0.000 A 
ATOM     26  N   UNL     1      -2.522   4.925  -6.360  0.00  0.00    +0.000 NA
ATOM     27  C   UNL     1      -1.237   4.811  -6.326  0.00  0.00    +0.000 A 
ATOM     28  N   UNL     1      -0.529   4.278  -5.280  0.00  0.00    +0.000 N 
ATOM     29  C   UNL     1      -1.125   3.847  -4.119  0.00  0.00    +0.000 A 
ATOM     30  O   UNL     1      -0.451   3.486  -3.159  0.00  0.00    +0.000 OA
ATOM     31  C   UNL     1      -2.575   3.905  -4.126  0.00  0.00    +0.000 A 
ATOM     32  H   UNL     1       0.479   4.244  -5.303  0.00  0.00    +0.000 HD
ENDBRANCH  19  22
ENDBRANCH   1  18
TORSDOF 6
