REMARK  Name = 
REMARK  9 active torsions:
REMARK  status: ('A' for Active; 'I' for Inactive)
REMARK    1  A    between atoms: C_2  and  C_22
REMARK    2  A    between atoms: N_3  and  C_4
REMARK    3  A    between atoms: C_4  and  C_5
REMARK    4  A    between atoms: C_8  and  C_9
REMARK    5  A    between atoms: C_9  and  N_10
REMARK    6  A    between atoms: N_10  and  CA_11
REMARK    7  A    between atoms: CA_11  and  C_12
REMARK    8  A    between atoms: CA_11  and  C_14
REMARK    9  A    between atoms: C_12  and  O_13
REMARK                            x       y       z     vdW  Elec       q    Type
REMARK                         _______ _______ _______ _____ _____    ______ ____
ROOT
ATOM      1  C   UNL     1       3.033   3.023   2.043  0.00  0.00    +0.000 A 
ATOM      2  N   UNL     1       2.797   4.348   1.943  0.00  0.00    +0.000 NA
ATOM      3  C   UNL     1       3.656   5.158   2.591  0.00  0.00    +0.000 A 
ATOM      4  C   UNL     1       4.743   4.715   3.321  0.00  0.00    +0.000 A 
ATOM      5  C   UNL     1       4.904   3.345   3.331  0.00  0.00    +0.000 A 
ATOM      6  N   UNL     1       4.075   2.485   2.699  0.00  0.00    +0.000 NA
ENDROOT
BRANCH   1   7
ATOM      7  C   UNL     1       2.147   2.075   1.267  0.00  0.00    +0.000 C 
BRANCH   7  10
ATOM      8  O   UNL     1       0.943   0.493  -0.669  0.00  0.00    +0.000 OA
ATOM      9  C   UNL     1       2.058   0.949  -0.897  0.00  0.00    +0.000 C 
ATOM     10  N   UNL     1       2.745   1.719  -0.004  0.00  0.00    +0.000 N 
ATOM     11  H   UNL     1       3.737   1.863  -0.119  0.00  0.00    +0.000 HD
BRANCH   9  12
ATOM     12  C   UNL     1       2.705   0.786  -2.192  0.00  0.00    +0.000 A 
ATOM     13  C   UNL     1       3.444   1.769  -2.831  0.00  0.00    +0.000 A 
ATOM     14  S   UNL     1       3.693   1.419  -4.491  0.00  0.00    +0.000 S 
ATOM     15  C   UNL     1       2.894  -0.080  -4.352  0.00  0.00    +0.000 A 
ATOM     16  N   UNL     1       2.643  -0.872  -5.429  0.00  0.00    +0.000 NA
ATOM     17  C   UNL     1       2.079  -1.998  -5.132  0.00  0.00    +0.000 A 
ATOM     18  N   UNL     1       1.792  -2.427  -3.859  0.00  0.00    +0.000 N 
ATOM     19  C   UNL     1       2.084  -1.684  -2.738  0.00  0.00    +0.000 A 
ATOM     20  O   UNL     1       2.026  -2.163  -1.611  0.00  0.00    +0.000 OA
ATOM     21  C   UNL     1       2.572  -0.357  -3.040  0.00  0.00    +0.000 A 
ATOM     22  H   UNL     1       1.467  -3.366  -3.689  0.00  0.00    +0.000 HD
ENDBRANCH   9  12
ENDBRANCH   7  10
ENDBRANCH   1   7
BRANCH   4  23
ATOM     23  C   UNL     1       5.680   5.648   4.025  0.00  0.00    +0.000 C 
BRANCH  23  24
ATOM     24  N   UNL     1       4.949   6.476   4.981  0.00  0.00    +0.000 NA
ATOM     25  H   UNL     1       4.507   5.856   5.662  0.00  0.00    +0.000 HD
BRANCH  24  26
ATOM     26  CA  UNL     1       5.800   7.423   5.740  0.00  0.00    +0.000 C 
BRANCH  26  27
ATOM     27  C   UNL     1       4.978   8.165   6.803  0.00  0.00    +0.000 A 
ATOM     28  C   UNL     1       3.625   8.459   6.620  0.00  0.00    +0.000 A 
ATOM     29  C   UNL     1       2.940   9.150   7.616  0.00  0.00    +0.000 A 
ATOM     30  C   UNL     1       3.616   9.543   8.763  0.00  0.00    +0.000 A 
ATOM     31  C   UNL     1       4.961   9.235   8.863  0.00  0.00    +0.000 A 
ATOM     32  N   UNL     1       5.654   8.570   7.911  0.00  0.00    +0.000 NA
ENDBRANCH  26  27
BRANCH  26  33
ATOM     33  C   UNL     1       6.525   8.479   4.864  0.00  0.00    +0.000 C 
BRANCH  33  34
ATOM     34  O   UNL     1       7.413   9.315   5.610  0.00  0.00    +0.000 OA
ATOM     35  H   UNL     1       6.942   9.584   6.426  0.00  0.00    +0.000 HD
ENDBRANCH  33  34
ENDBRANCH  26  33
ENDBRANCH  24  26
ENDBRANCH  23  24
ENDBRANCH   4  23
TORSDOF 9
