REMARK  Name = 
REMARK  10 active torsions:
REMARK  status: ('A' for Active; 'I' for Inactive)
REMARK    1  A    between atoms: C_1  and  C_2
REMARK    2  A    between atoms: C_2  and  N_3
REMARK    3  A    between atoms: N_3  and  C_4
REMARK    4  A    between atoms: C_6  and  C_7
REMARK    5  A    between atoms: C_7  and  C_8
REMARK    6  A    between atoms: C_8  and  N_9
REMARK    7  A    between atoms: N_9  and  C_10
REMARK    8  A    between atoms: C_13  and  C_14
REMARK    9  A    between atoms: C_20  and  C_21
REMARK   10  A    between atoms: C_28  and  C_29
REMARK                            x       y       z     vdW  Elec       q    Type
REMARK                         _______ _______ _______ _____ _____    ______ ____
ROOT
ATOM      1  C   UNL     1       3.922   0.000  -2.090  0.00  0.00    +0.000 A 
ATOM      2  C   UNL     1       4.825  -1.020  -1.758  0.00  0.00    +0.000 A 
ATOM      3  C   UNL     1       6.067  -1.147  -2.410  0.00  0.00    +0.000 A 
ATOM      4  C   UNL     1       6.405  -0.194  -3.382  0.00  0.00    +0.000 A 
ATOM      5  C   UNL     1       5.530   0.840  -3.731  0.00  0.00    +0.000 A 
ATOM      6  C   UNL     1       4.296   0.927  -3.075  0.00  0.00    +0.000 A 
ENDROOT
BRANCH   5   7
ATOM      7  C   UNL     1       5.908   1.839  -4.796  0.00  0.00    +0.000 C 
ATOM      8  F   UNL     1       7.131   1.598  -5.352  0.00  0.00    +0.000 F 
ATOM      9  F   UNL     1       5.028   1.850  -5.835  0.00  0.00    +0.000 F 
ATOM     10  F   UNL     1       5.959   3.115  -4.328  0.00  0.00    +0.000 F 
ENDBRANCH   5   7
BRANCH   1  11
ATOM     11  N   UNL     1       2.711   0.226  -1.409  0.00  0.00    +0.000 N 
ATOM     12  H   UNL     1       2.010   0.690  -1.992  0.00  0.00    +0.000 HD
BRANCH  11  14
ATOM     13  C   UNL     1       1.630  -1.662  -0.273  0.00  0.00    +0.000 C 
ATOM     14  C   UNL     1       2.224  -0.274  -0.143  0.00  0.00    +0.000 C 
ATOM     15  C   UNL     1       3.197  -0.007   1.037  0.00  0.00    +0.000 C 
ATOM     16  O   UNL     1       2.523   1.247   1.344  0.00  0.00    +0.000 OA
ATOM     17  C   UNL     1       1.327   0.752   0.639  0.00  0.00    +0.000 C 
BRANCH  17  18
ATOM     18  C   UNL     1       0.516   1.828  -0.064  0.00  0.00    +0.000 C 
ATOM     19  F   UNL     1       0.581   1.710  -1.415  0.00  0.00    +0.000 F 
ATOM     20  F   UNL     1      -0.794   1.714   0.275  0.00  0.00    +0.000 F 
ATOM     21  F   UNL     1       0.911   3.080   0.262  0.00  0.00    +0.000 F 
ENDBRANCH  17  18
ENDBRANCH  11  14
ENDBRANCH   1  11
BRANCH   3  22
ATOM     22  C   UNL     1       6.980  -2.317  -2.064  0.00  0.00    +0.000 C 
BRANCH  22  23
ATOM     23  C   UNL     1       8.329  -2.313  -2.800  0.00  0.00    +0.000 C 
BRANCH  23  24
ATOM     24  N   UNL     1       9.122  -3.515  -2.560  0.00  0.00    +0.000 N 
ATOM     25  H   UNL     1       9.043  -3.914  -1.629  0.00  0.00    +0.000 HD
BRANCH  24  26
ATOM     26  C   UNL     1      10.421  -3.569  -3.087  0.00  0.00    +0.000 A 
ATOM     27  C   UNL     1      10.935  -2.638  -3.995  0.00  0.00    +0.000 A 
ATOM     28  C   UNL     1      12.203  -2.798  -4.554  0.00  0.00    +0.000 A 
ATOM     29  C   UNL     1      12.932  -3.922  -4.207  0.00  0.00    +0.000 A 
ATOM     30  N   UNL     1      12.481  -4.880  -3.349  0.00  0.00    +0.000 NA
ATOM     31  C   UNL     1      11.241  -4.677  -2.832  0.00  0.00    +0.000 A 
BRANCH  29  32
ATOM     32  C   UNL     1      14.293  -4.131  -4.794  0.00  0.00    +0.000 C 
ATOM     33  N   UNL     1      14.930  -5.276  -4.407  0.00  0.00    +0.000 N 
ATOM     34  O   UNL     1      14.813  -3.332  -5.569  0.00  0.00    +0.000 OA
ATOM     35  H   UNL     1      14.467  -5.908  -3.761  0.00  0.00    +0.000 HD
ATOM     36  H   UNL     1      15.853  -5.481  -4.758  0.00  0.00    +0.000 HD
ENDBRANCH  29  32
ENDBRANCH  24  26
ENDBRANCH  23  24
ENDBRANCH  22  23
ENDBRANCH   3  22
TORSDOF 9
