REMARK  Name = 
REMARK  7 active torsions:
REMARK  status: ('A' for Active; 'I' for Inactive)
REMARK    1  A    between atoms: C_1  and  C_2
REMARK    2  A    between atoms: C_2  and  C_3
REMARK    3  A    between atoms: C_2  and  C_4
REMARK    4  A    between atoms: C_2  and  C_22
REMARK    5  A    between atoms: C_4  and  N_5
REMARK    6  A    between atoms: C_10  and  C_11
REMARK    7  A    between atoms: C_15  and  C_16
REMARK                            x       y       z     vdW  Elec       q    Type
REMARK                         _______ _______ _______ _____ _____    ______ ____
ROOT
ATOM      1  N   UNL     1       2.732   0.095  -2.460  0.00  0.00    +0.000 N 
ATOM      2  C   UNL     1       3.054   0.824  -3.603  0.00  0.00    +0.000 A 
ATOM      3  C   UNL     1       3.729   2.042  -3.534  0.00  0.00    +0.000 A 
ATOM      4  C   UNL     1       4.044   2.727  -4.692  0.00  0.00    +0.000 A 
ATOM      5  C   UNL     1       3.733   2.153  -5.909  0.00  0.00    +0.000 A 
ATOM      6  C   UNL     1       3.104   0.909  -5.937  0.00  0.00    +0.000 A 
ATOM      7  N   UNL     1       2.724   0.272  -4.793  0.00  0.00    +0.000 NA
ATOM      8  H   UNL     1       1.767  -0.233  -2.560  0.00  0.00    +0.000 HD
ENDROOT
BRANCH   6   9
ATOM      9  C   UNL     1       2.869   0.200  -7.214  0.00  0.00    +0.000 A 
ATOM     10  C   UNL     1       3.737   0.377  -8.316  0.00  0.00    +0.000 A 
ATOM     11  C   UNL     1       3.516  -0.261  -9.536  0.00  0.00    +0.000 A 
ATOM     12  C   UNL     1       2.439  -1.119  -9.684  0.00  0.00    +0.000 A 
ATOM     13  C   UNL     1       1.565  -1.361  -8.608  0.00  0.00    +0.000 A 
ATOM     14  C   UNL     1       1.791  -0.689  -7.387  0.00  0.00    +0.000 A 
BRANCH  13  15
ATOM     15  C   UNL     1       0.429  -2.335  -8.744  0.00  0.00    +0.000 C 
ATOM     16  F   UNL     1       0.365  -2.922  -9.974  0.00  0.00    +0.000 F 
ATOM     17  F   UNL     1       0.505  -3.361  -7.852  0.00  0.00    +0.000 F 
ATOM     18  F   UNL     1      -0.787  -1.755  -8.551  0.00  0.00    +0.000 F 
ENDBRANCH  13  15
ENDBRANCH   6   9
BRANCH   1  19
ATOM     19  C   UNL     1       3.011   0.682  -1.151  0.00  0.00    +0.000 C 
BRANCH  19  21
ATOM     20  C   UNL     1       3.281  -1.554   0.011  0.00  0.00    +0.000 C 
ATOM     21  C   UNL     1       2.565  -0.191   0.053  0.00  0.00    +0.000 C 
ATOM     22  C   UNL     1       3.016   0.571   1.324  0.00  0.00    +0.000 C 
BRANCH  21  23
ATOM     23  C   UNL     1       1.043  -0.371   0.082  0.00  0.00    +0.000 A 
ATOM     24  C   UNL     1       0.423  -1.097   1.098  0.00  0.00    +0.000 A 
ATOM     25  C   UNL     1      -0.964  -1.236   1.087  0.00  0.00    +0.000 A 
ATOM     26  C   UNL     1      -1.700  -0.652   0.067  0.00  0.00    +0.000 A 
ATOM     27  C   UNL     1      -1.019   0.053  -0.904  0.00  0.00    +0.000 A 
ATOM     28  N   UNL     1       0.322   0.207  -0.911  0.00  0.00    +0.000 NA
ENDBRANCH  21  23
ENDBRANCH  19  21
ENDBRANCH   1  19
TORSDOF 5
