REMARK  Name = 
REMARK  8 active torsions:
REMARK  status: ('A' for Active; 'I' for Inactive)
REMARK    1  A    between atoms: C_1  and  O_2
REMARK    2  A    between atoms: O_2  and  C_3
REMARK    3  A    between atoms: C_3  and  C_4
REMARK    4  A    between atoms: C_4  and  N_5
REMARK    5  A    between atoms: C_4  and  C_18
REMARK    6  A    between atoms: C_6  and  C_8
REMARK    7  A    between atoms: C_21  and  C_22
REMARK    8  A    between atoms: C_22  and  N_23
REMARK                            x       y       z     vdW  Elec       q    Type
REMARK                         _______ _______ _______ _____ _____    ______ ____
ROOT
ATOM      1  C   UNL     1       4.398  -0.790  -0.937  0.00  0.00    +0.000 C 
ENDROOT
BRANCH   1   2
ATOM      2  C   UNL     1       4.945  -1.670  -2.056  0.00  0.00    +0.000 A 
ATOM      3  C   UNL     1       5.313  -1.107  -3.286  0.00  0.00    +0.000 A 
ATOM      4  C   UNL     1       5.714  -1.922  -4.350  0.00  0.00    +0.000 A 
ATOM      5  C   UNL     1       5.751  -3.315  -4.208  0.00  0.00    +0.000 A 
ATOM      6  C   UNL     1       5.430  -3.877  -2.971  0.00  0.00    +0.000 A 
ATOM      7  C   UNL     1       5.016  -3.065  -1.919  0.00  0.00    +0.000 A 
BRANCH   5   8
ATOM      8  C   UNL     1       6.074  -4.214  -5.375  0.00  0.00    +0.000 C 
BRANCH   8   9
ATOM      9  N   UNL     1       7.502  -4.483  -5.441  0.00  0.00    +0.000 N 
ATOM     10  C   UNL     1       7.823  -5.407  -6.455  0.00  0.00    +0.000 A 
ATOM     11  C   UNL     1       9.157  -5.750  -6.642  0.00  0.00    +0.000 A 
ATOM     12  C   UNL     1       9.494  -6.642  -7.663  0.00  0.00    +0.000 A 
ATOM     13  C   UNL     1       8.493  -7.170  -8.470  0.00  0.00    +0.000 A 
ATOM     14  C   UNL     1       7.194  -6.774  -8.221  0.00  0.00    +0.000 A 
ATOM     15  N   UNL     1       6.849  -5.909  -7.244  0.00  0.00    +0.000 NA
ATOM     16  H   UNL     1       7.874  -4.809  -4.555  0.00  0.00    +0.000 HD
ENDBRANCH   8   9
ENDBRANCH   5   8
ENDBRANCH   1   2
BRANCH   1  17
ATOM     17  N   UNL     1       4.836  -1.266   0.372  0.00  0.00    +0.000 N 
ATOM     18  C   UNL     1       5.970  -0.804   0.984  0.00  0.00    +0.000 C 
ATOM     19  O   UNL     1       6.642   0.115   0.523  0.00  0.00    +0.000 OA
ATOM     20  H   UNL     1       4.354  -2.071   0.754  0.00  0.00    +0.000 HD
BRANCH  18  21
ATOM     21  C   UNL     1       6.342  -1.450   2.250  0.00  0.00    +0.000 A 
ATOM     22  C   UNL     1       7.129  -0.764   3.164  0.00  0.00    +0.000 A 
ATOM     23  S   UNL     1       7.544  -1.683   4.538  0.00  0.00    +0.000 S 
ATOM     24  C   UNL     1       6.720  -3.046   3.942  0.00  0.00    +0.000 A 
ATOM     25  N   UNL     1       6.747  -4.230   4.612  0.00  0.00    +0.000 NA
ATOM     26  C   UNL     1       6.130  -5.195   4.014  0.00  0.00    +0.000 A 
ATOM     27  N   UNL     1       5.459  -5.074   2.826  0.00  0.00    +0.000 N 
ATOM     28  C   UNL     1       5.286  -3.864   2.197  0.00  0.00    +0.000 A 
ATOM     29  O   UNL     1       4.476  -3.736   1.285  0.00  0.00    +0.000 OA
ATOM     30  C   UNL     1       6.069  -2.778   2.751  0.00  0.00    +0.000 A 
ATOM     31  H   UNL     1       4.931  -5.849   2.454  0.00  0.00    +0.000 HD
ENDBRANCH  18  21
ENDBRANCH   1  17
BRANCH   1  32
ATOM     32  C   UNL     1       2.854  -0.754  -1.032  0.00  0.00    +0.000 C 
BRANCH  32  34
ATOM     33  C   UNL     1       0.883   0.184  -0.134  0.00  0.00    +0.000 C 
ATOM     34  O   UNL     1       2.299   0.097  -0.021  0.00  0.00    +0.000 OA
ENDBRANCH  32  34
ENDBRANCH   1  32
TORSDOF 7
