REMARK  Name = 
REMARK  8 active torsions:
REMARK  status: ('A' for Active; 'I' for Inactive)
REMARK    1  A    between atoms: C_1  and  C_2
REMARK    2  A    between atoms: C_2  and  C_3
REMARK    3  A    between atoms: C_2  and  C_4
REMARK    4  A    between atoms: C_6  and  N_7
REMARK    5  A    between atoms: C_14  and  C_15
REMARK    6  A    between atoms: C_15  and  N_16
REMARK    7  A    between atoms: N_16  and  C_17
REMARK    8  A    between atoms: C_20  and  C_21
REMARK                            x       y       z     vdW  Elec       q    Type
REMARK                         _______ _______ _______ _____ _____    ______ ____
ROOT
ATOM      1  C   UNL     1       2.986  -0.321  -1.342  0.00  0.00    +0.000 A 
ATOM      2  C   UNL     1       3.425   0.675  -2.218  0.00  0.00    +0.000 A 
ATOM      3  C   UNL     1       3.796   0.356  -3.527  0.00  0.00    +0.000 A 
ATOM      4  C   UNL     1       3.714  -0.992  -3.877  0.00  0.00    +0.000 A 
ATOM      5  C   UNL     1       3.278  -1.947  -2.961  0.00  0.00    +0.000 A 
ATOM      6  N   UNL     1       2.927  -1.625  -1.695  0.00  0.00    +0.000 NA
ENDROOT
BRANCH   3   7
ATOM      7  N   UNL     1       4.186   1.313  -4.441  0.00  0.00    +0.000 N 
ATOM      8  C   UNL     1       4.895   2.547  -4.067  0.00  0.00    +0.000 C 
ATOM      9  C   UNL     1       4.188   3.777  -4.679  0.00  0.00    +0.000 C 
ATOM     10  N   UNL     1       3.987   3.681  -6.141  0.00  0.00    +0.000 NA
ATOM     11  C   UNL     1       3.250   2.433  -6.436  0.00  0.00    +0.000 C 
ATOM     12  C   UNL     1       3.934   1.160  -5.883  0.00  0.00    +0.000 C 
ATOM     13  H   UNL     1       4.904   3.612  -6.582  0.00  0.00    +0.000 HD
ENDBRANCH   3   7
BRANCH   1  15
ATOM     14  C   UNL     1       1.022  -0.369   0.204  0.00  0.00    +0.000 C 
ATOM     15  C   UNL     1       2.486   0.049   0.041  0.00  0.00    +0.000 C 
ATOM     16  C   UNL     1       3.355  -0.584   1.128  0.00  0.00    +0.000 C 
ENDBRANCH   1  15
BRANCH   5  17
ATOM     17  C   UNL     1       3.179  -3.404  -3.367  0.00  0.00    +0.000 C 
BRANCH  17  18
ATOM     18  N   UNL     1       4.424  -4.129  -3.130  0.00  0.00    +0.000 N 
ATOM     19  H   UNL     1       4.744  -4.000  -2.172  0.00  0.00    +0.000 HD
BRANCH  18  20
ATOM     20  C   UNL     1       5.468  -4.205  -4.044  0.00  0.00    +0.000 A 
ATOM     21  C   UNL     1       5.384  -3.798  -5.379  0.00  0.00    +0.000 A 
ATOM     22  C   UNL     1       6.460  -3.961  -6.261  0.00  0.00    +0.000 A 
ATOM     23  C   UNL     1       7.633  -4.590  -5.836  0.00  0.00    +0.000 A 
ATOM     24  C   UNL     1       7.712  -5.064  -4.526  0.00  0.00    +0.000 A 
ATOM     25  C   UNL     1       6.637  -4.870  -3.649  0.00  0.00    +0.000 A 
BRANCH  23  26
ATOM     26  C   UNL     1       8.732  -4.772  -6.820  0.00  0.00    +0.000 C 
ATOM     27  N   UNL     1       9.995  -4.952  -6.329  0.00  0.00    +0.000 N 
ATOM     28  O   UNL     1       8.528  -4.733  -8.027  0.00  0.00    +0.000 OA
ATOM     29  H   UNL     1      10.241  -4.781  -5.366  0.00  0.00    +0.000 HD
ATOM     30  H   UNL     1      10.741  -4.988  -7.011  0.00  0.00    +0.000 HD
ENDBRANCH  23  26
ENDBRANCH  18  20
ENDBRANCH  17  18
ENDBRANCH   5  17
TORSDOF 6
