REMARK  Name = 
REMARK  6 active torsions:
REMARK  status: ('A' for Active; 'I' for Inactive)
REMARK    1  A    between atoms: C_2  and  C_4
REMARK    2  A    between atoms: C_7  and  N_8
REMARK    3  A    between atoms: N_8  and  C_9
REMARK    4  A    between atoms: C_9  and  C_10
REMARK    5  A    between atoms: C_10  and  O_11
REMARK    6  A    between atoms: C_10  and  C_12
REMARK                            x       y       z     vdW  Elec       q    Type
REMARK                         _______ _______ _______ _____ _____    ______ ____
ROOT
ATOM      1  N   UNL     1       3.779  -3.953   6.152  0.00  0.00    +0.000 N 
ATOM      2  H   UNL     1       3.867  -3.116   6.729  0.00  0.00    +0.000 HD
ENDROOT
BRANCH   1   6
ATOM      3  C   UNL     1       0.268  -5.799   7.246  0.00  0.00    +0.000 A 
ATOM      4  C   UNL     1       1.454  -6.107   7.890  0.00  0.00    +0.000 A 
ATOM      5  N   UNL     1       2.632  -5.503   7.576  0.00  0.00    +0.000 NA
ATOM      6  C   UNL     1       2.597  -4.596   6.577  0.00  0.00    +0.000 A 
ATOM      7  C   UNL     1       1.376  -4.252   5.981  0.00  0.00    +0.000 A 
ATOM      8  N   UNL     1       0.189  -4.842   6.280  0.00  0.00    +0.000 NA
BRANCH   3  10
ATOM      9  N   UNL     1      -2.073  -6.238   6.824  0.00  0.00    +0.000 N 
ATOM     10  C   UNL     1      -0.977  -6.542   7.583  0.00  0.00    +0.000 C 
ATOM     11  O   UNL     1      -1.020  -7.380   8.477  0.00  0.00    +0.000 OA
ATOM     12  H   UNL     1      -2.944  -6.724   6.988  0.00  0.00    +0.000 HD
ATOM     13  H   UNL     1      -1.998  -5.554   6.079  0.00  0.00    +0.000 HD
ENDBRANCH   3  10
ENDBRANCH   1   6
BRANCH   1  14
ATOM     14  C   UNL     1       4.990  -4.800   6.273  0.00  0.00    +0.000 C 
BRANCH  14  15
ATOM     15  C   UNL     1       5.237  -5.629   4.975  0.00  0.00    +0.000 C 
BRANCH  15  16
ATOM     16  C   UNL     1       4.125  -6.598   4.600  0.00  0.00    +0.000 A 
ATOM     17  C   UNL     1       3.441  -6.513   3.374  0.00  0.00    +0.000 A 
ATOM     18  C   UNL     1       2.350  -7.341   3.098  0.00  0.00    +0.000 A 
ATOM     19  C   UNL     1       1.931  -8.277   4.039  0.00  0.00    +0.000 A 
ATOM     20  C   UNL     1       2.625  -8.403   5.238  0.00  0.00    +0.000 A 
ATOM     21 CL   UNL     1       2.095  -9.542   6.414  0.00  0.00    +0.000 Cl
ATOM     22  C   UNL     1       3.725  -7.589   5.511  0.00  0.00    +0.000 A 
ENDBRANCH  15  16
BRANCH  15  23
ATOM     23  O   UNL     1       5.475  -4.702   3.903  0.00  0.00    +0.000 OA
ATOM     24  H   UNL     1       4.727  -4.077   3.955  0.00  0.00    +0.000 HD
ENDBRANCH  15  23
ENDBRANCH  14  15
ENDBRANCH   1  14
TORSDOF 6
