REMARK  Name = 
REMARK  6 active torsions:
REMARK  status: ('A' for Active; 'I' for Inactive)
REMARK    1  A    between atoms: C_1  and  C_2
REMARK    2  A    between atoms: C_2  and  N_3
REMARK    3  A    between atoms: C_2  and  C_16
REMARK    4  A    between atoms: C_4  and  C_6
REMARK    5  A    between atoms: C_19  and  O_20
REMARK    6  A    between atoms: O_20  and  C_21
REMARK                            x       y       z     vdW  Elec       q    Type
REMARK                         _______ _______ _______ _____ _____    ______ ____
ROOT
ATOM      1  C   UNL     1       2.856  -0.614  -1.298  0.00  0.00    +0.000 C 
ATOM      2  C   UNL     1       2.433   0.048   0.022  0.00  0.00    +0.000 C 
ENDROOT
BRANCH   2   3
ATOM      3  C   UNL     1       3.173   1.341   0.288  0.00  0.00    +0.000 A 
ATOM      4  C   UNL     1       3.468   1.745   1.597  0.00  0.00    +0.000 A 
ATOM      5  C   UNL     1       4.270   2.866   1.819  0.00  0.00    +0.000 A 
ATOM      6  C   UNL     1       4.727   3.571   0.719  0.00  0.00    +0.000 A 
ATOM      7  N   UNL     1       4.409   3.245  -0.552  0.00  0.00    +0.000 NA
ATOM      8  C   UNL     1       3.632   2.160  -0.738  0.00  0.00    +0.000 A 
BRANCH   6   9
ATOM      9  O   UNL     1       5.560   4.654   0.951  0.00  0.00    +0.000 OA
BRANCH   9  10
ATOM     10  C   UNL     1       5.666   5.576  -0.067  0.00  0.00    +0.000 A 
ATOM     11  C   UNL     1       4.556   6.072  -0.749  0.00  0.00    +0.000 A 
ATOM     12  N   UNL     1       4.638   7.014  -1.722  0.00  0.00    +0.000 NA
ATOM     13  C   UNL     1       5.890   7.446  -1.982  0.00  0.00    +0.000 A 
ATOM     14  C   UNL     1       6.997   6.982  -1.288  0.00  0.00    +0.000 A 
ATOM     15  N   UNL     1       6.913   6.053  -0.305  0.00  0.00    +0.000 NA
ENDBRANCH   9  10
ENDBRANCH   6   9
ENDBRANCH   2   3
BRANCH   2  16
ATOM     16  N   UNL     1       1.003   0.268   0.038  0.00  0.00    +0.000 N 
ATOM     17  C   UNL     1       0.120  -0.728   0.384  0.00  0.00    +0.000 C 
ATOM     18  O   UNL     1       0.478  -1.774   0.913  0.00  0.00    +0.000 OA
ATOM     19  H   UNL     1       0.665   1.026  -0.545  0.00  0.00    +0.000 HD
BRANCH  17  20
ATOM     20  C   UNL     1      -1.294  -0.453   0.108  0.00  0.00    +0.000 A 
ATOM     21  C   UNL     1      -2.287  -1.024   0.890  0.00  0.00    +0.000 A 
ATOM     22  S   UNL     1      -3.866  -0.606   0.395  0.00  0.00    +0.000 S 
ATOM     23  C   UNL     1      -3.275   0.299  -0.919  0.00  0.00    +0.000 A 
ATOM     24  N   UNL     1      -4.122   0.886  -1.807  0.00  0.00    +0.000 NA
ATOM     25  C   UNL     1      -3.533   1.499  -2.779  0.00  0.00    +0.000 A 
ATOM     26  N   UNL     1      -2.171   1.602  -2.933  0.00  0.00    +0.000 N 
ATOM     27  C   UNL     1      -1.281   1.089  -2.021  0.00  0.00    +0.000 A 
ATOM     28  O   UNL     1      -0.077   1.311  -2.114  0.00  0.00    +0.000 OA
ATOM     29  C   UNL     1      -1.890   0.331  -0.945  0.00  0.00    +0.000 A 
ATOM     30  H   UNL     1      -1.782   2.129  -3.694  0.00  0.00    +0.000 HD
ENDBRANCH  17  20
ENDBRANCH   2  16
TORSDOF 5
