REMARK  Name = 
REMARK  7 active torsions:
REMARK  status: ('A' for Active; 'I' for Inactive)
REMARK    1  A    between atoms: C_2  and  C_20
REMARK    2  A    between atoms: N_3  and  C_4
REMARK    3  A    between atoms: C_4  and  C_5
REMARK    4  A    between atoms: C_8  and  C_9
REMARK    5  A    between atoms: C_9  and  N_10
REMARK    6  A    between atoms: N_10  and  C_11
REMARK    7  A    between atoms: C_11  and  C_12
REMARK                            x       y       z     vdW  Elec       q    Type
REMARK                         _______ _______ _______ _____ _____    ______ ____
ROOT
ATOM      1  C   UNL     1       4.485   3.398   0.427  0.00  0.00    +0.000 C 
ENDROOT
BRANCH   1   2
ATOM      2  C   UNL     1       3.325   3.425   1.437  0.00  0.00    +0.000 C 
ATOM      3  C   UNL     1       3.762   3.108   2.877  0.00  0.00    +0.000 C 
ATOM      4  C   UNL     1       4.644   4.197   3.487  0.00  0.00    +0.000 C 
ATOM      5  C   UNL     1       3.991   5.588   3.418  0.00  0.00    +0.000 C 
ATOM      6  C   UNL     1       3.478   5.906   2.000  0.00  0.00    +0.000 C 
ATOM      7  C   UNL     1       2.620   4.787   1.414  0.00  0.00    +0.000 C 
BRANCH   5   8
ATOM      8  C   UNL     1       4.983   6.666   3.910  0.00  0.00    +0.000 C 
BRANCH   8   9
ATOM      9  N   UNL     1       4.346   7.979   3.891  0.00  0.00    +0.000 NA
ATOM     10  H   UNL     1       3.550   7.992   4.526  0.00  0.00    +0.000 HD
BRANCH   9  11
ATOM     11  C   UNL     1       5.261   9.055   4.239  0.00  0.00    +0.000 C 
BRANCH  11  12
ATOM     12  C   UNL     1       4.556  10.388   4.135  0.00  0.00    +0.000 A 
ATOM     13  C   UNL     1       4.368  11.201   5.255  0.00  0.00    +0.000 A 
ATOM     14  C   UNL     1       3.693  12.402   5.098  0.00  0.00    +0.000 A 
ATOM     15  N   UNL     1       3.199  12.842   3.922  0.00  0.00    +0.000 NA
ATOM     16  C   UNL     1       3.387  12.042   2.851  0.00  0.00    +0.000 A 
ATOM     17  C   UNL     1       4.051  10.826   2.905  0.00  0.00    +0.000 A 
ENDBRANCH  11  12
ENDBRANCH   9  11
ENDBRANCH   8   9
ENDBRANCH   5   8
ENDBRANCH   1   2
BRANCH   1  20
ATOM     18  O   UNL     1       3.711   1.146  -1.116  0.00  0.00    +0.000 OA
ATOM     19  C   UNL     1       4.717   1.076  -0.418  0.00  0.00    +0.000 C 
ATOM     20  N   UNL     1       5.141   2.112   0.372  0.00  0.00    +0.000 N 
ATOM     21  H   UNL     1       6.023   2.034   0.864  0.00  0.00    +0.000 HD
BRANCH  19  22
ATOM     22  C   UNL     1       5.522  -0.150  -0.346  0.00  0.00    +0.000 A 
ATOM     23  C   UNL     1       4.958  -1.370  -0.696  0.00  0.00    +0.000 A 
ATOM     24  S   UNL     1       6.030  -2.687  -0.537  0.00  0.00    +0.000 S 
ATOM     25  C   UNL     1       7.299  -1.668  -0.043  0.00  0.00    +0.000 A 
ATOM     26  N   UNL     1       8.535  -2.170   0.225  0.00  0.00    +0.000 NA
ATOM     27  C   UNL     1       9.415  -1.282   0.548  0.00  0.00    +0.000 A 
ATOM     28  N   UNL     1       9.168   0.064   0.637  0.00  0.00    +0.000 N 
ATOM     29  C   UNL     1       7.919   0.606   0.449  0.00  0.00    +0.000 A 
ATOM     30  O   UNL     1       7.708   1.794   0.672  0.00  0.00    +0.000 OA
ATOM     31  C   UNL     1       6.904  -0.345   0.033  0.00  0.00    +0.000 A 
ATOM     32  H   UNL     1       9.891   0.705   0.927  0.00  0.00    +0.000 HD
ENDBRANCH  19  22
ENDBRANCH   1  20
TORSDOF 7
