REMARK  Name = 
REMARK  6 active torsions:
REMARK  status: ('A' for Active; 'I' for Inactive)
REMARK    1  A    between atoms: C_2  and  C_5
REMARK    2  A    between atoms: C_9  and  N_10
REMARK    3  A    between atoms: N_10  and  C_11
REMARK    4  A    between atoms: C_11  and  C_12
REMARK    5  A    between atoms: C_16  and  C_17
REMARK    6  A    between atoms: C_21  and  C_22
REMARK                            x       y       z     vdW  Elec       q    Type
REMARK                         _______ _______ _______ _____ _____    ______ ____
ROOT
ATOM      1  C   UNL     1       5.433  -0.167   6.037  0.00  0.00    +0.000 A 
ATOM      2  C   UNL     1       5.719  -1.341   6.720  0.00  0.00    +0.000 A 
ATOM      3  N   UNL     1       6.259  -1.377   7.956  0.00  0.00    +0.000 NA
ATOM      4  C   UNL     1       6.523  -0.184   8.545  0.00  0.00    +0.000 A 
ATOM      5  C   UNL     1       6.285   1.067   7.973  0.00  0.00    +0.000 A 
ATOM      6  C   UNL     1       5.714   1.043   6.689  0.00  0.00    +0.000 A 
ENDROOT
BRANCH   5   7
ATOM      7  C   UNL     1       6.623   2.333   8.658  0.00  0.00    +0.000 A 
ATOM      8  C   UNL     1       7.758   2.448   9.472  0.00  0.00    +0.000 A 
ATOM      9  C   UNL     1       8.048   3.662  10.073  0.00  0.00    +0.000 A 
ATOM     10  N   UNL     1       7.299   4.773   9.922  0.00  0.00    +0.000 NA
ATOM     11  C   UNL     1       6.193   4.682   9.135  0.00  0.00    +0.000 A 
ATOM     12  C   UNL     1       5.833   3.484   8.507  0.00  0.00    +0.000 A 
BRANCH  11  13
ATOM     13  C   UNL     1       5.318   5.909   8.911  0.00  0.00    +0.000 C 
ATOM     14  F   UNL     1       5.730   7.029   9.568  0.00  0.00    +0.000 F 
ATOM     15  F   UNL     1       5.246   6.256   7.592  0.00  0.00    +0.000 F 
ATOM     16  F   UNL     1       4.025   5.702   9.299  0.00  0.00    +0.000 F 
ENDBRANCH  11  13
ENDBRANCH   5   7
BRANCH   1  17
ATOM     17  C   UNL     1       4.847  -0.195   4.652  0.00  0.00    +0.000 C 
BRANCH  17  18
ATOM     18  N   UNL     1       3.400  -0.310   4.721  0.00  0.00    +0.000 N 
ATOM     19  H   UNL     1       2.977   0.188   5.502  0.00  0.00    +0.000 HD
BRANCH  18  24
ATOM     20  C   UNL     1       2.275  -0.359   1.153  0.00  0.00    +0.000 A 
ATOM     21  C   UNL     1       0.911  -0.392   1.383  0.00  0.00    +0.000 A 
ATOM     22  N   UNL     1       0.363  -0.381   2.616  0.00  0.00    +0.000 NA
ATOM     23  C   UNL     1       1.224  -0.335   3.663  0.00  0.00    +0.000 A 
ATOM     24  C   UNL     1       2.618  -0.277   3.567  0.00  0.00    +0.000 A 
ATOM     25  C   UNL     1       3.129  -0.322   2.269  0.00  0.00    +0.000 A 
BRANCH  20  27
ATOM     26  F   UNL     1       1.856  -0.404  -1.205  0.00  0.00    +0.000 F 
ATOM     27  C   UNL     1       2.817  -0.359  -0.243  0.00  0.00    +0.000 C 
ATOM     28  F   UNL     1       3.640  -1.415  -0.485  0.00  0.00    +0.000 F 
ATOM     29  F   UNL     1       3.555   0.756  -0.508  0.00  0.00    +0.000 F 
ENDBRANCH  20  27
ENDBRANCH  18  24
ENDBRANCH  17  18
ENDBRANCH   1  17
TORSDOF 6
