REMARK  Name = 
REMARK  4 active torsions:
REMARK  status: ('A' for Active; 'I' for Inactive)
REMARK    1  A    between atoms: C_2  and  C_3
REMARK    2  A    between atoms: C_6  and  C_7
REMARK    3  A    between atoms: C_7  and  C_8
REMARK    4  A    between atoms: C_12  and  C_13
REMARK                            x       y       z     vdW  Elec       q    Type
REMARK                         _______ _______ _______ _____ _____    ______ ____
ROOT
ATOM      1  C   UNL     1       8.296   1.593   0.573  0.00  0.00    +0.000 A 
ATOM      2  C   UNL     1       8.717   1.758   1.902  0.00  0.00    +0.000 A 
ATOM      3  C   UNL     1       8.775   3.024   2.486  0.00  0.00    +0.000 A 
ATOM      4  C   UNL     1       8.345   4.140   1.766  0.00  0.00    +0.000 A 
ATOM      5  C   UNL     1       7.910   4.016   0.437  0.00  0.00    +0.000 A 
ATOM      6  C   UNL     1       7.995   2.753  -0.162  0.00  0.00    +0.000 A 
ENDROOT
BRANCH   5   7
ATOM      7  C   UNL     1       7.248   5.133  -0.267  0.00  0.00    +0.000 A 
ATOM      8  C   UNL     1       6.393   6.014   0.410  0.00  0.00    +0.000 A 
ATOM      9  C   UNL     1       5.742   7.037  -0.271  0.00  0.00    +0.000 A 
ATOM     10  C   UNL     1       5.945   7.146  -1.634  0.00  0.00    +0.000 A 
ATOM     11  N   UNL     1       6.724   6.306  -2.342  0.00  0.00    +0.000 NA
ATOM     12  C   UNL     1       7.352   5.327  -1.646  0.00  0.00    +0.000 A 
ENDBRANCH   5   7
BRANCH   1  13
ATOM     13  C   UNL     1       7.952   0.227  -0.016  0.00  0.00    +0.000 C 
ATOM     14  C   UNL     1       8.728  -0.245  -1.240  0.00  0.00    +0.000 C 
ATOM     15  C   UNL     1       8.974  -0.899   0.082  0.00  0.00    +0.000 C 
BRANCH  13  19
ATOM     16  C   UNL     1       3.804  -0.733   0.383  0.00  0.00    +0.000 A 
ATOM     17  N   UNL     1       4.176  -0.086  -0.738  0.00  0.00    +0.000 NA
ATOM     18  C   UNL     1       5.498   0.201  -0.841  0.00  0.00    +0.000 A 
ATOM     19  C   UNL     1       6.467  -0.133   0.098  0.00  0.00    +0.000 A 
ATOM     20  C   UNL     1       5.934  -0.769   1.208  0.00  0.00    +0.000 A 
ATOM     21  N   UNL     1       4.632  -1.087   1.382  0.00  0.00    +0.000 NA
BRANCH  16  23
ATOM     22  N   UNL     1       1.301  -1.412   0.644  0.00  0.00    +0.000 NA
ATOM     23  C   UNL     1       2.412  -1.103   0.523  0.00  0.00    +0.000 C 
ENDBRANCH  16  23
ENDBRANCH  13  19
ENDBRANCH   1  13
TORSDOF 4
