REMARK  Name = 
REMARK  6 active torsions:
REMARK  status: ('A' for Active; 'I' for Inactive)
REMARK    1  A    between atoms: C_1  and  C_2
REMARK    2  A    between atoms: C_2  and  C_3
REMARK    3  A    between atoms: C_5  and  N_6
REMARK    4  A    between atoms: N_6  and  C_7
REMARK    5  A    between atoms: C_7  and  C_8
REMARK    6  A    between atoms: C_11  and  C_12
REMARK                            x       y       z     vdW  Elec       q    Type
REMARK                         _______ _______ _______ _____ _____    ______ ____
ROOT
ATOM      1  C   UNL     1       2.596   2.923  -3.125  0.00  0.00    +0.000 C 
ATOM      2  C   UNL     1       1.446   3.312  -4.043  0.00  0.00    +0.000 C 
ATOM      3  C   UNL     1       2.815   3.851  -4.308  0.00  0.00    +0.000 C 
ENDROOT
BRANCH   1   4
ATOM      4  C   UNL     1       2.689   3.544  -1.711  0.00  0.00    +0.000 A 
ATOM      5  N   UNL     1       3.914   3.700  -1.155  0.00  0.00    +0.000 NA
ATOM      6  C   UNL     1       3.972   3.993   0.161  0.00  0.00    +0.000 A 
ATOM      7  C   UNL     1       2.860   4.189   0.944  0.00  0.00    +0.000 A 
ATOM      8  C   UNL     1       1.656   4.066   0.292  0.00  0.00    +0.000 A 
ATOM      9  N   UNL     1       1.542   3.749  -1.018  0.00  0.00    +0.000 NA
BRANCH   7  10
ATOM     10  C   UNL     1       2.996   4.438   2.385  0.00  0.00    +0.000 C 
ATOM     11  N   UNL     1       1.963   5.063   3.026  0.00  0.00    +0.000 N 
ATOM     12  O   UNL     1       4.005   4.106   2.991  0.00  0.00    +0.000 OA
ATOM     13  H   UNL     1       1.224   5.561   2.550  0.00  0.00    +0.000 HD
ATOM     14  H   UNL     1       2.116   5.288   4.002  0.00  0.00    +0.000 HD
ENDBRANCH   7  10
ENDBRANCH   1   4
BRANCH   1  15
ATOM     15  N   UNL     1       3.101   1.518  -3.239  0.00  0.00    +0.000 NA
ATOM     16  H   UNL     1       3.059   1.192  -4.202  0.00  0.00    +0.000 HD
BRANCH  15  21
ATOM     17  C   UNL     1       2.490  -1.671  -0.096  0.00  0.00    +0.000 C 
ATOM     18  C   UNL     1       2.401  -1.876  -1.616  0.00  0.00    +0.000 C 
ATOM     19  C   UNL     1       3.021  -3.239  -1.955  0.00  0.00    +0.000 C 
ATOM     20  C   UNL     1       3.140  -0.782  -2.409  0.00  0.00    +0.000 C 
ATOM     21  C   UNL     1       2.411   0.565  -2.349  0.00  0.00    +0.000 C 
ATOM     22  C   UNL     1       0.941   0.378  -2.731  0.00  0.00    +0.000 C 
ATOM     23  C   UNL     1       0.297  -0.739  -1.930  0.00  0.00    +0.000 C 
ATOM     24  O   UNL     1       1.031  -1.954  -2.039  0.00  0.00    +0.000 OA
ENDBRANCH  15  21
ENDBRANCH   1  15
TORSDOF 4
