REMARK  Name = 
REMARK  9 active torsions:
REMARK  status: ('A' for Active; 'I' for Inactive)
REMARK    1  A    between atoms: C_2  and  C_21
REMARK    2  A    between atoms: N_3  and  C_4
REMARK    3  A    between atoms: C_4  and  C_5
REMARK    4  A    between atoms: C_8  and  C_9
REMARK    5  A    between atoms: C_9  and  C_10
REMARK    6  A    between atoms: C_10  and  O_11
REMARK    7  A    between atoms: C_10  and  C_12
REMARK    8  A    between atoms: C_12  and  N_13
REMARK    9  A    between atoms: C_16  and  O_17
REMARK                            x       y       z     vdW  Elec       q    Type
REMARK                         _______ _______ _______ _____ _____    ______ ____
ROOT
ATOM      1  C   UNL     1       7.986  -3.342  -2.495  0.00  0.00    +0.000 A 
ATOM      2  C   UNL     1       7.232  -3.791  -3.583  0.00  0.00    +0.000 A 
ATOM      3  C   UNL     1       6.855  -2.916  -4.604  0.00  0.00    +0.000 A 
ATOM      4  C   UNL     1       7.237  -1.569  -4.562  0.00  0.00    +0.000 A 
ATOM      5  C   UNL     1       8.040  -1.128  -3.503  0.00  0.00    +0.000 A 
ATOM      6  C   UNL     1       8.420  -2.006  -2.482  0.00  0.00    +0.000 A 
ENDROOT
BRANCH   1   7
ATOM      7  C   UNL     1       8.352  -4.287  -1.390  0.00  0.00    +0.000 C 
BRANCH   7  10
ATOM      8  O   UNL     1       8.621  -7.093  -1.740  0.00  0.00    +0.000 OA
ATOM      9  C   UNL     1       9.612  -6.374  -1.792  0.00  0.00    +0.000 C 
ATOM     10  N   UNL     1       9.552  -5.009  -1.706  0.00  0.00    +0.000 N 
ATOM     11  H   UNL     1      10.407  -4.472  -1.682  0.00  0.00    +0.000 HD
BRANCH   9  12
ATOM     12  C   UNL     1      10.953  -6.927  -2.010  0.00  0.00    +0.000 A 
ATOM     13  C   UNL     1      11.116  -8.147  -2.650  0.00  0.00    +0.000 A 
ATOM     14  S   UNL     1      12.748  -8.596  -2.848  0.00  0.00    +0.000 S 
ATOM     15  C   UNL     1      13.293  -7.195  -2.041  0.00  0.00    +0.000 A 
ATOM     16  N   UNL     1      14.617  -6.964  -1.860  0.00  0.00    +0.000 NA
ATOM     17  C   UNL     1      14.886  -5.883  -1.206  0.00  0.00    +0.000 A 
ATOM     18  N   UNL     1      13.946  -5.019  -0.707  0.00  0.00    +0.000 N 
ATOM     19  C   UNL     1      12.596  -5.194  -0.896  0.00  0.00    +0.000 A 
ATOM     20  O   UNL     1      11.789  -4.362  -0.496  0.00  0.00    +0.000 OA
ATOM     21  C   UNL     1      12.242  -6.398  -1.628  0.00  0.00    +0.000 A 
ATOM     22  H   UNL     1      14.221  -4.185  -0.209  0.00  0.00    +0.000 HD
ENDBRANCH   9  12
ENDBRANCH   7  10
ENDBRANCH   1   7
BRANCH   4  23
ATOM     23  C   UNL     1       6.812  -0.613  -5.648  0.00  0.00    +0.000 C 
BRANCH  23  24
ATOM     24  C   UNL     1       5.292  -0.409  -5.794  0.00  0.00    +0.000 C 
BRANCH  24  25
ATOM     25  O   UNL     1       5.105   0.463  -6.922  0.00  0.00    +0.000 OA
ATOM     26  H   UNL     1       4.531   1.193  -6.623  0.00  0.00    +0.000 HD
ENDBRANCH  24  25
BRANCH  24  27
ATOM     27  C   UNL     1       4.647   0.207  -4.519  0.00  0.00    +0.000 C 
BRANCH  27  28
ATOM     28  N   UNL     1       3.196   0.475  -4.650  0.00  0.00    +0.000 NA
ATOM     29  C   UNL     1       2.392  -0.764  -4.722  0.00  0.00    +0.000 C 
ATOM     30  C   UNL     1       1.497  -0.847  -3.486  0.00  0.00    +0.000 C 
ATOM     31  C   UNL     1       2.015   0.225  -2.553  0.00  0.00    +0.000 C 
ATOM     32  C   UNL     1       2.659   1.237  -3.500  0.00  0.00    +0.000 C 
BRANCH  31  33
ATOM     33  O   UNL     1       2.933  -0.349  -1.626  0.00  0.00    +0.000 OA
ATOM     34  H   UNL     1       3.823  -0.013  -1.817  0.00  0.00    +0.000 HD
ENDBRANCH  31  33
ENDBRANCH  27  28
ENDBRANCH  24  27
ENDBRANCH  23  24
ENDBRANCH   4  23
TORSDOF 9
