REMARK  Name = 
REMARK  8 active torsions:
REMARK  status: ('A' for Active; 'I' for Inactive)
REMARK    1  A    between atoms: C_1  and  C_2
REMARK    2  A    between atoms: C_2  and  O_3
REMARK    3  A    between atoms: O_3  and  C_4
REMARK    4  A    between atoms: C_7  and  C_8
REMARK    5  A    between atoms: C_8  and  O_9
REMARK    6  A    between atoms: O_9  and  C_10
REMARK    7  A    between atoms: C_13  and  C_14
REMARK    8  A    between atoms: C_18  and  N_19
REMARK                            x       y       z     vdW  Elec       q    Type
REMARK                         _______ _______ _______ _____ _____    ______ ____
ROOT
ATOM      1  C   UNL     1      10.536  -1.721  -0.760  0.00  0.00    +0.000 A 
ATOM      2  N   UNL     1      10.938  -2.070  -2.008  0.00  0.00    +0.000 NA
ATOM      3  C   UNL     1      12.248  -2.364  -2.194  0.00  0.00    +0.000 A 
ATOM      4  C   UNL     1      13.207  -2.320  -1.191  0.00  0.00    +0.000 A 
ATOM      5  C   UNL     1      12.785  -1.938   0.086  0.00  0.00    +0.000 A 
ATOM      6  C   UNL     1      11.433  -1.645   0.291  0.00  0.00    +0.000 A 
ENDROOT
BRANCH   4   7
ATOM      7  C   UNL     1      14.629  -2.669  -1.413  0.00  0.00    +0.000 C 
ATOM      8  N   UNL     1      15.030  -3.094  -2.648  0.00  0.00    +0.000 N 
ATOM      9  O   UNL     1      15.438  -2.591  -0.497  0.00  0.00    +0.000 OA
ATOM     10  H   UNL     1      14.450  -3.231  -3.461  0.00  0.00    +0.000 HD
ATOM     11  H   UNL     1      16.009  -3.342  -2.741  0.00  0.00    +0.000 HD
ENDBRANCH   4   7
BRANCH   6  12
ATOM     12  N   UNL     1      10.986  -1.288   1.611  0.00  0.00    +0.000 N 
ATOM     13  O   UNL     1      10.151  -2.027   2.149  0.00  0.00    +0.000 OA
ATOM     14  O   UNL     1      11.522  -0.302   2.134  0.00  0.00    +0.000 OA
ENDBRANCH   6  12
BRANCH   1  15
ATOM     15  O   UNL     1       9.206  -1.412  -0.575  0.00  0.00    +0.000 OA
BRANCH  15  16
ATOM     16  C   UNL     1       8.426  -1.650  -1.750  0.00  0.00    +0.000 C 
BRANCH  16  20
ATOM     17  C   UNL     1       4.341  -0.768  -1.050  0.00  0.00    +0.000 A 
ATOM     18  C   UNL     1       4.763  -2.068  -0.825  0.00  0.00    +0.000 A 
ATOM     19  C   UNL     1       6.109  -2.367  -1.022  0.00  0.00    +0.000 A 
ATOM     20  C   UNL     1       6.979  -1.369  -1.469  0.00  0.00    +0.000 A 
ATOM     21  C   UNL     1       6.451  -0.099  -1.669  0.00  0.00    +0.000 A 
ATOM     22  N   UNL     1       5.154   0.221  -1.474  0.00  0.00    +0.000 NA
BRANCH  17  23
ATOM     23  O   UNL     1       2.996  -0.511  -0.876  0.00  0.00    +0.000 OA
BRANCH  23  25
ATOM     24  C   UNL     1       1.246   1.078  -0.518  0.00  0.00    +0.000 C 
ATOM     25  C   UNL     1       2.747   0.868  -0.598  0.00  0.00    +0.000 C 
ENDBRANCH  23  25
ENDBRANCH  17  23
ENDBRANCH  16  20
ENDBRANCH  15  16
ENDBRANCH   1  15
TORSDOF 7
