REMARK  Name = 
REMARK  5 active torsions:
REMARK  status: ('A' for Active; 'I' for Inactive)
REMARK    1  A    between atoms: C_2  and  C_5
REMARK    2  A    between atoms: C_7  and  O_8
REMARK    3  A    between atoms: O_8  and  C_9
REMARK    4  A    between atoms: C_9  and  C_10
REMARK    5  A    between atoms: C_17  and  C_18
REMARK                            x       y       z     vdW  Elec       q    Type
REMARK                         _______ _______ _______ _____ _____    ______ ____
ROOT
ATOM      1  C   UNL     1       2.900  -0.144   1.365  0.00  0.00    +0.000 A 
ATOM      2  C   UNL     1       3.115  -1.347   2.043  0.00  0.00    +0.000 A 
ATOM      3  C   UNL     1       3.536  -1.289   3.358  0.00  0.00    +0.000 A 
ATOM      4  N   UNL     1       3.782  -0.137   4.013  0.00  0.00    +0.000 NA
ATOM      5  C   UNL     1       3.584   1.032   3.362  0.00  0.00    +0.000 A 
ATOM      6  C   UNL     1       3.146   1.061   2.040  0.00  0.00    +0.000 A 
ENDROOT
BRANCH   5   7
ATOM      7  C   UNL     1       3.849   2.247   4.151  0.00  0.00    +0.000 A 
ATOM      8  C   UNL     1       4.881   2.274   5.101  0.00  0.00    +0.000 A 
ATOM      9  C   UNL     1       5.092   3.425   5.843  0.00  0.00    +0.000 A 
ATOM     10  N   UNL     1       4.355   4.546   5.712  0.00  0.00    +0.000 NA
ATOM     11  C   UNL     1       3.361   4.511   4.803  0.00  0.00    +0.000 A 
ATOM     12  C   UNL     1       3.076   3.408   4.013  0.00  0.00    +0.000 A 
ENDBRANCH   5   7
BRANCH   1  14
ATOM     13  F   UNL     1       2.197  -1.348  -0.589  0.00  0.00    +0.000 F 
ATOM     14  C   UNL     1       2.400  -0.115  -0.053  0.00  0.00    +0.000 C 
ATOM     15  F   UNL     1       3.257   0.527  -0.892  0.00  0.00    +0.000 F 
ATOM     16  F   UNL     1       1.212   0.542  -0.161  0.00  0.00    +0.000 F 
ENDBRANCH   1  14
BRANCH   3  17
ATOM     17  O   UNL     1       3.734  -2.489   4.010  0.00  0.00    +0.000 OA
BRANCH  17  18
ATOM     18  C   UNL     1       3.674  -2.337   5.430  0.00  0.00    +0.000 C 
BRANCH  18  19
ATOM     19  C   UNL     1       3.974  -3.659   6.091  0.00  0.00    +0.000 A 
ATOM     20  C   UNL     1       5.242  -4.236   5.976  0.00  0.00    +0.000 A 
ATOM     21  C   UNL     1       5.497  -5.423   6.643  0.00  0.00    +0.000 A 
ATOM     22  N   UNL     1       4.587  -6.067   7.404  0.00  0.00    +0.000 NA
ATOM     23  C   UNL     1       3.367  -5.499   7.497  0.00  0.00    +0.000 A 
ATOM     24  C   UNL     1       3.015  -4.313   6.869  0.00  0.00    +0.000 A 
ENDBRANCH  18  19
ENDBRANCH  17  18
ENDBRANCH   3  17
TORSDOF 5
