REMARK  Name = 
REMARK  8 active torsions:
REMARK  status: ('A' for Active; 'I' for Inactive)
REMARK    1  A    between atoms: C_2  and  C_3
REMARK    2  A    between atoms: C_3  and  N_4
REMARK    3  A    between atoms: C_3  and  C_27
REMARK    4  A    between atoms: N_4  and  C_5
REMARK    5  A    between atoms: C_5  and  C_6
REMARK    6  A    between atoms: C_9  and  C_10
REMARK    7  A    between atoms: C_10  and  N_11
REMARK    8  A    between atoms: C_12  and  C_14
REMARK                            x       y       z     vdW  Elec       q    Type
REMARK                         _______ _______ _______ _____ _____    ______ ____
ROOT
ATOM      1  C   UNL     1       0.208  -0.678  -1.313  0.00  0.00    +0.000 A 
ATOM      2  C   UNL     1      -0.374  -1.626  -0.473  0.00  0.00    +0.000 A 
ATOM      3  C   UNL     1      -1.762  -1.756  -0.457  0.00  0.00    +0.000 A 
ATOM      4  C   UNL     1      -2.543  -0.946  -1.283  0.00  0.00    +0.000 A 
ATOM      5  C   UNL     1      -1.876   0.004  -2.049  0.00  0.00    +0.000 A 
ATOM      6  N   UNL     1      -0.527   0.139  -2.107  0.00  0.00    +0.000 NA
ENDROOT
BRANCH   1   7
ATOM      7  C   UNL     1       1.717  -0.527  -1.358  0.00  0.00    +0.000 C 
BRANCH   7   8
ATOM      8  N   UNL     1       2.386  -1.778  -1.763  0.00  0.00    +0.000 NA
ATOM      9  H   UNL     1       2.033  -2.029  -2.687  0.00  0.00    +0.000 HD
BRANCH   8  10
ATOM     10  C   UNL     1       3.858  -1.653  -1.808  0.00  0.00    +0.000 C 
BRANCH  10  11
ATOM     11  C   UNL     1       4.480  -3.017  -2.250  0.00  0.00    +0.000 C 
ATOM     12  C   UNL     1       4.125  -4.171  -1.284  0.00  0.00    +0.000 C 
ATOM     13  C   UNL     1       4.799  -5.487  -1.665  0.00  0.00    +0.000 C 
ATOM     14  C   UNL     1       6.308  -5.324  -1.794  0.00  0.00    +0.000 C 
ATOM     15  C   UNL     1       6.653  -4.244  -2.812  0.00  0.00    +0.000 C 
ATOM     16  C   UNL     1       6.010  -2.908  -2.445  0.00  0.00    +0.000 C 
ENDBRANCH  10  11
BRANCH  10  18
ATOM     17  N   UNL     1       4.940  -0.863   0.477  0.00  0.00    +0.000 NA
ATOM     18  C   UNL     1       4.450  -1.212  -0.519  0.00  0.00    +0.000 C 
ENDBRANCH  10  18
ENDBRANCH   8  10
ENDBRANCH   7   8
ENDBRANCH   1   7
BRANCH   4  19
ATOM     19  C   UNL     1      -4.039  -1.072  -1.336  0.00  0.00    +0.000 C 
BRANCH  19  20
ATOM     20  N   UNL     1      -4.684  -0.197  -0.403  0.00  0.00    +0.000 N 
ATOM     21  C   UNL     1      -6.050  -0.120  -0.287  0.00  0.00    +0.000 C 
ATOM     22  O   UNL     1      -6.809  -0.717  -1.047  0.00  0.00    +0.000 OA
ATOM     23  H   UNL     1      -4.136   0.065   0.413  0.00  0.00    +0.000 HD
BRANCH  21  24
ATOM     24  C   UNL     1      -6.544   0.795   0.749  0.00  0.00    +0.000 A 
ATOM     25  C   UNL     1      -7.791   1.392   0.617  0.00  0.00    +0.000 A 
ATOM     26  S   UNL     1      -8.163   2.472   1.883  0.00  0.00    +0.000 S 
ATOM     27  C   UNL     1      -6.685   2.146   2.676  0.00  0.00    +0.000 A 
ATOM     28  N   UNL     1      -6.391   2.760   3.852  0.00  0.00    +0.000 NA
ATOM     29  C   UNL     1      -5.238   2.419   4.345  0.00  0.00    +0.000 A 
ATOM     30  N   UNL     1      -4.371   1.523   3.759  0.00  0.00    +0.000 N 
ATOM     31  O   UNL     1      -3.166   1.294   4.424  0.00  0.00    +0.000 OA
ATOM     32  C   UNL     1      -4.615   0.872   2.554  0.00  0.00    +0.000 A 
ATOM     33  O   UNL     1      -3.869   0.083   1.976  0.00  0.00    +0.000 OA
ATOM     34  C   UNL     1      -5.913   1.240   1.973  0.00  0.00    +0.000 A 
ENDBRANCH  21  24
ENDBRANCH  19  20
ENDBRANCH   4  19
TORSDOF 8
