REMARK  Name = 
REMARK  5 active torsions:
REMARK  status: ('A' for Active; 'I' for Inactive)
REMARK    1  A    between atoms: C_2  and  C_4
REMARK    2  A    between atoms: C_7  and  O_8
REMARK    3  A    between atoms: O_8  and  C_9
REMARK    4  A    between atoms: C_9  and  C_10
REMARK    5  A    between atoms: C_14  and  N_15
REMARK                            x       y       z     vdW  Elec       q    Type
REMARK                         _______ _______ _______ _____ _____    ______ ____
ROOT
ATOM      1  C   UNL     1       4.743   4.070  -4.622  0.00  0.00    +0.000 C 
ENDROOT
BRANCH   1   2
ATOM      2  C   UNL     1       5.499   4.589  -5.821  0.00  0.00    +0.000 A 
ATOM      3  N   UNL     1       6.202   3.685  -6.545  0.00  0.00    +0.000 NA
ATOM      4  N   UNL     1       6.881   4.103  -7.624  0.00  0.00    +0.000 NA
ATOM      5  C   UNL     1       6.804   5.410  -7.948  0.00  0.00    +0.000 A 
ATOM      6  C   UNL     1       6.079   6.332  -7.206  0.00  0.00    +0.000 A 
ATOM      7  N   UNL     1       5.436   5.912  -6.101  0.00  0.00    +0.000 NA
BRANCH   6   8
ATOM      8  N   UNL     1       6.021   7.665  -7.551  0.00  0.00    +0.000 N 
ATOM      9  C   UNL     1       6.048   8.128  -8.932  0.00  0.00    +0.000 C 
ATOM     10  C   UNL     1       7.196   9.122  -9.091  0.00  0.00    +0.000 C 
ATOM     11  C   UNL     1       7.104  10.245  -8.055  0.00  0.00    +0.000 C 
ATOM     12  C   UNL     1       6.956   9.694  -6.633  0.00  0.00    +0.000 C 
ATOM     13  C   UNL     1       5.805   8.685  -6.532  0.00  0.00    +0.000 C 
ENDBRANCH   6   8
ENDBRANCH   1   2
BRANCH   1  14
ATOM     14  O   UNL     1       3.401   3.733  -4.993  0.00  0.00    +0.000 OA
BRANCH  14  18
ATOM     15  C   UNL     1       0.727   2.222  -2.166  0.00  0.00    +0.000 A 
ATOM     16  C   UNL     1       2.027   2.532  -1.756  0.00  0.00    +0.000 A 
ATOM     17  C   UNL     1       2.956   3.040  -2.673  0.00  0.00    +0.000 A 
ATOM     18  C   UNL     1       2.592   3.238  -4.007  0.00  0.00    +0.000 A 
ATOM     19  C   UNL     1       1.295   2.910  -4.415  0.00  0.00    +0.000 A 
ATOM     20  C   UNL     1       0.366   2.397  -3.505  0.00  0.00    +0.000 A 
BRANCH  15  22
ATOM     21  N   UNL     1      -0.156   2.060   0.096  0.00  0.00    +0.000 N 
ATOM     22  C   UNL     1      -0.281   1.685  -1.214  0.00  0.00    +0.000 C 
ATOM     23  O   UNL     1      -1.205   0.976  -1.584  0.00  0.00    +0.000 OA
ATOM     24  H   UNL     1      -0.907   1.781   0.714  0.00  0.00    +0.000 HD
ATOM     25  H   UNL     1       0.418   2.841   0.380  0.00  0.00    +0.000 HD
ENDBRANCH  15  22
ENDBRANCH  14  18
ENDBRANCH   1  14
TORSDOF 5
