REMARK  Name = 
REMARK  4 active torsions:
REMARK  status: ('A' for Active; 'I' for Inactive)
REMARK    1  A    between atoms: N_5  and  C_6
REMARK    2  A    between atoms: C_6  and  C_7
REMARK    3  A    between atoms: C_7  and  C_8
REMARK    4  A    between atoms: C_12  and  C_13
REMARK                            x       y       z     vdW  Elec       q    Type
REMARK                         _______ _______ _______ _____ _____    ______ ____
ROOT
ATOM      1  C   UNL     1      -2.016   5.747   0.115  0.00  0.00    +0.000 A 
ATOM      2  C   UNL     1      -3.288   5.158   0.159  0.00  0.00    +0.000 A 
ATOM      3  C   UNL     1      -4.433   5.936   0.281  0.00  0.00    +0.000 A 
ATOM      4  C   UNL     1      -4.326   7.320   0.373  0.00  0.00    +0.000 A 
ATOM      5  C   UNL     1      -3.075   7.961   0.360  0.00  0.00    +0.000 A 
ATOM      6  C   UNL     1      -1.929   7.151   0.206  0.00  0.00    +0.000 A 
ENDROOT
BRANCH   5   7
ATOM      7  C   UNL     1      -2.988   9.420   0.545  0.00  0.00    +0.000 A 
ATOM      8  C   UNL     1      -3.835  10.116   1.399  0.00  0.00    +0.000 A 
ATOM      9  N   UNL     1      -3.807  11.449   1.609  0.00  0.00    +0.000 NA
ATOM     10  C   UNL     1      -2.867  12.118   0.927  0.00  0.00    +0.000 A 
ATOM     11  N   UNL     1      -1.981  11.577   0.079  0.00  0.00    +0.000 NA
ATOM     12  C   UNL     1      -2.068  10.237  -0.090  0.00  0.00    +0.000 A 
ENDBRANCH   5   7
BRANCH   1  13
ATOM     13  C   UNL     1      -0.737   4.931  -0.013  0.00  0.00    +0.000 C 
BRANCH  13  14
ATOM     14  C   UNL     1      -0.948   3.411  -0.016  0.00  0.00    +0.000 C 
BRANCH  14  19
ATOM     15  C   UNL     1      -0.306  -1.390   0.064  0.00  0.00    +0.000 A 
ATOM     16  C   UNL     1      -1.233  -0.551  -0.495  0.00  0.00    +0.000 A 
ATOM     17  N   UNL     1      -1.060   0.778  -0.592  0.00  0.00    +0.000 NA
ATOM     18  C   UNL     1       0.084   1.292  -0.111  0.00  0.00    +0.000 A 
ATOM     19  N   UNL     1       0.301   2.673  -0.144  0.00  0.00    +0.000 N 
ATOM     20  N   UNL     1       1.044   0.556   0.462  0.00  0.00    +0.000 NA
ATOM     21  C   UNL     1       0.831  -0.775   0.527  0.00  0.00    +0.000 A 
ATOM     22  H   UNL     1       0.998   2.848   0.572  0.00  0.00    +0.000 HD
ENDBRANCH  14  19
ENDBRANCH  13  14
ENDBRANCH   1  13
TORSDOF 4
