REMARK  Name = 
REMARK  8 active torsions:
REMARK  status: ('A' for Active; 'I' for Inactive)
REMARK    1  A    between atoms: C_1  and  C_2
REMARK    2  A    between atoms: C_2  and  C_3
REMARK    3  A    between atoms: C_3  and  N_4
REMARK    4  A    between atoms: C_3  and  C_17
REMARK    5  A    between atoms: C_5  and  C_7
REMARK    6  A    between atoms: C_20  and  C_21
REMARK    7  A    between atoms: C_21  and  N_22
REMARK    8  A    between atoms: C_23  and  C_25
REMARK                            x       y       z     vdW  Elec       q    Type
REMARK                         _______ _______ _______ _____ _____    ______ ____
ROOT
ATOM      1  C   UNL     1      16.742  -2.253  10.261  0.00  0.00    +0.000 C 
ENDROOT
BRANCH   1   2
ATOM      2  C   UNL     1      16.198  -2.285   8.836  0.00  0.00    +0.000 A 
ATOM      3  C   UNL     1      14.862  -1.948   8.585  0.00  0.00    +0.000 A 
ATOM      4  C   UNL     1      14.385  -1.855   7.272  0.00  0.00    +0.000 A 
ATOM      5  C   UNL     1      15.228  -2.119   6.184  0.00  0.00    +0.000 A 
ATOM      6  C   UNL     1      16.558  -2.474   6.432  0.00  0.00    +0.000 A 
ATOM      7  C   UNL     1      17.032  -2.573   7.741  0.00  0.00    +0.000 A 
BRANCH   5   8
ATOM      8  C   UNL     1      14.728  -2.008   4.769  0.00  0.00    +0.000 C 
BRANCH   8   9
ATOM      9  N   UNL     1      14.920  -0.680   4.235  0.00  0.00    +0.000 N 
ATOM     10  C   UNL     1      14.648  -0.419   2.910  0.00  0.00    +0.000 C 
ATOM     11  O   UNL     1      14.261  -1.286   2.132  0.00  0.00    +0.000 OA
ATOM     12  H   UNL     1      15.017   0.091   4.883  0.00  0.00    +0.000 HD
BRANCH  10  13
ATOM     13  C   UNL     1      14.881   1.030   2.499  0.00  0.00    +0.000 C 
ATOM     14  C   UNL     1      16.363   1.402   2.639  0.00  0.00    +0.000 C 
ATOM     15  C   UNL     1      16.625   2.803   2.093  0.00  0.00    +0.000 C 
ATOM     16  C   UNL     1      16.086   2.958   0.673  0.00  0.00    +0.000 C 
ATOM     17  N   UNL     1      14.660   2.637   0.614  0.00  0.00    +0.000 NA
ATOM     18  C   UNL     1      14.409   1.259   1.056  0.00  0.00    +0.000 C 
ATOM     19  H   UNL     1      14.334   2.739  -0.348  0.00  0.00    +0.000 HD
ENDBRANCH  10  13
ENDBRANCH   8   9
ENDBRANCH   5   8
ENDBRANCH   1   2
BRANCH   1  20
ATOM     20  N   UNL     1      17.184  -3.585  10.633  0.00  0.00    +0.000 N 
ATOM     21  C   UNL     1      17.236  -4.056  11.917  0.00  0.00    +0.000 C 
ATOM     22  O   UNL     1      16.777  -3.448  12.877  0.00  0.00    +0.000 OA
ATOM     23  H   UNL     1      17.760  -4.038   9.939  0.00  0.00    +0.000 HD
BRANCH  21  24
ATOM     24  C   UNL     1      17.839  -5.391  12.051  0.00  0.00    +0.000 A 
ATOM     25  C   UNL     1      17.458  -6.245  13.077  0.00  0.00    +0.000 A 
ATOM     26  S   UNL     1      18.227  -7.771  13.005  0.00  0.00    +0.000 S 
ATOM     27  C   UNL     1      19.131  -7.317  11.637  0.00  0.00    +0.000 A 
ATOM     28  N   UNL     1      20.018  -8.174  11.058  0.00  0.00    +0.000 NA
ATOM     29  C   UNL     1      20.647  -7.686  10.040  0.00  0.00    +0.000 A 
ATOM     30  N   UNL     1      20.474  -6.419   9.549  0.00  0.00    +0.000 N 
ATOM     31  C   UNL     1      19.579  -5.528  10.086  0.00  0.00    +0.000 A 
ATOM     32  O   UNL     1      19.419  -4.421   9.587  0.00  0.00    +0.000 OA
ATOM     33  C   UNL     1      18.844  -6.029  11.234  0.00  0.00    +0.000 A 
ATOM     34  H   UNL     1      20.985  -6.099   8.740  0.00  0.00    +0.000 HD
ENDBRANCH  21  24
ENDBRANCH   1  20
BRANCH   1  36
ATOM     35  C   UNL     1      17.488   0.185  10.086  0.00  0.00    +0.000 C 
ATOM     36  C   UNL     1      17.910  -1.250  10.379  0.00  0.00    +0.000 C 
ENDBRANCH   1  36
TORSDOF 7
