REMARK  Name = 
REMARK  7 active torsions:
REMARK  status: ('A' for Active; 'I' for Inactive)
REMARK    1  A    between atoms: C_2  and  C_20
REMARK    2  A    between atoms: N_3  and  C_4
REMARK    3  A    between atoms: C_4  and  C_5
REMARK    4  A    between atoms: C_8  and  O_9
REMARK    5  A    between atoms: O_9  and  C_10
REMARK    6  A    between atoms: C_10  and  C_11
REMARK    7  A    between atoms: C_11  and  C_12
REMARK                            x       y       z     vdW  Elec       q    Type
REMARK                         _______ _______ _______ _____ _____    ______ ____
ROOT
ATOM      1  C   UNL     1       2.324  -2.200  -1.102  0.00  0.00    +0.000 C 
ENDROOT
BRANCH   1   2
ATOM      2  C   UNL     1       3.242  -3.285  -1.617  0.00  0.00    +0.000 A 
ATOM      3  C   UNL     1       4.428  -2.940  -2.256  0.00  0.00    +0.000 A 
ATOM      4  C   UNL     1       5.280  -3.949  -2.704  0.00  0.00    +0.000 A 
ATOM      5  C   UNL     1       4.933  -5.285  -2.525  0.00  0.00    +0.000 A 
ATOM      6  C   UNL     1       3.711  -5.538  -1.914  0.00  0.00    +0.000 A 
ATOM      7  N   UNL     1       2.867  -4.579  -1.447  0.00  0.00    +0.000 NA
BRANCH   5   8
ATOM      8  O   UNL     1       5.679  -6.360  -2.936  0.00  0.00    +0.000 OA
BRANCH   8   9
ATOM      9  C   UNL     1       7.097  -6.131  -2.956  0.00  0.00    +0.000 C 
BRANCH   9  10
ATOM     10  C   UNL     1       7.840  -7.388  -3.422  0.00  0.00    +0.000 C 
BRANCH  10  11
ATOM     11  C   UNL     1       9.343  -7.204  -3.427  0.00  0.00    +0.000 A 
ATOM     12  C   UNL     1      10.088  -7.494  -2.280  0.00  0.00    +0.000 A 
ATOM     13  C   UNL     1      11.464  -7.315  -2.308  0.00  0.00    +0.000 A 
ATOM     14  N   UNL     1      12.141  -6.864  -3.384  0.00  0.00    +0.000 NA
ATOM     15  C   UNL     1      11.407  -6.582  -4.484  0.00  0.00    +0.000 A 
ATOM     16  C   UNL     1      10.028  -6.729  -4.551  0.00  0.00    +0.000 A 
ENDBRANCH  10  11
ENDBRANCH   9  10
ENDBRANCH   8   9
ENDBRANCH   5   8
ENDBRANCH   1   2
BRANCH   1  19
ATOM     17  O   UNL     1       2.585  -0.090  -2.941  0.00  0.00    +0.000 OA
ATOM     18  C   UNL     1       1.564  -0.776  -2.963  0.00  0.00    +0.000 C 
ATOM     19  N   UNL     1       1.340  -1.796  -2.077  0.00  0.00    +0.000 N 
ATOM     20  H   UNL     1       0.647  -2.503  -2.293  0.00  0.00    +0.000 HD
BRANCH  18  21
ATOM     21  C   UNL     1       0.483  -0.514  -3.914  0.00  0.00    +0.000 A 
ATOM     22  C   UNL     1       0.266   0.756  -4.424  0.00  0.00    +0.000 A 
ATOM     23  S   UNL     1      -1.047   0.830  -5.515  0.00  0.00    +0.000 S 
ATOM     24  C   UNL     1      -1.346  -0.836  -5.353  0.00  0.00    +0.000 A 
ATOM     25  N   UNL     1      -2.342  -1.450  -6.043  0.00  0.00    +0.000 NA
ATOM     26  C   UNL     1      -2.431  -2.724  -5.846  0.00  0.00    +0.000 A 
ATOM     27  N   UNL     1      -1.616  -3.444  -5.014  0.00  0.00    +0.000 N 
ATOM     28  C   UNL     1      -0.637  -2.860  -4.250  0.00  0.00    +0.000 A 
ATOM     29  O   UNL     1      -0.009  -3.519  -3.423  0.00  0.00    +0.000 OA
ATOM     30  C   UNL     1      -0.472  -1.436  -4.464  0.00  0.00    +0.000 A 
ATOM     31  H   UNL     1      -1.752  -4.430  -4.861  0.00  0.00    +0.000 HD
ENDBRANCH  18  21
ENDBRANCH   1  19
TORSDOF 7
