REMARK  Name = 
REMARK  4 active torsions:
REMARK  status: ('A' for Active; 'I' for Inactive)
REMARK    1  A    between atoms: C_2  and  C_4
REMARK    2  A    between atoms: C_7  and  C_8
REMARK    3  A    between atoms: C_8  and  C_9
REMARK    4  A    between atoms: C_9  and  C_10
REMARK                            x       y       z     vdW  Elec       q    Type
REMARK                         _______ _______ _______ _____ _____    ______ ____
ROOT
ATOM      1  C   UNL     1       2.930   1.192  -0.472  0.00  0.00    +0.000 A 
ATOM      2  C   UNL     1       4.297   1.285  -0.212  0.00  0.00    +0.000 A 
ATOM      3  C   UNL     1       5.024   2.351  -0.745  0.00  0.00    +0.000 A 
ATOM      4  C   UNL     1       4.365   3.301  -1.524  0.00  0.00    +0.000 A 
ATOM      5  N   UNL     1       3.041   3.207  -1.806  0.00  0.00    +0.000 NA
ATOM      6  C   UNL     1       2.357   2.158  -1.285  0.00  0.00    +0.000 A 
ENDROOT
BRANCH   1   8
ATOM      7  N   UNL     1       2.471  -0.466   1.244  0.00  0.00    +0.000 N 
ATOM      8  C   UNL     1       2.080   0.110   0.066  0.00  0.00    +0.000 C 
ATOM      9  O   UNL     1       1.048  -0.234  -0.494  0.00  0.00    +0.000 OA
ATOM     10  H   UNL     1       1.824  -1.125   1.657  0.00  0.00    +0.000 HD
ATOM     11  H   UNL     1       3.156  -0.041   1.853  0.00  0.00    +0.000 HD
ENDBRANCH   1   8
BRANCH   4  12
ATOM     12  C   UNL     1       5.111   4.476  -2.112  0.00  0.00    +0.000 C 
BRANCH  12  13
ATOM     13  C   UNL     1       4.539   5.798  -1.610  0.00  0.00    +0.000 C 
BRANCH  13  14
ATOM     14  C   UNL     1       5.253   6.976  -2.212  0.00  0.00    +0.000 A 
ATOM     15  N   UNL     1       4.776   7.471  -3.370  0.00  0.00    +0.000 NA
ATOM     16  C   UNL     1       5.394   8.562  -3.859  0.00  0.00    +0.000 A 
ATOM     17  C   UNL     1       6.464   9.167  -3.246  0.00  0.00    +0.000 A 
ATOM     18  C   UNL     1       6.889   8.573  -2.081  0.00  0.00    +0.000 A 
ATOM     19  N   UNL     1       6.311   7.480  -1.546  0.00  0.00    +0.000 NA
ENDBRANCH  13  14
ENDBRANCH  12  13
ENDBRANCH   4  12
TORSDOF 4
