REMARK  Name = 
REMARK  9 active torsions:
REMARK  status: ('A' for Active; 'I' for Inactive)
REMARK    1  A    between atoms: C_1  and  C_2
REMARK    2  A    between atoms: C_4  and  C_5
REMARK    3  A    between atoms: N_10  and  C_11
REMARK    4  A    between atoms: C_11  and  C_12
REMARK    5  A    between atoms: C_16  and  C_17
REMARK    6  A    between atoms: C_21  and  C_22
REMARK    7  A    between atoms: C_22  and  C_23
REMARK    8  A    between atoms: C_22  and  C_24
REMARK    9  A    between atoms: C_22  and  O_25
REMARK                            x       y       z     vdW  Elec       q    Type
REMARK                         _______ _______ _______ _____ _____    ______ ____
ROOT
ATOM      1  C   UNL     1       3.025   2.552  -0.126  0.00  0.00    +0.000 C 
ATOM      2  C   UNL     1       2.348   1.465   0.698  0.00  0.00    +0.000 C 
ATOM      3  C   UNL     1       1.687   1.972  -0.544  0.00  0.00    +0.000 C 
ENDROOT
BRANCH   1  10
ATOM      4  C   UNL     1       7.749   2.874  -3.892  0.00  0.00    +0.000 C 
ATOM      5  C   UNL     1       6.281   2.716  -3.634  0.00  0.00    +0.000 A 
ATOM      6  C   UNL     1       5.372   2.705  -4.661  0.00  0.00    +0.000 A 
ATOM      7  C   UNL     1       4.057   2.553  -4.280  0.00  0.00    +0.000 A 
ATOM      8  N   UNL     1       3.639   2.419  -2.998  0.00  0.00    +0.000 NA
ATOM      9  C   UNL     1       4.599   2.416  -2.070  0.00  0.00    +0.000 A 
ATOM     10  N   UNL     1       4.301   2.166  -0.734  0.00  0.00    +0.000 N 
ATOM     11  N   UNL     1       5.904   2.574  -2.345  0.00  0.00    +0.000 NA
ATOM     12  H   UNL     1       5.150   2.357  -0.211  0.00  0.00    +0.000 HD
BRANCH   7  13
ATOM     13  C   UNL     1       2.991   2.511  -5.324  0.00  0.00    +0.000 C 
ATOM     14  N   UNL     1       1.713   2.324  -4.867  0.00  0.00    +0.000 N 
ATOM     15  O   UNL     1       3.236   2.636  -6.519  0.00  0.00    +0.000 OA
ATOM     16  H   UNL     1       1.545   2.203  -3.874  0.00  0.00    +0.000 HD
ATOM     17  H   UNL     1       0.951   2.278  -5.526  0.00  0.00    +0.000 HD
ENDBRANCH   7  13
ENDBRANCH   1  10
BRANCH   1  18
ATOM     18  C   UNL     1       2.975   3.985   0.381  0.00  0.00    +0.000 A 
ATOM     19  C   UNL     1       2.636   5.041  -0.477  0.00  0.00    +0.000 A 
ATOM     20  C   UNL     1       2.365   6.312   0.020  0.00  0.00    +0.000 A 
ATOM     21  C   UNL     1       2.427   6.541   1.393  0.00  0.00    +0.000 A 
ATOM     22  C   UNL     1       2.794   5.523   2.285  0.00  0.00    +0.000 A 
ATOM     23  C   UNL     1       3.122   4.271   1.749  0.00  0.00    +0.000 A 
BRANCH  22  24
ATOM     24  C   UNL     1       2.731   5.721   3.739  0.00  0.00    +0.000 A 
ATOM     25  C   UNL     1       1.717   6.484   4.323  0.00  0.00    +0.000 A 
ATOM     26  N   UNL     1       1.571   6.697   5.646  0.00  0.00    +0.000 NA
ATOM     27  C   UNL     1       2.478   6.108   6.453  0.00  0.00    +0.000 A 
ATOM     28  C   UNL     1       3.533   5.308   6.013  0.00  0.00    +0.000 A 
ATOM     29  C   UNL     1       3.637   5.122   4.628  0.00  0.00    +0.000 A 
BRANCH  28  30
ATOM     30  C   UNL     1       4.501   4.685   7.002  0.00  0.00    +0.000 C 
ATOM     31  C   UNL     1       5.236   5.769   7.801  0.00  0.00    +0.000 C 
ATOM     32  C   UNL     1       3.774   3.721   7.945  0.00  0.00    +0.000 C 
BRANCH  30  33
ATOM     33  O   UNL     1       5.497   3.910   6.324  0.00  0.00    +0.000 OA
ATOM     34  H   UNL     1       6.046   4.526   5.809  0.00  0.00    +0.000 HD
ENDBRANCH  30  33
ENDBRANCH  28  30
ENDBRANCH  22  24
ENDBRANCH   1  18
TORSDOF 6
