REMARK  Name = 
REMARK  7 active torsions:
REMARK  status: ('A' for Active; 'I' for Inactive)
REMARK    1  A    between atoms: C_2  and  C_21
REMARK    2  A    between atoms: N_3  and  C_4
REMARK    3  A    between atoms: C_4  and  C_5
REMARK    4  A    between atoms: C_8  and  C_9
REMARK    5  A    between atoms: C_9  and  N_10
REMARK    6  A    between atoms: C_11  and  C_13
REMARK    7  A    between atoms: C_16  and  O_17
REMARK                            x       y       z     vdW  Elec       q    Type
REMARK                         _______ _______ _______ _____ _____    ______ ____
ROOT
ATOM      1  C   UNL     1       3.239  -3.577   0.729  0.00  0.00    +0.000 A 
ATOM      2  C   UNL     1       4.582  -3.331   1.024  0.00  0.00    +0.000 A 
ATOM      3  C   UNL     1       5.464  -4.398   1.200  0.00  0.00    +0.000 A 
ATOM      4  C   UNL     1       4.984  -5.698   1.073  0.00  0.00    +0.000 A 
ATOM      5  N   UNL     1       3.694  -5.963   0.738  0.00  0.00    +0.000 NA
ATOM      6  C   UNL     1       2.860  -4.906   0.578  0.00  0.00    +0.000 A 
ENDROOT
BRANCH   1   7
ATOM      7  C   UNL     1       2.256  -2.457   0.538  0.00  0.00    +0.000 C 
BRANCH   7  10
ATOM      8  O   UNL     1       0.523  -0.535  -0.517  0.00  0.00    +0.000 OA
ATOM      9  C   UNL     1       1.380  -1.020  -1.252  0.00  0.00    +0.000 C 
ATOM     10  N   UNL     1       2.216  -2.027  -0.837  0.00  0.00    +0.000 N 
ATOM     11  H   UNL     1       3.032  -2.244  -1.399  0.00  0.00    +0.000 HD
BRANCH   9  12
ATOM     12  C   UNL     1       1.543  -0.577  -2.643  0.00  0.00    +0.000 A 
ATOM     13  C   UNL     1       0.486   0.018  -3.318  0.00  0.00    +0.000 A 
ATOM     14  S   UNL     1       0.859   0.449  -4.927  0.00  0.00    +0.000 S 
ATOM     15  C   UNL     1       2.462  -0.098  -4.762  0.00  0.00    +0.000 A 
ATOM     16  N   UNL     1       3.351   0.012  -5.786  0.00  0.00    +0.000 NA
ATOM     17  C   UNL     1       4.538  -0.410  -5.508  0.00  0.00    +0.000 A 
ATOM     18  N   UNL     1       4.919  -0.941  -4.305  0.00  0.00    +0.000 N 
ATOM     19  C   UNL     1       4.048  -1.108  -3.257  0.00  0.00    +0.000 A 
ATOM     20  O   UNL     1       4.404  -1.650  -2.215  0.00  0.00    +0.000 OA
ATOM     21  C   UNL     1       2.702  -0.627  -3.506  0.00  0.00    +0.000 A 
ATOM     22  H   UNL     1       5.864  -1.266  -4.155  0.00  0.00    +0.000 HD
ENDBRANCH   9  12
ENDBRANCH   7  10
ENDBRANCH   1   7
BRANCH   4  23
ATOM     23  C   UNL     1       5.903  -6.876   1.307  0.00  0.00    +0.000 C 
BRANCH  23  24
ATOM     24  N   UNL     1       6.512  -7.360   0.085  0.00  0.00    +0.000 N 
ATOM     25  C   UNL     1       7.755  -6.950  -0.346  0.00  0.00    +0.000 C 
ATOM     26  O   UNL     1       8.460  -6.169   0.282  0.00  0.00    +0.000 OA
ATOM     27  H   UNL     1       5.905  -7.871  -0.542  0.00  0.00    +0.000 HD
BRANCH  25  28
ATOM     28  C   UNL     1       8.181  -7.621  -1.650  0.00  0.00    +0.000 C 
ATOM     29  C   UNL     1       9.564  -7.199  -2.177  0.00  0.00    +0.000 C 
ATOM     30  C   UNL     1       9.314  -6.530  -3.528  0.00  0.00    +0.000 C 
ATOM     31  C   UNL     1       8.038  -7.182  -4.035  0.00  0.00    +0.000 C 
ATOM     32  C   UNL     1       7.188  -7.315  -2.783  0.00  0.00    +0.000 C 
BRANCH  31  33
ATOM     33  O   UNL     1       8.301  -8.462  -4.597  0.00  0.00    +0.000 OA
ATOM     34  H   UNL     1       8.775  -9.009  -3.949  0.00  0.00    +0.000 HD
ENDBRANCH  31  33
ENDBRANCH  25  28
ENDBRANCH  23  24
ENDBRANCH   4  23
TORSDOF 7
