REMARK  Name = 
REMARK  6 active torsions:
REMARK  status: ('A' for Active; 'I' for Inactive)
REMARK    1  A    between atoms: C_1  and  O_2
REMARK    2  A    between atoms: O_2  and  C_3
REMARK    3  A    between atoms: C_5  and  C_6
REMARK    4  A    between atoms: C_6  and  N_7
REMARK    5  A    between atoms: C_12  and  C_13
REMARK    6  A    between atoms: C_13  and  O_15
REMARK                            x       y       z     vdW  Elec       q    Type
REMARK                         _______ _______ _______ _____ _____    ______ ____
ROOT
ATOM      1  N   UNL     1       1.698   1.837   5.210  0.00  0.00    +0.000 N 
ATOM      2  C   UNL     1       0.641   0.972   5.064  0.00  0.00    +0.000 A 
ATOM      3  N   UNL     1      -0.517   1.589   5.202  0.00  0.00    +0.000 NA
ATOM      4  C   UNL     1      -0.190   2.898   5.437  0.00  0.00    +0.000 A 
ATOM      5  C   UNL     1      -0.999   4.032   5.535  0.00  0.00    +0.000 A 
ATOM      6  C   UNL     1      -0.338   5.255   5.699  0.00  0.00    +0.000 A 
ATOM      7  C   UNL     1       1.049   5.277   5.867  0.00  0.00    +0.000 A 
ATOM      8  N   UNL     1       1.869   4.201   5.767  0.00  0.00    +0.000 NA
ATOM      9  C   UNL     1       1.189   3.063   5.526  0.00  0.00    +0.000 A 
ENDROOT
BRANCH   6  10
ATOM     10  C   UNL     1      -1.058   6.534   5.654  0.00  0.00    +0.000 C 
ATOM     11  O   UNL     1      -0.741   7.493   6.331  0.00  0.00    +0.000 OA
BRANCH  10  12
ATOM     12  O   UNL     1      -2.042   6.564   4.739  0.00  0.00    +0.000 OA
ATOM     13  H   UNL     1      -2.100   5.797   4.137  0.00  0.00    +0.000 HD
ENDBRANCH  10  12
ENDBRANCH   6  10
BRANCH   1  14
ATOM     14  C   UNL     1       3.076   1.551   4.856  0.00  0.00    +0.000 C 
BRANCH  14  17
ATOM     15  C   UNL     1       2.986   2.325   1.148  0.00  0.00    +0.000 A 
ATOM     16  C   UNL     1       3.018   2.527   2.519  0.00  0.00    +0.000 A 
ATOM     17  C   UNL     1       3.208   1.418   3.357  0.00  0.00    +0.000 A 
ATOM     18  C   UNL     1       3.413   0.169   2.763  0.00  0.00    +0.000 A 
ATOM     19  C   UNL     1       3.411   0.081   1.381  0.00  0.00    +0.000 A 
ATOM     20  N   UNL     1       3.192   1.130   0.561  0.00  0.00    +0.000 NA
BRANCH  15  22
ATOM     21  C   UNL     1       2.210   3.058  -0.917  0.00  0.00    +0.000 C 
ATOM     22  O   UNL     1       2.705   3.429   0.368  0.00  0.00    +0.000 OA
ENDBRANCH  15  22
ENDBRANCH  14  17
ENDBRANCH   1  14
TORSDOF 5
