REMARK  Name = 
REMARK  9 active torsions:
REMARK  status: ('A' for Active; 'I' for Inactive)
REMARK    1  A    between atoms: C_1  and  O_2
REMARK    2  A    between atoms: O_2  and  C_3
REMARK    3  A    between atoms: C_10  and  C_11
REMARK    4  A    between atoms: N_13  and  C_14
REMARK    5  A    between atoms: C_14  and  C_15
REMARK    6  A    between atoms: C_18  and  C_19
REMARK    7  A    between atoms: C_19  and  O_20
REMARK    8  A    between atoms: O_20  and  C_21
REMARK    9  A    between atoms: C_21  and  C_22
REMARK                            x       y       z     vdW  Elec       q    Type
REMARK                         _______ _______ _______ _____ _____    ______ ____
ROOT
ATOM      1  C   UNL     1       2.990  -3.253  -1.137  0.00  0.00    +0.000 C 
ENDROOT
BRANCH   1   2
ATOM      2  C   UNL     1       1.879  -3.468  -0.147  0.00  0.00    +0.000 A 
ATOM      3  C   UNL     1       1.545  -4.755   0.294  0.00  0.00    +0.000 A 
ATOM      4  C   UNL     1       0.524  -4.936   1.230  0.00  0.00    +0.000 A 
ATOM      5  C   UNL     1      -0.175  -3.834   1.740  0.00  0.00    +0.000 A 
ATOM      6  C   UNL     1       0.137  -2.553   1.271  0.00  0.00    +0.000 A 
ATOM      7  C   UNL     1       1.151  -2.373   0.333  0.00  0.00    +0.000 A 
BRANCH   5   8
ATOM      8  C   UNL     1      -1.218  -4.014   2.813  0.00  0.00    +0.000 C 
BRANCH   8   9
ATOM      9  O   UNL     1      -0.698  -4.729   3.933  0.00  0.00    +0.000 OA
BRANCH   9  10
ATOM     10  C   UNL     1       0.281  -3.982   4.663  0.00  0.00    +0.000 C 
BRANCH  10  11
ATOM     11  C   UNL     1       0.694  -4.762   5.882  0.00  0.00    +0.000 A 
ATOM     12  C   UNL     1       1.149  -6.071   5.751  0.00  0.00    +0.000 A 
ATOM     13  N   UNL     1       1.552  -6.821   6.804  0.00  0.00    +0.000 NA
ATOM     14  C   UNL     1       1.477  -6.208   8.004  0.00  0.00    +0.000 A 
ATOM     15  C   UNL     1       1.032  -4.905   8.148  0.00  0.00    +0.000 A 
ATOM     16  N   UNL     1       0.638  -4.150   7.095  0.00  0.00    +0.000 NA
ENDBRANCH  10  11
ENDBRANCH   9  10
ENDBRANCH   8   9
ENDBRANCH   5   8
ENDBRANCH   1   2
BRANCH   1  19
ATOM     17  C   UNL     1       3.343  -3.001  -3.540  0.00  0.00    +0.000 C 
ATOM     18  O   UNL     1       4.542  -2.799  -3.346  0.00  0.00    +0.000 OA
ATOM     19  N   UNL     1       2.496  -3.236  -2.491  0.00  0.00    +0.000 N 
ATOM     20  H   UNL     1       1.511  -3.413  -2.650  0.00  0.00    +0.000 HD
BRANCH  17  28
ATOM     21  C   UNL     1       0.192  -3.606  -4.834  0.00  0.00    +0.000 A 
ATOM     22  N   UNL     1      -0.903  -3.761  -5.609  0.00  0.00    +0.000 NA
ATOM     23  C   UNL     1      -0.785  -3.565  -6.924  0.00  0.00    +0.000 A 
ATOM     24  N   UNL     1       0.317  -3.226  -7.583  0.00  0.00    +0.000 NA
ATOM     25  C   UNL     1       1.385  -3.079  -6.781  0.00  0.00    +0.000 A 
ATOM     26  S   UNL     1       2.878  -2.653  -7.466  0.00  0.00    +0.000 S 
ATOM     27  C   UNL     1       3.629  -2.663  -5.946  0.00  0.00    +0.000 A 
ATOM     28  C   UNL     1       2.777  -2.981  -4.894  0.00  0.00    +0.000 A 
ATOM     29  C   UNL     1       1.429  -3.239  -5.397  0.00  0.00    +0.000 A 
BRANCH  21  31
ATOM     30  C   UNL     1      -1.253  -4.230  -3.096  0.00  0.00    +0.000 C 
ATOM     31  O   UNL     1       0.060  -3.814  -3.474  0.00  0.00    +0.000 OA
ENDBRANCH  21  31
ENDBRANCH  17  28
ENDBRANCH   1  19
TORSDOF 8
