REMARK  Name = 
REMARK  5 active torsions:
REMARK  status: ('A' for Active; 'I' for Inactive)
REMARK    1  A    between atoms: C_2  and  C_4
REMARK    2  A    between atoms: C_7  and  C_8
REMARK    3  A    between atoms: C_8  and  C_9
REMARK    4  A    between atoms: C_9  and  C_10
REMARK    5  A    between atoms: C_14  and  C_15
REMARK                            x       y       z     vdW  Elec       q    Type
REMARK                         _______ _______ _______ _____ _____    ______ ____
ROOT
ATOM      1  C   UNL     1       4.901   1.692  -5.775  0.00  0.00    +0.000 C 
ENDROOT
BRANCH   1   2
ATOM      2  C   UNL     1       5.660   1.771  -7.073  0.00  0.00    +0.000 A 
ATOM      3  C   UNL     1       6.663   2.708  -7.272  0.00  0.00    +0.000 A 
ATOM      4  N   UNL     1       7.372   2.815  -8.415  0.00  0.00    +0.000 NA
ATOM      5  C   UNL     1       7.068   1.945  -9.410  0.00  0.00    +0.000 A 
ATOM      6  C   UNL     1       6.098   0.942  -9.334  0.00  0.00    +0.000 A 
ATOM      7  C   UNL     1       5.397   0.876  -8.118  0.00  0.00    +0.000 A 
BRANCH   6   8
ATOM      8  C   UNL     1       5.822   0.009 -10.445  0.00  0.00    +0.000 A 
ATOM      9  C   UNL     1       6.814  -0.416 -11.338  0.00  0.00    +0.000 A 
ATOM     10  N   UNL     1       6.627  -1.288 -12.364  0.00  0.00    +0.000 NA
ATOM     11  C   UNL     1       5.378  -1.780 -12.515  0.00  0.00    +0.000 A 
ATOM     12  C   UNL     1       4.324  -1.430 -11.696  0.00  0.00    +0.000 A 
ATOM     13  F   UNL     1       3.106  -1.953 -11.885  0.00  0.00    +0.000 F 
ATOM     14  C   UNL     1       4.542  -0.527 -10.663  0.00  0.00    +0.000 A 
ENDBRANCH   6   8
ENDBRANCH   1   2
BRANCH   1  15
ATOM     15  C   UNL     1       5.520   0.668  -4.820  0.00  0.00    +0.000 C 
BRANCH  15  19
ATOM     16  C   UNL     1       3.424   0.382  -1.052  0.00  0.00    +0.000 A 
ATOM     17  C   UNL     1       3.061  -0.446  -2.121  0.00  0.00    +0.000 A 
ATOM     18  C   UNL     1       3.732  -0.344  -3.343  0.00  0.00    +0.000 A 
ATOM     19  C   UNL     1       4.775   0.579  -3.510  0.00  0.00    +0.000 A 
ATOM     20  C   UNL     1       5.111   1.425  -2.446  0.00  0.00    +0.000 A 
ATOM     21  C   UNL     1       4.438   1.330  -1.225  0.00  0.00    +0.000 A 
BRANCH  16  23
ATOM     22  N   UNL     1       2.222  -0.913   0.628  0.00  0.00    +0.000 N 
ATOM     23  C   UNL     1       2.752   0.298   0.271  0.00  0.00    +0.000 C 
ATOM     24  O   UNL     1       2.707   1.255   1.033  0.00  0.00    +0.000 OA
ATOM     25  H   UNL     1       1.881  -0.984   1.578  0.00  0.00    +0.000 HD
ATOM     26  H   UNL     1       2.481  -1.769   0.160  0.00  0.00    +0.000 HD
ENDBRANCH  16  23
ENDBRANCH  15  19
ENDBRANCH   1  15
TORSDOF 5
