REMARK  Name = 
REMARK  5 active torsions:
REMARK  status: ('A' for Active; 'I' for Inactive)
REMARK    1  A    between atoms: N_1  and  C_2
REMARK    2  A    between atoms: C_2  and  C_3
REMARK    3  A    between atoms: C_3  and  C_4
REMARK    4  A    between atoms: C_7  and  C_8
REMARK    5  A    between atoms: C_8  and  N_9
REMARK                            x       y       z     vdW  Elec       q    Type
REMARK                         _______ _______ _______ _____ _____    ______ ____
ROOT
ATOM      1  C   UNL     1       4.596   1.323  -0.300  0.00  0.00    +0.000 A 
ATOM      2  C   UNL     1       5.326   1.367   0.887  0.00  0.00    +0.000 A 
ATOM      3  C   UNL     1       6.709   1.388   0.814  0.00  0.00    +0.000 A 
ATOM      4  C   UNL     1       7.339   1.355  -0.431  0.00  0.00    +0.000 A 
ATOM      5  C   UNL     1       6.529   1.268  -1.559  0.00  0.00    +0.000 A 
ATOM      6  N   UNL     1       5.182   1.255  -1.519  0.00  0.00    +0.000 NA
ENDROOT
BRANCH   1   7
ATOM      7  C   UNL     1       3.085   1.323  -0.280  0.00  0.00    +0.000 C 
BRANCH   7   8
ATOM      8  C   UNL     1       2.539  -0.108  -0.271  0.00  0.00    +0.000 C 
BRANCH   8   9
ATOM      9  N   UNL     1       1.074  -0.120  -0.307  0.00  0.00    +0.000 NA
ATOM     10  H   UNL     1       0.755  -1.087  -0.350  0.00  0.00    +0.000 HD
ATOM     11  H   UNL     1       0.761   0.312  -1.177  0.00  0.00    +0.000 HD
ENDBRANCH   8   9
ENDBRANCH   7   8
ENDBRANCH   1   7
BRANCH   4  12
ATOM     12  C   UNL     1       8.812   1.538  -0.564  0.00  0.00    +0.000 C 
BRANCH  12  13
ATOM     13  N   UNL     1       9.593   0.302  -0.706  0.00  0.00    +0.000 N 
ATOM     14  C   UNL     1      10.550  -0.042   0.237  0.00  0.00    +0.000 A 
ATOM     15  C   UNL     1      11.756   0.287  -0.351  0.00  0.00    +0.000 A 
ATOM     16  C   UNL     1      11.543   0.039  -1.731  0.00  0.00    +0.000 A 
ATOM     17  C   UNL     1      12.377  -0.190  -2.836  0.00  0.00    +0.000 A 
ATOM     18  C   UNL     1      11.747  -0.611  -3.997  0.00  0.00    +0.000 A 
ATOM     19  F   UNL     1      12.488  -0.984  -5.048  0.00  0.00    +0.000 F 
ATOM     20  C   UNL     1      10.360  -0.685  -4.055  0.00  0.00    +0.000 A 
ATOM     21  N   UNL     1       9.504  -0.347  -3.056  0.00  0.00    +0.000 NA
ATOM     22  C   UNL     1      10.162  -0.036  -1.922  0.00  0.00    +0.000 A 
ENDBRANCH  12  13
ENDBRANCH   4  12
TORSDOF 5
