REMARK  Name = 
REMARK  6 active torsions:
REMARK  status: ('A' for Active; 'I' for Inactive)
REMARK    1  A    between atoms: C_2  and  C_19
REMARK    2  A    between atoms: N_3  and  C_4
REMARK    3  A    between atoms: C_4  and  C_5
REMARK    4  A    between atoms: C_8  and  C_9
REMARK    5  A    between atoms: C_9  and  O_10
REMARK    6  A    between atoms: O_10  and  C_11
REMARK                            x       y       z     vdW  Elec       q    Type
REMARK                         _______ _______ _______ _____ _____    ______ ____
ROOT
ATOM      1  O   UNL     1       0.209  -0.207  -0.723  0.00  0.00    +0.000 OA
ATOM      2  C   UNL     1       0.160  -0.845  -1.765  0.00  0.00    +0.000 C 
ATOM      3  N   UNL     1       1.162  -1.674  -2.227  0.00  0.00    +0.000 N 
ATOM      4  H   UNL     1       0.944  -2.299  -2.982  0.00  0.00    +0.000 HD
ENDROOT
BRANCH   2   5
ATOM      5  C   UNL     1      -1.046  -0.984  -2.566  0.00  0.00    +0.000 A 
ATOM      6  C   UNL     1      -2.304  -1.144  -2.007  0.00  0.00    +0.000 A 
ATOM      7  S   UNL     1      -3.410  -1.828  -3.127  0.00  0.00    +0.000 S 
ATOM      8  C   UNL     1      -2.255  -1.789  -4.382  0.00  0.00    +0.000 A 
ATOM      9  N   UNL     1      -2.469  -2.365  -5.594  0.00  0.00    +0.000 NA
ATOM     10  C   UNL     1      -1.506  -2.190  -6.441  0.00  0.00    +0.000 A 
ATOM     11  N   UNL     1      -0.376  -1.445  -6.207  0.00  0.00    +0.000 N 
ATOM     12  C   UNL     1      -0.126  -0.825  -5.005  0.00  0.00    +0.000 A 
ATOM     13  O   UNL     1       0.835  -0.085  -4.841  0.00  0.00    +0.000 OA
ATOM     14  C   UNL     1      -1.115  -1.122  -3.989  0.00  0.00    +0.000 A 
ATOM     15  H   UNL     1       0.293  -1.268  -6.942  0.00  0.00    +0.000 HD
ENDBRANCH   2   5
BRANCH   3  16
ATOM     16  C   UNL     1       2.276  -2.055  -1.407  0.00  0.00    +0.000 C 
BRANCH  16  17
ATOM     17  C   UNL     1       3.218  -2.932  -2.195  0.00  0.00    +0.000 A 
ATOM     18  C   UNL     1       4.301  -2.371  -2.883  0.00  0.00    +0.000 A 
ATOM     19  C   UNL     1       5.182  -3.181  -3.605  0.00  0.00    +0.000 A 
ATOM     20  C   UNL     1       4.981  -4.565  -3.677  0.00  0.00    +0.000 A 
ATOM     21  C   UNL     1       3.881  -5.125  -3.013  0.00  0.00    +0.000 A 
ATOM     22  C   UNL     1       3.002  -4.315  -2.288  0.00  0.00    +0.000 A 
BRANCH  20  23
ATOM     23  C   UNL     1       5.946  -5.449  -4.432  0.00  0.00    +0.000 C 
BRANCH  23  24
ATOM     24  O   UNL     1       6.981  -5.860  -3.545  0.00  0.00    +0.000 OA
BRANCH  24  25
ATOM     25  C   UNL     1       7.934  -6.603  -4.207  0.00  0.00    +0.000 A 
ATOM     26  N   UNL     1       9.158  -6.575  -3.663  0.00  0.00    +0.000 NA
ATOM     27  C   UNL     1      10.101  -7.295  -4.298  0.00  0.00    +0.000 A 
ATOM     28  C   UNL     1       9.858  -8.037  -5.430  0.00  0.00    +0.000 A 
ATOM     29  C   UNL     1       8.563  -8.009  -5.889  0.00  0.00    +0.000 A 
ATOM     30  N   UNL     1       7.582  -7.300  -5.302  0.00  0.00    +0.000 NA
ENDBRANCH  24  25
ENDBRANCH  23  24
ENDBRANCH  20  23
ENDBRANCH  16  17
ENDBRANCH   3  16
TORSDOF 6
