REMARK  Name = 
REMARK  6 active torsions:
REMARK  status: ('A' for Active; 'I' for Inactive)
REMARK    1  A    between atoms: C_1  and  C_2
REMARK    2  A    between atoms: C_2  and  N_3
REMARK    3  A    between atoms: C_2  and  C_16
REMARK    4  A    between atoms: C_4  and  C_6
REMARK    5  A    between atoms: C_19  and  C_20
REMARK    6  A    between atoms: C_20  and  C_21
REMARK                            x       y       z     vdW  Elec       q    Type
REMARK                         _______ _______ _______ _____ _____    ______ ____
ROOT
ATOM      1  C   UNL     1       0.803  -0.064  -0.051  0.00  0.00    +0.000 C 
ATOM      2  C   UNL     1       2.332   0.037  -0.063  0.00  0.00    +0.000 C 
ENDROOT
BRANCH   2   3
ATOM      3  C   UNL     1       2.916  -0.754   1.102  0.00  0.00    +0.000 A 
ATOM      4  C   UNL     1       3.738  -1.868   0.882  0.00  0.00    +0.000 A 
ATOM      5  C   UNL     1       4.333  -2.540   1.958  0.00  0.00    +0.000 A 
ATOM      6  C   UNL     1       4.121  -2.111   3.275  0.00  0.00    +0.000 A 
ATOM      7  C   UNL     1       3.268  -1.024   3.498  0.00  0.00    +0.000 A 
ATOM      8  C   UNL     1       2.673  -0.357   2.427  0.00  0.00    +0.000 A 
BRANCH   6   9
ATOM      9  C   UNL     1       4.812  -2.788   4.438  0.00  0.00    +0.000 C 
BRANCH   9  10
ATOM     10  C   UNL     1       6.166  -2.222   4.793  0.00  0.00    +0.000 A 
ATOM     11  C   UNL     1       7.314  -3.022   4.783  0.00  0.00    +0.000 A 
ATOM     12  C   UNL     1       8.537  -2.490   5.189  0.00  0.00    +0.000 A 
ATOM     13  C   UNL     1       8.578  -1.166   5.590  0.00  0.00    +0.000 A 
ATOM     14  N   UNL     1       7.498  -0.358   5.609  0.00  0.00    +0.000 NA
ATOM     15  C   UNL     1       6.324  -0.904   5.215  0.00  0.00    +0.000 A 
ENDBRANCH   9  10
ENDBRANCH   6   9
ENDBRANCH   2   3
BRANCH   2  16
ATOM     16  N   UNL     1       2.801   1.414   0.021  0.00  0.00    +0.000 N 
ATOM     17  C   UNL     1       2.490   2.379  -0.904  0.00  0.00    +0.000 C 
ATOM     18  O   UNL     1       1.759   2.168  -1.866  0.00  0.00    +0.000 OA
ATOM     19  H   UNL     1       3.636   1.556   0.582  0.00  0.00    +0.000 HD
BRANCH  17  20
ATOM     20  C   UNL     1       3.026   3.720  -0.643  0.00  0.00    +0.000 A 
ATOM     21  C   UNL     1       2.333   4.838  -1.091  0.00  0.00    +0.000 A 
ATOM     22  S   UNL     1       3.098   6.314  -0.707  0.00  0.00    +0.000 S 
ATOM     23  C   UNL     1       4.399   5.509   0.040  0.00  0.00    +0.000 A 
ATOM     24  N   UNL     1       5.449   6.199   0.556  0.00  0.00    +0.000 NA
ATOM     25  C   UNL     1       6.374   5.457   1.069  0.00  0.00    +0.000 A 
ATOM     26  N   UNL     1       6.335   4.087   1.125  0.00  0.00    +0.000 N 
ATOM     27  C   UNL     1       5.275   3.348   0.649  0.00  0.00    +0.000 A 
ATOM     28  O   UNL     1       5.240   2.132   0.772  0.00  0.00    +0.000 OA
ATOM     29  C   UNL     1       4.231   4.135   0.031  0.00  0.00    +0.000 A 
ATOM     30  H   UNL     1       7.080   3.566   1.566  0.00  0.00    +0.000 HD
ENDBRANCH  17  20
ENDBRANCH   2  16
TORSDOF 5
