REMARK  Name = 
REMARK  8 active torsions:
REMARK  status: ('A' for Active; 'I' for Inactive)
REMARK    1  A    between atoms: C_1  and  C_2
REMARK    2  A    between atoms: C_5  and  O_6
REMARK    3  A    between atoms: O_6  and  C_7
REMARK    4  A    between atoms: C_11  and  C_12
REMARK    5  A    between atoms: C_12  and  C_13
REMARK    6  A    between atoms: C_13  and  N_14
REMARK    7  A    between atoms: N_14  and  C_15
REMARK    8  A    between atoms: C_18  and  C_19
REMARK                            x       y       z     vdW  Elec       q    Type
REMARK                         _______ _______ _______ _____ _____    ______ ____
ROOT
ATOM      1  C   UNL     1      -0.668   5.302   4.652  0.00  0.00    +0.000 C 
ENDROOT
BRANCH   1   2
ATOM      2  N   UNL     1      -0.764   6.331   5.683  0.00  0.00    +0.000 N 
ATOM      3  H   UNL     1      -0.747   7.293   5.359  0.00  0.00    +0.000 HD
BRANCH   2   4
ATOM      4  C   UNL     1      -1.546   6.098   6.816  0.00  0.00    +0.000 A 
ATOM      5  C   UNL     1      -2.031   4.830   7.167  0.00  0.00    +0.000 A 
ATOM      6  C   UNL     1      -2.708   4.610   8.373  0.00  0.00    +0.000 A 
ATOM      7  C   UNL     1      -2.903   5.658   9.272  0.00  0.00    +0.000 A 
ATOM      8  C   UNL     1      -2.418   6.920   8.939  0.00  0.00    +0.000 A 
ATOM      9  F   UNL     1      -2.571   7.965   9.768  0.00  0.00    +0.000 F 
ATOM     10  C   UNL     1      -1.744   7.138   7.732  0.00  0.00    +0.000 A 
BRANCH   7  11
ATOM     11  C   UNL     1      -3.615   5.362  10.548  0.00  0.00    +0.000 C 
ATOM     12  N   UNL     1      -3.783   6.375  11.445  0.00  0.00    +0.000 N 
ATOM     13  O   UNL     1      -4.039   4.242  10.790  0.00  0.00    +0.000 OA
ATOM     14  H   UNL     1      -3.450   7.318  11.288  0.00  0.00    +0.000 HD
ATOM     15  H   UNL     1      -4.268   6.167  12.308  0.00  0.00    +0.000 HD
ENDBRANCH   7  11
ENDBRANCH   2   4
ENDBRANCH   1   2
BRANCH   1  16
ATOM     16  C   UNL     1       0.093   5.795   3.415  0.00  0.00    +0.000 C 
BRANCH  16  21
ATOM     17  C   UNL     1       1.269   2.557   1.824  0.00  0.00    +0.000 A 
ATOM     18  C   UNL     1       0.224   2.291   0.941  0.00  0.00    +0.000 A 
ATOM     19  C   UNL     1      -0.780   3.236   0.740  0.00  0.00    +0.000 A 
ATOM     20  C   UNL     1      -0.777   4.421   1.474  0.00  0.00    +0.000 A 
ATOM     21  C   UNL     1       0.215   4.650   2.437  0.00  0.00    +0.000 A 
ATOM     22  C   UNL     1       1.255   3.721   2.588  0.00  0.00    +0.000 A 
BRANCH  17  23
ATOM     23  O   UNL     1       2.260   1.615   1.881  0.00  0.00    +0.000 OA
BRANCH  23  28
ATOM     24  C   UNL     1       3.744   4.025   0.357  0.00  0.00    +0.000 C 
ATOM     25  C   UNL     1       4.398   3.019   1.283  0.00  0.00    +0.000 C 
ATOM     26  N   UNL     1       4.884   1.824   0.546  0.00  0.00    +0.000 NA
ATOM     27  C   UNL     1       4.710   1.035   1.787  0.00  0.00    +0.000 C 
ATOM     28  C   UNL     1       3.605   2.042   2.220  0.00  0.00    +0.000 C 
ATOM     29  H   UNL     1       5.835   1.885   0.188  0.00  0.00    +0.000 HD
ENDBRANCH  23  28
ENDBRANCH  17  23
ENDBRANCH  16  21
ENDBRANCH   1  16
TORSDOF 7
