REMARK  Name = 
REMARK  6 active torsions:
REMARK  status: ('A' for Active; 'I' for Inactive)
REMARK    1  A    between atoms: N_1  and  C_2
REMARK    2  A    between atoms: C_2  and  C_3
REMARK    3  A    between atoms: C_6  and  C_7
REMARK    4  A    between atoms: C_7  and  O_8
REMARK    5  A    between atoms: O_8  and  C_9
REMARK    6  A    between atoms: C_12  and  C_13
REMARK                            x       y       z     vdW  Elec       q    Type
REMARK                         _______ _______ _______ _____ _____    ______ ____
ROOT
ATOM      1  O   UNL     1       4.188  -3.164   5.284  0.00  0.00    +0.000 OA
ENDROOT
BRANCH   1   2
ATOM      2  C   UNL     1       4.361  -4.033   6.342  0.00  0.00    +0.000 A 
ATOM      3  N   UNL     1       4.033  -5.336   6.169  0.00  0.00    +0.000 NA
ATOM      4  C   UNL     1       4.174  -6.155   7.240  0.00  0.00    +0.000 A 
ATOM      5  C   UNL     1       4.654  -5.738   8.474  0.00  0.00    +0.000 A 
ATOM      6  C   UNL     1       5.000  -4.395   8.629  0.00  0.00    +0.000 A 
ATOM      7  C   UNL     1       4.851  -3.527   7.545  0.00  0.00    +0.000 A 
ATOM      8 BR   UNL     1       5.296  -1.700   7.772  0.00  0.00    +0.000 Br
BRANCH   5   9
ATOM      9  C   UNL     1       4.728  -6.727   9.568  0.00  0.00    +0.000 C 
ATOM     10  N   UNL     1       5.617  -6.492  10.578  0.00  0.00    +0.000 N 
ATOM     11  O   UNL     1       4.032  -7.733   9.558  0.00  0.00    +0.000 OA
ATOM     12  H   UNL     1       6.359  -5.809  10.521  0.00  0.00    +0.000 HD
ATOM     13  H   UNL     1       5.708  -7.224  11.273  0.00  0.00    +0.000 HD
ENDBRANCH   5   9
ENDBRANCH   1   2
BRANCH   1  14
ATOM     14  C   UNL     1       3.583  -3.782   4.147  0.00  0.00    +0.000 C 
BRANCH  14  18
ATOM     15  C   UNL     1       2.707  -0.918   1.004  0.00  0.00    +0.000 A 
ATOM     16  C   UNL     1       3.803  -0.720   1.856  0.00  0.00    +0.000 A 
ATOM     17  C   UNL     1       4.094  -1.634   2.873  0.00  0.00    +0.000 A 
ATOM     18  C   UNL     1       3.284  -2.758   3.072  0.00  0.00    +0.000 A 
ATOM     19  C   UNL     1       2.201  -2.968   2.204  0.00  0.00    +0.000 A 
ATOM     20  C   UNL     1       1.912  -2.055   1.187  0.00  0.00    +0.000 A 
BRANCH  15  21
ATOM     21  C   UNL     1       2.368   0.092  -0.063  0.00  0.00    +0.000 C 
BRANCH  21  22
ATOM     22  N   UNL     1       3.482   0.316  -0.978  0.00  0.00    +0.000 NA
ATOM     23  H   UNL     1       3.169   0.911  -1.743  0.00  0.00    +0.000 HD
ATOM     24  H   UNL     1       3.746  -0.576  -1.394  0.00  0.00    +0.000 HD
ENDBRANCH  21  22
ENDBRANCH  15  21
ENDBRANCH  14  18
ENDBRANCH   1  14
TORSDOF 6
