REMARK  Name = 
REMARK  7 active torsions:
REMARK  status: ('A' for Active; 'I' for Inactive)
REMARK    1  A    between atoms: C_1  and  C_2
REMARK    2  A    between atoms: C_2  and  N_3
REMARK    3  A    between atoms: C_2  and  C_17
REMARK    4  A    between atoms: C_4  and  C_6
REMARK    5  A    between atoms: N_12  and  C_13
REMARK    6  A    between atoms: C_20  and  C_21
REMARK    7  A    between atoms: C_21  and  C_22
REMARK                            x       y       z     vdW  Elec       q    Type
REMARK                         _______ _______ _______ _____ _____    ______ ____
ROOT
ATOM      1  C   UNL     1       3.148  -1.098   1.074  0.00  0.00    +0.000 C 
ATOM      2  C   UNL     1       2.560  -0.104   0.068  0.00  0.00    +0.000 C 
ENDROOT
BRANCH   2   3
ATOM      3  C   UNL     1       3.029  -0.395  -1.346  0.00  0.00    +0.000 A 
ATOM      4  C   UNL     1       3.197   0.647  -2.252  0.00  0.00    +0.000 A 
ATOM      5  N   UNL     1       3.627   0.459  -3.524  0.00  0.00    +0.000 NA
ATOM      6  C   UNL     1       3.865  -0.829  -3.886  0.00  0.00    +0.000 A 
ATOM      7  C   UNL     1       3.654  -1.876  -2.998  0.00  0.00    +0.000 A 
ATOM      8  N   UNL     1       3.243  -1.685  -1.722  0.00  0.00    +0.000 NA
BRANCH   6   9
ATOM      9  C   UNL     1       4.350  -1.088  -5.288  0.00  0.00    +0.000 C 
BRANCH   9  10
ATOM     10  C   UNL     1       3.238  -1.345  -6.276  0.00  0.00    +0.000 A 
ATOM     11  C   UNL     1       2.289  -0.360  -6.548  0.00  0.00    +0.000 A 
ATOM     12  C   UNL     1       1.282  -0.629  -7.469  0.00  0.00    +0.000 A 
ATOM     13  C   UNL     1       1.254  -1.862  -8.105  0.00  0.00    +0.000 A 
ATOM     14  C   UNL     1       2.239  -2.782  -7.790  0.00  0.00    +0.000 A 
ATOM     15  N   UNL     1       3.223  -2.556  -6.890  0.00  0.00    +0.000 NA
ENDBRANCH   9  10
ENDBRANCH   6   9
ENDBRANCH   2   3
BRANCH   2  16
ATOM     16  N   UNL     1       1.112  -0.151   0.155  0.00  0.00    +0.000 N 
ATOM     17  C   UNL     1       0.314   0.953  -0.012  0.00  0.00    +0.000 C 
ATOM     18  O   UNL     1       0.780   2.081  -0.143  0.00  0.00    +0.000 OA
ATOM     19  H   UNL     1       0.710  -1.065  -0.030  0.00  0.00    +0.000 HD
BRANCH  17  20
ATOM     20  C   UNL     1      -1.134   0.714   0.048  0.00  0.00    +0.000 A 
ATOM     21  C   UNL     1      -1.993   1.734   0.434  0.00  0.00    +0.000 A 
ATOM     22  S   UNL     1      -3.630   1.258   0.500  0.00  0.00    +0.000 S 
ATOM     23  C   UNL     1      -3.254  -0.313  -0.032  0.00  0.00    +0.000 A 
ATOM     24  N   UNL     1      -4.225  -1.245  -0.209  0.00  0.00    +0.000 NA
ATOM     25  C   UNL     1      -3.802  -2.386  -0.647  0.00  0.00    +0.000 A 
ATOM     26  N   UNL     1      -2.487  -2.697  -0.925  0.00  0.00    +0.000 N 
ATOM     27  C   UNL     1      -2.120  -4.009  -1.420  0.00  0.00    +0.000 C 
ATOM     28  C   UNL     1      -1.468  -1.777  -0.726  0.00  0.00    +0.000 A 
ATOM     29  O   UNL     1      -0.284  -2.046  -0.917  0.00  0.00    +0.000 OA
ATOM     30  C   UNL     1      -1.900  -0.477  -0.245  0.00  0.00    +0.000 A 
ENDBRANCH  17  20
ENDBRANCH   2  16
TORSDOF 5
