REMARK  Name = 
REMARK  9 active torsions:
REMARK  status: ('A' for Active; 'I' for Inactive)
REMARK    1  A    between atoms: C_1  and  C_2
REMARK    2  A    between atoms: C_2  and  C_3
REMARK    3  A    between atoms: C_2  and  C_14
REMARK    4  A    between atoms: C_3  and  N_4
REMARK    5  A    between atoms: N_4  and  C_5
REMARK    6  A    between atoms: C_8  and  C_9
REMARK    7  A    between atoms: C_18  and  C_19
REMARK    8  A    between atoms: C_22  and  O_23
REMARK    9  A    between atoms: O_23  and  C_24
REMARK                            x       y       z     vdW  Elec       q    Type
REMARK                         _______ _______ _______ _____ _____    ______ ____
ROOT
ATOM      1  C   UNL     1       1.063   0.062  -0.011  0.00  0.00    +0.000 C 
ATOM      2  C   UNL     1       2.596   0.092  -0.061  0.00  0.00    +0.000 C 
ENDROOT
BRANCH   2   3
ATOM      3  C   UNL     1       3.060   1.358  -0.750  0.00  0.00    +0.000 A 
ATOM      4  N   UNL     1       3.752   1.250  -1.896  0.00  0.00    +0.000 NA
ATOM      5  C   UNL     1       4.244   2.373  -2.424  0.00  0.00    +0.000 A 
ATOM      6  C   UNL     1       4.010   3.615  -1.892  0.00  0.00    +0.000 A 
ATOM      7  C   UNL     1       3.215   3.664  -0.762  0.00  0.00    +0.000 A 
ATOM      8  N   UNL     1       2.766   2.537  -0.161  0.00  0.00    +0.000 NA
BRANCH   7   9
ATOM      9  C   UNL     1       2.779   4.944  -0.166  0.00  0.00    +0.000 A 
ATOM     10  C   UNL     1       2.580   6.089  -0.962  0.00  0.00    +0.000 A 
ATOM     11  C   UNL     1       2.156   7.304  -0.415  0.00  0.00    +0.000 A 
ATOM     12  C   UNL     1       1.890   7.396   0.948  0.00  0.00    +0.000 A 
ATOM     13  C   UNL     1       2.099   6.282   1.759  0.00  0.00    +0.000 A 
ATOM     14  C   UNL     1       2.528   5.068   1.210  0.00  0.00    +0.000 A 
BRANCH  12  15
ATOM     15  O   UNL     1       1.445   8.517   1.589  0.00  0.00    +0.000 OA
BRANCH  15  16
ATOM     16  C   UNL     1       0.711   9.425   0.785  0.00  0.00    +0.000 C 
ATOM     17  F   UNL     1      -0.062  10.168   1.616  0.00  0.00    +0.000 F 
ATOM     18  F   UNL     1       1.581  10.281   0.191  0.00  0.00    +0.000 F 
ENDBRANCH  15  16
ENDBRANCH  12  15
ENDBRANCH   7   9
ENDBRANCH   2   3
BRANCH   2  19
ATOM     19  C   UNL     1       3.095  -1.195  -0.750  0.00  0.00    +0.000 C 
BRANCH  19  20
ATOM     20  N   UNL     1       4.554  -1.347  -0.704  0.00  0.00    +0.000 N 
ATOM     21  H   UNL     1       4.976  -1.117   0.191  0.00  0.00    +0.000 HD
BRANCH  20  22
ATOM     22  C   UNL     1       5.144  -2.433  -1.350  0.00  0.00    +0.000 A 
ATOM     23  C   UNL     1       6.428  -2.838  -0.977  0.00  0.00    +0.000 A 
ATOM     24  C   UNL     1       7.040  -3.926  -1.602  0.00  0.00    +0.000 A 
ATOM     25  C   UNL     1       6.354  -4.564  -2.624  0.00  0.00    +0.000 A 
ATOM     26  N   UNL     1       5.138  -4.168  -3.080  0.00  0.00    +0.000 NA
ATOM     27  C   UNL     1       4.586  -3.104  -2.444  0.00  0.00    +0.000 A 
BRANCH  25  28
ATOM     28  C   UNL     1       6.940  -5.777  -3.277  0.00  0.00    +0.000 C 
ATOM     29  N   UNL     1       6.167  -6.340  -4.257  0.00  0.00    +0.000 N 
ATOM     30  O   UNL     1       8.023  -6.248  -2.955  0.00  0.00    +0.000 OA
ATOM     31  H   UNL     1       5.269  -5.924  -4.479  0.00  0.00    +0.000 HD
ATOM     32  H   UNL     1       6.479  -7.178  -4.724  0.00  0.00    +0.000 HD
ENDBRANCH  25  28
ENDBRANCH  20  22
ENDBRANCH  19  20
ENDBRANCH   2  19
TORSDOF 8
