REMARK  Name = 
REMARK  6 active torsions:
REMARK  status: ('A' for Active; 'I' for Inactive)
REMARK    1  A    between atoms: C_1  and  C_2
REMARK    2  A    between atoms: C_2  and  C_3
REMARK    3  A    between atoms: C_2  and  N_4
REMARK    4  A    between atoms: C_2  and  C_14
REMARK    5  A    between atoms: N_4  and  C_5
REMARK    6  A    between atoms: C_8  and  C_9
REMARK                            x       y       z     vdW  Elec       q    Type
REMARK                         _______ _______ _______ _____ _____    ______ ____
ROOT
ATOM      1  N   UNL     1       2.787   1.295   0.453  0.00  0.00    +0.000 N 
ATOM      2  H   UNL     1       2.344   2.003  -0.131  0.00  0.00    +0.000 HD
ENDROOT
BRANCH   1   3
ATOM      3  C   UNL     1       2.929   1.754   1.762  0.00  0.00    +0.000 A 
ATOM      4  C   UNL     1       3.855   2.770   2.019  0.00  0.00    +0.000 A 
ATOM      5  C   UNL     1       4.111   3.182   3.332  0.00  0.00    +0.000 A 
ATOM      6  C   UNL     1       3.394   2.581   4.355  0.00  0.00    +0.000 A 
ATOM      7  N   UNL     1       2.417   1.661   4.151  0.00  0.00    +0.000 NA
ATOM      8  C   UNL     1       2.214   1.291   2.866  0.00  0.00    +0.000 A 
BRANCH   6   9
ATOM      9  C   UNL     1       3.682   2.909   5.785  0.00  0.00    +0.000 C 
ATOM     10  N   UNL     1       2.951   2.195   6.696  0.00  0.00    +0.000 N 
ATOM     11  O   UNL     1       4.503   3.747   6.129  0.00  0.00    +0.000 OA
ATOM     12  H   UNL     1       2.301   1.490   6.356  0.00  0.00    +0.000 HD
ATOM     13  H   UNL     1       3.110   2.324   7.683  0.00  0.00    +0.000 HD
ENDBRANCH   6   9
ENDBRANCH   1   3
BRANCH   1  15
ATOM     14  C   UNL     1       0.820  -0.105  -0.041  0.00  0.00    +0.000 C 
ATOM     15  C   UNL     1       2.357  -0.085   0.109  0.00  0.00    +0.000 C 
ATOM     16  C   UNL     1       2.934  -0.396  -1.296  0.00  0.00    +0.000 C 
BRANCH  15  17
ATOM     17  C   UNL     1       2.919  -1.118   1.092  0.00  0.00    +0.000 A 
ATOM     18  C   UNL     1       2.113  -1.948   1.885  0.00  0.00    +0.000 A 
ATOM     19  C   UNL     1       2.687  -2.822   2.805  0.00  0.00    +0.000 A 
ATOM     20  C   UNL     1       4.065  -2.865   2.899  0.00  0.00    +0.000 A 
ATOM     21  N   UNL     1       4.886  -2.098   2.157  0.00  0.00    +0.000 NA
ATOM     22  C   UNL     1       4.299  -1.239   1.290  0.00  0.00    +0.000 A 
ENDBRANCH  15  17
ENDBRANCH   1  15
TORSDOF 4
