REMARK  Name = 
REMARK  6 active torsions:
REMARK  status: ('A' for Active; 'I' for Inactive)
REMARK    1  A    between atoms: C_2  and  C_25
REMARK    2  A    between atoms: N_3  and  C_4
REMARK    3  A    between atoms: C_4  and  C_5
REMARK    4  A    between atoms: C_8  and  C_9
REMARK    5  A    between atoms: C_9  and  N_10
REMARK    6  A    between atoms: C_11  and  C_13
REMARK                            x       y       z     vdW  Elec       q    Type
REMARK                         _______ _______ _______ _____ _____    ______ ____
ROOT
ATOM      1  C   UNL     1       3.303   2.831   2.335  0.00  0.00    +0.000 A 
ATOM      2  C   UNL     1       3.080   4.207   2.261  0.00  0.00    +0.000 A 
ATOM      3  C   UNL     1       3.898   5.082   2.974  0.00  0.00    +0.000 A 
ATOM      4  C   UNL     1       4.906   4.557   3.777  0.00  0.00    +0.000 A 
ATOM      5  N   UNL     1       5.141   3.223   3.866  0.00  0.00    +0.000 NA
ATOM      6  C   UNL     1       4.345   2.399   3.147  0.00  0.00    +0.000 A 
ENDROOT
BRANCH   1   7
ATOM      7  C   UNL     1       2.438   1.855   1.597  0.00  0.00    +0.000 C 
BRANCH   7  10
ATOM      8  O   UNL     1       0.456   0.077   0.753  0.00  0.00    +0.000 OA
ATOM      9  C   UNL     1       0.389   0.544   1.883  0.00  0.00    +0.000 C 
ATOM     10  N   UNL     1       1.308   1.435   2.395  0.00  0.00    +0.000 N 
ATOM     11  H   UNL     1       1.327   1.619   3.389  0.00  0.00    +0.000 HD
BRANCH   9  12
ATOM     12  C   UNL     1      -0.698   0.134   2.797  0.00  0.00    +0.000 A 
ATOM     13  C   UNL     1      -1.224   0.985   3.772  0.00  0.00    +0.000 A 
ATOM     14  C   UNL     1      -2.242   0.522   4.603  0.00  0.00    +0.000 A 
ATOM     15  C   UNL     1      -2.701  -0.775   4.425  0.00  0.00    +0.000 A 
ATOM     16  N   UNL     1      -2.225  -1.616   3.481  0.00  0.00    +0.000 NA
ATOM     17  C   UNL     1      -1.240  -1.139   2.678  0.00  0.00    +0.000 A 
ENDBRANCH   9  12
ENDBRANCH   7  10
ENDBRANCH   1   7
BRANCH   4  18
ATOM     18  C   UNL     1       5.788   5.476   4.588  0.00  0.00    +0.000 C 
BRANCH  18  19
ATOM     19  N   UNL     1       6.971   5.889   3.871  0.00  0.00    +0.000 N 
ATOM     20  C   UNL     1       7.070   7.092   3.227  0.00  0.00    +0.000 C 
ATOM     21  O   UNL     1       6.140   7.895   3.198  0.00  0.00    +0.000 OA
ATOM     22  H   UNL     1       7.654   5.159   3.691  0.00  0.00    +0.000 HD
BRANCH  20  23
ATOM     23  C   UNL     1       8.376   7.410   2.635  0.00  0.00    +0.000 A 
ATOM     24  C   UNL     1       8.733   8.735   2.422  0.00  0.00    +0.000 A 
ATOM     25  S   UNL     1      10.295   8.928   1.765  0.00  0.00    +0.000 S 
ATOM     26  C   UNL     1      10.534   7.246   1.698  0.00  0.00    +0.000 A 
ATOM     27  N   UNL     1      11.684   6.721   1.195  0.00  0.00    +0.000 NA
ATOM     28  C   UNL     1      11.721   5.430   1.174  0.00  0.00    +0.000 A 
ATOM     29  N   UNL     1      10.711   4.616   1.624  0.00  0.00    +0.000 N 
ATOM     30  C   UNL     1       9.560   5.101   2.194  0.00  0.00    +0.000 A 
ATOM     31  O   UNL     1       8.725   4.344   2.676  0.00  0.00    +0.000 OA
ATOM     32  C   UNL     1       9.450   6.547   2.200  0.00  0.00    +0.000 A 
ATOM     33  H   UNL     1      10.810   3.612   1.604  0.00  0.00    +0.000 HD
ENDBRANCH  20  23
ENDBRANCH  18  19
ENDBRANCH   4  18
TORSDOF 6
