REMARK  Name = 
REMARK  8 active torsions:
REMARK  status: ('A' for Active; 'I' for Inactive)
REMARK    1  A    between atoms: N_1  and  C_2
REMARK    2  A    between atoms: C_2  and  C_3
REMARK    3  A    between atoms: C_7  and  C_8
REMARK    4  A    between atoms: C_8  and  C_9
REMARK    5  A    between atoms: C_9  and  S_10
REMARK    6  A    between atoms: S_10  and  C_11
REMARK    7  A    between atoms: C_14  and  C_15
REMARK    8  A    between atoms: C_19  and  N_20
REMARK                            x       y       z     vdW  Elec       q    Type
REMARK                         _______ _______ _______ _____ _____    ______ ____
ROOT
ATOM      1  C   UNL     1       5.458  -5.589  -6.469  0.00  0.00    +0.000 A 
ATOM      2  N   UNL     1       5.814  -4.325  -6.815  0.00  0.00    +0.000 NA
ATOM      3  C   UNL     1       6.517  -4.187  -7.960  0.00  0.00    +0.000 A 
ATOM      4  C   UNL     1       6.869  -5.271  -8.738  0.00  0.00    +0.000 A 
ATOM      5  N   UNL     1       6.535  -6.553  -8.418  0.00  0.00    +0.000 NA
ATOM      6  C   UNL     1       5.829  -6.702  -7.270  0.00  0.00    +0.000 A 
ENDROOT
BRANCH   4   7
ATOM      7  C   UNL     1       7.652  -5.045  -9.984  0.00  0.00    +0.000 C 
ATOM      8  N   UNL     1       7.977  -6.167 -10.695  0.00  0.00    +0.000 N 
ATOM      9  O   UNL     1       7.989  -3.927 -10.352  0.00  0.00    +0.000 OA
ATOM     10  H   UNL     1       7.671  -7.080 -10.379  0.00  0.00    +0.000 HD
ATOM     11  H   UNL     1       8.501  -6.073 -11.554  0.00  0.00    +0.000 HD
ENDBRANCH   4   7
BRANCH   6  12
ATOM     12  N   UNL     1       5.472  -8.021  -6.986  0.00  0.00    +0.000 N 
ATOM     13  H   UNL     1       5.908  -8.627  -7.676  0.00  0.00    +0.000 HD
ATOM     14  H   UNL     1       5.706  -8.283  -6.034  0.00  0.00    +0.000 HD
ENDBRANCH   6  12
BRANCH   1  15
ATOM     15  S   UNL     1       4.520  -5.745  -4.941  0.00  0.00    +0.000 S 
BRANCH  15  16
ATOM     16  C   UNL     1       4.384  -3.968  -4.485  0.00  0.00    +0.000 C 
BRANCH  16  17
ATOM     17  C   UNL     1       3.592  -3.720  -3.198  0.00  0.00    +0.000 C 
BRANCH  17  22
ATOM     18  C   UNL     1       4.624  -0.265  -1.882  0.00  0.00    +0.000 A 
ATOM     19  C   UNL     1       3.580   0.529  -2.370  0.00  0.00    +0.000 A 
ATOM     20  C   UNL     1       2.538  -0.045  -3.099  0.00  0.00    +0.000 A 
ATOM     21  C   UNL     1       2.528  -1.419  -3.351  0.00  0.00    +0.000 A 
ATOM     22  C   UNL     1       3.557  -2.240  -2.871  0.00  0.00    +0.000 A 
ATOM     23  C   UNL     1       4.597  -1.650  -2.133  0.00  0.00    +0.000 A 
BRANCH  18  24
ATOM     24  C   UNL     1       5.755   0.350  -1.095  0.00  0.00    +0.000 C 
BRANCH  24  25
ATOM     25  N   UNL     1       7.045   0.110  -1.731  0.00  0.00    +0.000 NA
ATOM     26  H   UNL     1       7.764   0.633  -1.236  0.00  0.00    +0.000 HD
ATOM     27  H   UNL     1       7.015   0.485  -2.679  0.00  0.00    +0.000 HD
ENDBRANCH  24  25
ENDBRANCH  18  24
ENDBRANCH  17  22
ENDBRANCH  16  17
ENDBRANCH  15  16
ENDBRANCH   1  15
TORSDOF 8
