REMARK  Name = 
REMARK  5 active torsions:
REMARK  status: ('A' for Active; 'I' for Inactive)
REMARK    1  A    between atoms: N_1  and  C_2
REMARK    2  A    between atoms: C_2  and  C_3
REMARK    3  A    between atoms: C_3  and  C_4
REMARK    4  A    between atoms: C_8  and  C_9
REMARK    5  A    between atoms: C_9  and  N_10
REMARK                            x       y       z     vdW  Elec       q    Type
REMARK                         _______ _______ _______ _____ _____    ______ ____
ROOT
ATOM      1  C   UNL     1       4.448   0.895   1.195  0.00  0.00    +0.000 A 
ATOM      2  C   UNL     1       5.217  -0.264   1.199  0.00  0.00    +0.000 A 
ATOM      3  N   UNL     1       6.567  -0.275   1.234  0.00  0.00    +0.000 NA
ATOM      4  C   UNL     1       7.188   0.923   1.285  0.00  0.00    +0.000 A 
ATOM      5  C   UNL     1       6.524   2.144   1.299  0.00  0.00    +0.000 A 
ATOM      6  C   UNL     1       5.126   2.118   1.225  0.00  0.00    +0.000 A 
ENDROOT
BRANCH   1   7
ATOM      7  C   UNL     1       2.944   0.824   1.182  0.00  0.00    +0.000 C 
BRANCH   7   8
ATOM      8  C   UNL     1       2.372   0.732  -0.235  0.00  0.00    +0.000 C 
BRANCH   8   9
ATOM      9  N   UNL     1       0.912   0.665  -0.199  0.00  0.00    +0.000 NA
ATOM     10  H   UNL     1       0.551   0.623  -1.152  0.00  0.00    +0.000 HD
ATOM     11  H   UNL     1       0.535   1.520   0.209  0.00  0.00    +0.000 HD
ENDBRANCH   8   9
ENDBRANCH   7   8
ENDBRANCH   1   7
BRANCH   5  12
ATOM     12  C   UNL     1       7.282   3.425   1.485  0.00  0.00    +0.000 C 
BRANCH  12  13
ATOM     13  N   UNL     1       7.736   4.106   0.271  0.00  0.00    +0.000 N 
ATOM     14  C   UNL     1       7.160   4.060  -0.977  0.00  0.00    +0.000 A 
ATOM     15  C   UNL     1       7.750   5.029  -1.759  0.00  0.00    +0.000 A 
ATOM     16  C   UNL     1       8.714   5.692  -0.968  0.00  0.00    +0.000 A 
ATOM     17  N   UNL     1       9.509   6.743  -1.293  0.00  0.00    +0.000 NA
ATOM     18  C   UNL     1      10.333   7.156  -0.303  0.00  0.00    +0.000 A 
ATOM     19  C   UNL     1      10.431   6.582   0.957  0.00  0.00    +0.000 A 
ATOM     20 CL   UNL     1      11.533   7.202   2.122  0.00  0.00    +0.000 Cl
ATOM     21  C   UNL     1       9.619   5.500   1.279  0.00  0.00    +0.000 A 
ATOM     22  C   UNL     1       8.730   5.074   0.283  0.00  0.00    +0.000 A 
ENDBRANCH  12  13
ENDBRANCH   5  12
TORSDOF 5
