REMARK  Name = 
REMARK  4 active torsions:
REMARK  status: ('A' for Active; 'I' for Inactive)
REMARK    1  A    between atoms: C_2  and  C_5
REMARK    2  A    between atoms: N_10  and  C_11
REMARK    3  A    between atoms: C_11  and  C_12
REMARK    4  A    between atoms: C_16  and  C_17
REMARK                            x       y       z     vdW  Elec       q    Type
REMARK                         _______ _______ _______ _____ _____    ______ ____
ROOT
ATOM      1  C   UNL     1       5.646  -1.477   3.734  0.00  0.00    +0.000 C 
ENDROOT
BRANCH   1   7
ATOM      2  C   UNL     1       4.084   0.066  -0.001  0.00  0.00    +0.000 A 
ATOM      3  C   UNL     1       4.653  -0.518  -1.131  0.00  0.00    +0.000 A 
ATOM      4  C   UNL     1       5.759  -1.328  -0.952  0.00  0.00    +0.000 A 
ATOM      5  N   UNL     1       6.317  -1.590   0.251  0.00  0.00    +0.000 NA
ATOM      6  C   UNL     1       5.775  -1.021   1.345  0.00  0.00    +0.000 A 
ATOM      7  N   UNL     1       6.440  -1.263   2.540  0.00  0.00    +0.000 N 
ATOM      8  C   UNL     1       4.666  -0.191   1.249  0.00  0.00    +0.000 A 
ATOM      9  H   UNL     1       7.133  -1.985   2.357  0.00  0.00    +0.000 HD
BRANCH   2  11
ATOM     10  F   UNL     1       2.451   1.167  -1.371  0.00  0.00    +0.000 F 
ATOM     11  C   UNL     1       2.882   0.963  -0.095  0.00  0.00    +0.000 C 
ATOM     12  F   UNL     1       3.112   2.201   0.424  0.00  0.00    +0.000 F 
ATOM     13  F   UNL     1       1.811   0.468   0.586  0.00  0.00    +0.000 F 
ENDBRANCH   2  11
ENDBRANCH   1   7
BRANCH   1  14
ATOM     14  C   UNL     1       6.530  -1.793   4.920  0.00  0.00    +0.000 A 
ATOM     15  C   UNL     1       7.220  -0.770   5.579  0.00  0.00    +0.000 A 
ATOM     16  C   UNL     1       7.967  -1.049   6.721  0.00  0.00    +0.000 A 
ATOM     17  C   UNL     1       8.039  -2.356   7.210  0.00  0.00    +0.000 A 
ATOM     18  C   UNL     1       7.370  -3.417   6.573  0.00  0.00    +0.000 A 
ATOM     19  C   UNL     1       6.631  -3.108   5.412  0.00  0.00    +0.000 A 
BRANCH  18  20
ATOM     20  C   UNL     1       7.415  -4.792   7.120  0.00  0.00    +0.000 A 
ATOM     21  C   UNL     1       7.416  -5.930   6.300  0.00  0.00    +0.000 A 
ATOM     22  C   UNL     1       7.440  -7.210   6.855  0.00  0.00    +0.000 A 
ATOM     23  C   UNL     1       7.472  -7.331   8.233  0.00  0.00    +0.000 A 
ATOM     24  N   UNL     1       7.476  -6.276   9.069  0.00  0.00    +0.000 NA
ATOM     25  C   UNL     1       7.442  -5.046   8.495  0.00  0.00    +0.000 A 
ENDBRANCH  18  20
ENDBRANCH   1  14
TORSDOF 4
