REMARK  Name = 
REMARK  5 active torsions:
REMARK  status: ('A' for Active; 'I' for Inactive)
REMARK    1  A    between atoms: C_2  and  C_19
REMARK    2  A    between atoms: N_3  and  C_4
REMARK    3  A    between atoms: C_4  and  C_5
REMARK    4  A    between atoms: C_8  and  C_9
REMARK    5  A    between atoms: C_9  and  N_10
REMARK                            x       y       z     vdW  Elec       q    Type
REMARK                         _______ _______ _______ _____ _____    ______ ____
ROOT
ATOM      1  C   UNL     1       2.229  -0.194   2.627  0.00  0.00    +0.000 C 
ENDROOT
BRANCH   1   2
ATOM      2  C   UNL     1       3.138  -0.576   3.790  0.00  0.00    +0.000 C 
ATOM      3  C   UNL     1       2.800  -1.964   4.348  0.00  0.00    +0.000 C 
ATOM      4  C   UNL     1       3.697  -2.308   5.532  0.00  0.00    +0.000 C 
ATOM      5  C   UNL     1       3.610  -1.234   6.627  0.00  0.00    +0.000 C 
ATOM      6  C   UNL     1       3.935   0.154   6.053  0.00  0.00    +0.000 C 
ATOM      7  C   UNL     1       3.040   0.498   4.875  0.00  0.00    +0.000 C 
BRANCH   5   8
ATOM      8  C   UNL     1       4.562  -1.514   7.795  0.00  0.00    +0.000 C 
BRANCH   8   9
ATOM      9  N   UNL     1       4.211  -2.751   8.473  0.00  0.00    +0.000 N 
ATOM     10  C   UNL     1       5.030  -3.004   9.568  0.00  0.00    +0.000 A 
ATOM     11  N   UNL     1       5.508  -1.987  10.301  0.00  0.00    +0.000 NA
ATOM     12  C   UNL     1       6.320  -2.295  11.324  0.00  0.00    +0.000 A 
ATOM     13  C   UNL     1       6.665  -3.580  11.652  0.00  0.00    +0.000 A 
ATOM     14  C   UNL     1       6.126  -4.552  10.846  0.00  0.00    +0.000 A 
ATOM     15  N   UNL     1       5.321  -4.289   9.798  0.00  0.00    +0.000 NA
ATOM     16  H   UNL     1       4.263  -3.592   7.909  0.00  0.00    +0.000 HD
ENDBRANCH   8   9
ENDBRANCH   5   8
ENDBRANCH   1   2
BRANCH   1  19
ATOM     17  O   UNL     1       4.590  -0.967   1.131  0.00  0.00    +0.000 OA
ATOM     18  C   UNL     1       3.471  -1.331   0.797  0.00  0.00    +0.000 C 
ATOM     19  N   UNL     1       2.308  -1.082   1.497  0.00  0.00    +0.000 N 
ATOM     20  H   UNL     1       1.437  -1.236   1.012  0.00  0.00    +0.000 HD
BRANCH  18  21
ATOM     21  C   UNL     1       3.190  -1.903  -0.509  0.00  0.00    +0.000 A 
ATOM     22  C   UNL     1       3.829  -1.469  -1.656  0.00  0.00    +0.000 A 
ATOM     23  S   UNL     1       2.935  -1.875  -3.062  0.00  0.00    +0.000 S 
ATOM     24  C   UNL     1       1.791  -2.750  -2.149  0.00  0.00    +0.000 A 
ATOM     25  N   UNL     1       0.643  -3.242  -2.692  0.00  0.00    +0.000 NA
ATOM     26  C   UNL     1      -0.085  -3.919  -1.865  0.00  0.00    +0.000 A 
ATOM     27  N   UNL     1       0.248  -4.192  -0.559  0.00  0.00    +0.000 N 
ATOM     28  C   UNL     1       1.396  -3.721   0.031  0.00  0.00    +0.000 A 
ATOM     29  O   UNL     1       1.708  -4.024   1.175  0.00  0.00    +0.000 OA
ATOM     30  C   UNL     1       2.171  -2.852  -0.831  0.00  0.00    +0.000 A 
ATOM     31  H   UNL     1      -0.320  -4.806   0.005  0.00  0.00    +0.000 HD
ENDBRANCH  18  21
ENDBRANCH   1  19
TORSDOF 5
