REMARK  Name = 
REMARK  7 active torsions:
REMARK  status: ('A' for Active; 'I' for Inactive)
REMARK    1  A    between atoms: C_1  and  C_2
REMARK    2  A    between atoms: C_2  and  C_3
REMARK    3  A    between atoms: C_6  and  C_7
REMARK    4  A    between atoms: C_7  and  C_8
REMARK    5  A    between atoms: C_7  and  N_9
REMARK    6  A    between atoms: N_9  and  C_10
REMARK    7  A    between atoms: C_13  and  C_14
REMARK                            x       y       z     vdW  Elec       q    Type
REMARK                         _______ _______ _______ _____ _____    ______ ____
ROOT
ATOM      1  N   UNL     1       3.613   3.582  -5.370  0.00  0.00    +0.000 N 
ATOM      2  H   UNL     1       3.508   4.045  -4.465  0.00  0.00    +0.000 HD
ENDROOT
BRANCH   1   3
ATOM      3  C   UNL     1       4.304   4.448  -6.240  0.00  0.00    +0.000 A 
ATOM      4  C   UNL     1       4.992   4.000  -7.368  0.00  0.00    +0.000 A 
ATOM      5  C   UNL     1       5.686   4.878  -8.192  0.00  0.00    +0.000 A 
ATOM      6  C   UNL     1       5.606   6.231  -7.929  0.00  0.00    +0.000 A 
ATOM      7  N   UNL     1       4.883   6.755  -6.899  0.00  0.00    +0.000 NA
ATOM      8  C   UNL     1       4.246   5.846  -6.103  0.00  0.00    +0.000 A 
BRANCH   6   9
ATOM      9  C   UNL     1       6.316   7.185  -8.834  0.00  0.00    +0.000 C 
ATOM     10  N   UNL     1       6.201   8.508  -8.538  0.00  0.00    +0.000 N 
ATOM     11  O   UNL     1       6.973   6.801  -9.809  0.00  0.00    +0.000 OA
ATOM     12  H   UNL     1       5.633   8.801  -7.749  0.00  0.00    +0.000 HD
ATOM     13  H   UNL     1       6.630   9.189  -9.147  0.00  0.00    +0.000 HD
ENDBRANCH   6   9
ENDBRANCH   1   3
BRANCH   1  14
ATOM     14  C   UNL     1       4.116   2.192  -5.171  0.00  0.00    +0.000 C 
ATOM     15  C   UNL     1       3.523   1.220  -6.203  0.00  0.00    +0.000 C 
BRANCH  14  19
ATOM     16  C   UNL     1       3.045   0.992  -1.107  0.00  0.00    +0.000 A 
ATOM     17  C   UNL     1       4.383   1.008  -1.507  0.00  0.00    +0.000 A 
ATOM     18  C   UNL     1       4.742   1.367  -2.815  0.00  0.00    +0.000 A 
ATOM     19  C   UNL     1       3.757   1.699  -3.763  0.00  0.00    +0.000 A 
ATOM     20  C   UNL     1       2.415   1.580  -3.373  0.00  0.00    +0.000 A 
ATOM     21  C   UNL     1       2.060   1.265  -2.057  0.00  0.00    +0.000 A 
BRANCH  16  23
ATOM     22  C   UNL     1       2.629   2.029   1.145  0.00  0.00    +0.000 C 
ATOM     23  C   UNL     1       2.684   0.738   0.336  0.00  0.00    +0.000 C 
ENDBRANCH  16  23
ENDBRANCH  14  19
ENDBRANCH   1  14
TORSDOF 5
