REMARK  Name = 
REMARK  8 active torsions:
REMARK  status: ('A' for Active; 'I' for Inactive)
REMARK    1  A    between atoms: C_1  and  O_2
REMARK    2  A    between atoms: O_2  and  C_3
REMARK    3  A    between atoms: C_10  and  C_11
REMARK    4  A    between atoms: N_13  and  C_14
REMARK    5  A    between atoms: C_14  and  C_15
REMARK    6  A    between atoms: C_18  and  C_19
REMARK    7  A    between atoms: C_19  and  C_20
REMARK    8  A    between atoms: C_20  and  N_21
REMARK                            x       y       z     vdW  Elec       q    Type
REMARK                         _______ _______ _______ _____ _____    ______ ____
ROOT
ATOM      1  C   UNL     1       1.761   2.383   2.475  0.00  0.00    +0.000 A 
ATOM      2  C   UNL     1       0.528   1.824   2.122  0.00  0.00    +0.000 A 
ATOM      3  C   UNL     1      -0.470   2.600   1.520  0.00  0.00    +0.000 A 
ATOM      4  C   UNL     1      -0.273   3.965   1.266  0.00  0.00    +0.000 A 
ATOM      5  C   UNL     1       0.949   4.532   1.662  0.00  0.00    +0.000 A 
ATOM      6  C   UNL     1       1.957   3.750   2.248  0.00  0.00    +0.000 A 
ENDROOT
BRANCH   1   7
ATOM      7  C   UNL     1       2.858   1.513   3.039  0.00  0.00    +0.000 C 
BRANCH   7  10
ATOM      8  C   UNL     1       4.734   0.116   2.276  0.00  0.00    +0.000 C 
ATOM      9  O   UNL     1       5.009  -0.197   3.436  0.00  0.00    +0.000 OA
ATOM     10  N   UNL     1       3.691   0.962   1.995  0.00  0.00    +0.000 N 
ATOM     11  H   UNL     1       3.522   1.257   1.046  0.00  0.00    +0.000 HD
BRANCH   8  19
ATOM     12  C   UNL     1       4.498   0.460  -1.148  0.00  0.00    +0.000 A 
ATOM     13  N   UNL     1       4.638   0.420  -2.492  0.00  0.00    +0.000 NA
ATOM     14  C   UNL     1       5.628  -0.304  -3.005  0.00  0.00    +0.000 A 
ATOM     15  N   UNL     1       6.530  -1.010  -2.333  0.00  0.00    +0.000 NA
ATOM     16  C   UNL     1       6.360  -0.944  -0.999  0.00  0.00    +0.000 A 
ATOM     17  S   UNL     1       7.422  -1.786   0.018  0.00  0.00    +0.000 S 
ATOM     18  C   UNL     1       6.602  -1.246   1.406  0.00  0.00    +0.000 A 
ATOM     19  C   UNL     1       5.515  -0.413   1.138  0.00  0.00    +0.000 A 
ATOM     20  C   UNL     1       5.375  -0.238  -0.307  0.00  0.00    +0.000 A 
BRANCH  12  22
ATOM     21  C   UNL     1       2.724   1.864  -1.685  0.00  0.00    +0.000 C 
ATOM     22  O   UNL     1       3.470   1.231  -0.642  0.00  0.00    +0.000 OA
ENDBRANCH  12  22
ENDBRANCH   8  19
ENDBRANCH   7  10
ENDBRANCH   1   7
BRANCH   4  23
ATOM     23  C   UNL     1      -1.307   4.843   0.577  0.00  0.00    +0.000 C 
BRANCH  23  24
ATOM     24  C   UNL     1      -2.619   4.147   0.177  0.00  0.00    +0.000 C 
BRANCH  24  25
ATOM     25  N   UNL     1      -3.540   5.066  -0.482  0.00  0.00    +0.000 N 
ATOM     26  C   UNL     1      -4.750   4.478  -0.849  0.00  0.00    +0.000 A 
ATOM     27  N   UNL     1      -5.240   3.463  -0.138  0.00  0.00    +0.000 NA
ATOM     28  C   UNL     1      -6.395   2.958  -0.561  0.00  0.00    +0.000 A 
ATOM     29  N   UNL     1      -7.076   3.367  -1.616  0.00  0.00    +0.000 NA
ATOM     30  C   UNL     1      -6.482   4.379  -2.238  0.00  0.00    +0.000 A 
ATOM     31 CL   UNL     1      -7.277   4.963  -3.634  0.00  0.00    +0.000 Cl
ATOM     32  N   UNL     1      -5.336   4.974  -1.926  0.00  0.00    +0.000 NA
ATOM     33  H   UNL     1      -3.184   5.536  -1.309  0.00  0.00    +0.000 HD
ENDBRANCH  24  25
ENDBRANCH  23  24
ENDBRANCH   4  23
TORSDOF 7
