REMARK  Name = 
REMARK  8 active torsions:
REMARK  status: ('A' for Active; 'I' for Inactive)
REMARK    1  A    between atoms: C_1  and  C_2
REMARK    2  A    between atoms: C_2  and  C_3
REMARK    3  A    between atoms: C_7  and  C_8
REMARK    4  A    between atoms: C_8  and  C_9
REMARK    5  A    between atoms: C_9  and  N_10
REMARK    6  A    between atoms: N_10  and  C_11
REMARK    7  A    between atoms: C_14  and  C_15
REMARK    8  A    between atoms: C_23  and  O_24
REMARK                            x       y       z     vdW  Elec       q    Type
REMARK                         _______ _______ _______ _____ _____    ______ ____
ROOT
ATOM      1  C   UNL     1       3.015   0.430   1.337  0.00  0.00    +0.000 A 
ATOM      2  C   UNL     1       2.751   1.698   1.875  0.00  0.00    +0.000 A 
ATOM      3  C   UNL     1       3.068   1.997   3.202  0.00  0.00    +0.000 A 
ATOM      4  C   UNL     1       3.634   1.028   4.034  0.00  0.00    +0.000 A 
ATOM      5  C   UNL     1       3.909  -0.246   3.536  0.00  0.00    +0.000 A 
ATOM      6  C   UNL     1       3.630  -0.499   2.180  0.00  0.00    +0.000 A 
ENDROOT
BRANCH   1   8
ATOM      7  C   UNL     1       0.995   0.131  -0.059  0.00  0.00    +0.000 C 
ATOM      8  C   UNL     1       2.540   0.041  -0.080  0.00  0.00    +0.000 C 
ATOM      9  C   UNL     1       3.138   1.021  -1.121  0.00  0.00    +0.000 C 
ATOM     10  C   UNL     1       2.817   0.650  -2.574  0.00  0.00    +0.000 C 
ATOM     11  C   UNL     1       3.194  -0.788  -2.921  0.00  0.00    +0.000 C 
ATOM     12  C   UNL     1       2.606  -1.784  -1.928  0.00  0.00    +0.000 C 
ATOM     13  C   UNL     1       2.943  -1.414  -0.484  0.00  0.00    +0.000 C 
BRANCH  11  14
ATOM     14  O   UNL     1       4.613  -0.929  -2.968  0.00  0.00    +0.000 OA
ATOM     15  H   UNL     1       4.991  -0.650  -2.120  0.00  0.00    +0.000 HD
ENDBRANCH  11  14
ENDBRANCH   1   8
BRANCH   5  16
ATOM     16  C   UNL     1       4.421  -1.342   4.460  0.00  0.00    +0.000 C 
BRANCH  16  17
ATOM     17  C   UNL     1       4.662  -2.668   3.729  0.00  0.00    +0.000 C 
BRANCH  17  18
ATOM     18  N   UNL     1       5.112  -3.758   4.592  0.00  0.00    +0.000 N 
ATOM     19  H   UNL     1       4.503  -3.883   5.401  0.00  0.00    +0.000 HD
BRANCH  18  20
ATOM     20  C   UNL     1       5.298  -4.973   3.898  0.00  0.00    +0.000 A 
ATOM     21  C   UNL     1       5.754  -5.077   2.586  0.00  0.00    +0.000 A 
ATOM     22  N   UNL     1       5.974  -6.229   1.923  0.00  0.00    +0.000 NA
ATOM     23  C   UNL     1       5.762  -7.351   2.644  0.00  0.00    +0.000 A 
ATOM     24  N   UNL     1       5.371  -7.398   3.931  0.00  0.00    +0.000 NA
ATOM     25  C   UNL     1       5.169  -6.202   4.526  0.00  0.00    +0.000 A 
BRANCH  23  26
ATOM     26  C   UNL     1       6.005  -8.654   1.920  0.00  0.00    +0.000 C 
ATOM     27  N   UNL     1       6.415  -8.533   0.609  0.00  0.00    +0.000 N 
ATOM     28  O   UNL     1       5.850  -9.758   2.425  0.00  0.00    +0.000 OA
ATOM     29  H   UNL     1       6.557  -7.621   0.205  0.00  0.00    +0.000 HD
ATOM     30  H   UNL     1       6.612  -9.367   0.075  0.00  0.00    +0.000 HD
ENDBRANCH  23  26
ENDBRANCH  18  20
ENDBRANCH  17  18
ENDBRANCH  16  17
ENDBRANCH   5  16
TORSDOF 7
