REMARK  Name = 
REMARK  5 active torsions:
REMARK  status: ('A' for Active; 'I' for Inactive)
REMARK    1  A    between atoms: N_1  and  C_2
REMARK    2  A    between atoms: C_2  and  C_3
REMARK    3  A    between atoms: C_6  and  C_7
REMARK    4  A    between atoms: C_7  and  O_8
REMARK    5  A    between atoms: O_8  and  C_9
REMARK                            x       y       z     vdW  Elec       q    Type
REMARK                         _______ _______ _______ _____ _____    ______ ____
ROOT
ATOM      1  C   UNL     1       2.766  -1.250  -0.838  0.00  0.00    +0.000 A 
ATOM      2  C   UNL     1       2.444  -2.535  -0.413  0.00  0.00    +0.000 A 
ATOM      3  N   UNL     1       2.730  -3.647  -1.135  0.00  0.00    +0.000 NA
ATOM      4  C   UNL     1       3.380  -3.437  -2.309  0.00  0.00    +0.000 A 
ATOM      5  C   UNL     1       3.733  -2.155  -2.716  0.00  0.00    +0.000 A 
ATOM      6  N   UNL     1       3.429  -1.042  -2.005  0.00  0.00    +0.000 NA
ENDROOT
BRANCH   1   7
ATOM      7  C   UNL     1       2.348  -0.048  -0.028  0.00  0.00    +0.000 C 
BRANCH   7   8
ATOM      8  N   UNL     1       2.907  -0.041   1.326  0.00  0.00    +0.000 NA
ATOM      9  H   UNL     1       2.632   0.825   1.787  0.00  0.00    +0.000 HD
ATOM     10  H   UNL     1       3.926  -0.000   1.248  0.00  0.00    +0.000 HD
ENDBRANCH   7   8
ENDBRANCH   1   7
BRANCH   4  11
ATOM     11  C   UNL     1       3.688  -4.629  -3.177  0.00  0.00    +0.000 C 
BRANCH  11  12
ATOM     12  O   UNL     1       5.008  -5.100  -2.897  0.00  0.00    +0.000 OA
BRANCH  12  13
ATOM     13  C   UNL     1       5.440  -6.180  -3.616  0.00  0.00    +0.000 A 
ATOM     14  C   UNL     1       6.701  -6.656  -3.265  0.00  0.00    +0.000 A 
ATOM     15  C   UNL     1       7.223  -7.733  -3.963  0.00  0.00    +0.000 A 
ATOM     16  N   UNL     1       6.580  -8.354  -4.971  0.00  0.00    +0.000 NA
ATOM     17  C   UNL     1       5.360  -7.875  -5.284  0.00  0.00    +0.000 A 
ATOM     18  F   UNL     1       4.702  -8.470  -6.289  0.00  0.00    +0.000 F 
ATOM     19  C   UNL     1       4.750  -6.808  -4.647  0.00  0.00    +0.000 A 
ENDBRANCH  12  13
ENDBRANCH  11  12
ENDBRANCH   4  11
TORSDOF 5
