REMARK  Name = 
REMARK  7 active torsions:
REMARK  status: ('A' for Active; 'I' for Inactive)
REMARK    1  A    between atoms: C_1  and  N_2
REMARK    2  A    between atoms: N_2  and  C_3
REMARK    3  A    between atoms: C_3  and  C_4
REMARK    4  A    between atoms: C_7  and  C_8
REMARK    5  A    between atoms: C_8  and  N_9
REMARK    6  A    between atoms: C_10  and  C_12
REMARK    7  A    between atoms: C_19  and  C_21
REMARK                            x       y       z     vdW  Elec       q    Type
REMARK                         _______ _______ _______ _____ _____    ______ ____
ROOT
ATOM      1  C   UNL     1       2.037  -2.406   0.333  0.00  0.00    +0.000 A 
ATOM      2  N   UNL     1       1.900  -3.284  -0.679  0.00  0.00    +0.000 NA
ATOM      3  C   UNL     1       1.057  -4.316  -0.471  0.00  0.00    +0.000 A 
ATOM      4  C   UNL     1       0.347  -4.508   0.696  0.00  0.00    +0.000 A 
ATOM      5  C   UNL     1       0.588  -3.575   1.681  0.00  0.00    +0.000 A 
ATOM      6  N   UNL     1       1.413  -2.523   1.527  0.00  0.00    +0.000 NA
ENDROOT
BRANCH   1   7
ATOM      7  C   UNL     1       2.942  -1.204   0.144  0.00  0.00    +0.000 C 
BRANCH   7   9
ATOM      8  C   UNL     1       0.968   0.325  -0.100  0.00  0.00    +0.000 C 
ATOM      9  N   UNL     1       2.351   0.007  -0.444  0.00  0.00    +0.000 N 
ATOM     10  C   UNL     1       3.093   1.050  -1.018  0.00  0.00    +0.000 C 
ATOM     11  O   UNL     1       2.520   2.002  -1.550  0.00  0.00    +0.000 OA
BRANCH  10  12
ATOM     12  C   UNL     1       4.560   1.123  -0.878  0.00  0.00    +0.000 A 
ATOM     13  C   UNL     1       5.311   0.717   0.213  0.00  0.00    +0.000 A 
ATOM     14  S   UNL     1       6.903   1.350   0.224  0.00  0.00    +0.000 S 
ATOM     15  C   UNL     1       6.626   2.200  -1.220  0.00  0.00    +0.000 A 
ATOM     16  N   UNL     1       7.529   3.093  -1.705  0.00  0.00    +0.000 NA
ATOM     17  C   UNL     1       7.172   3.652  -2.814  0.00  0.00    +0.000 A 
ATOM     18  N   UNL     1       6.026   3.355  -3.510  0.00  0.00    +0.000 N 
ATOM     19  C   UNL     1       5.138   2.381  -3.108  0.00  0.00    +0.000 A 
ATOM     20  O   UNL     1       4.279   1.945  -3.866  0.00  0.00    +0.000 OA
ATOM     21  C   UNL     1       5.412   1.861  -1.782  0.00  0.00    +0.000 A 
ATOM     22  H   UNL     1       5.871   3.733  -4.432  0.00  0.00    +0.000 HD
ENDBRANCH  10  12
ENDBRANCH   7   9
ENDBRANCH   1   7
BRANCH   4  23
ATOM     23  C   UNL     1      -0.616  -5.629   0.884  0.00  0.00    +0.000 C 
BRANCH  23  24
ATOM     24  N   UNL     1       0.006  -6.809   1.432  0.00  0.00    +0.000 N 
ATOM     25  C   UNL     1      -0.755  -7.915   1.737  0.00  0.00    +0.000 C 
ATOM     26  O   UNL     1      -1.975  -7.920   1.608  0.00  0.00    +0.000 OA
ATOM     27  H   UNL     1       1.012  -6.865   1.485  0.00  0.00    +0.000 HD
BRANCH  25  28
ATOM     28  C   UNL     1      -0.025  -9.059   2.208  0.00  0.00    +0.000 A 
ATOM     29  C   UNL     1       1.312  -9.298   2.457  0.00  0.00    +0.000 A 
ATOM     30  C   UNL     1       1.369 -10.633   2.899  0.00  0.00    +0.000 A 
ATOM     31  N   UNL     1       0.168 -11.210   2.932  0.00  0.00    +0.000 NA
ATOM     32  N   UNL     1      -0.659 -10.232   2.516  0.00  0.00    +0.000 N 
ATOM     33  H   UNL     1      -1.656 -10.426   2.452  0.00  0.00    +0.000 HD
ENDBRANCH  25  28
ENDBRANCH  23  24
ENDBRANCH   4  23
TORSDOF 6
