REMARK  Name = 
REMARK  6 active torsions:
REMARK  status: ('A' for Active; 'I' for Inactive)
REMARK    1  A    between atoms: C_2  and  C_19
REMARK    2  A    between atoms: N_3  and  C_4
REMARK    3  A    between atoms: C_4  and  C_5
REMARK    4  A    between atoms: C_8  and  C_9
REMARK    5  A    between atoms: C_9  and  O_10
REMARK    6  A    between atoms: O_10  and  C_11
REMARK                            x       y       z     vdW  Elec       q    Type
REMARK                         _______ _______ _______ _____ _____    ______ ____
ROOT
ATOM      1  O   UNL     1       0.962   0.663  -0.123  0.00  0.00    +0.000 OA
ATOM      2  C   UNL     1       2.167   0.542   0.063  0.00  0.00    +0.000 C 
ATOM      3  N   UNL     1       2.785   0.635   1.290  0.00  0.00    +0.000 N 
ATOM      4  H   UNL     1       3.688   0.194   1.379  0.00  0.00    +0.000 HD
ENDROOT
BRANCH   2   5
ATOM      5  C   UNL     1       3.094   0.018  -0.926  0.00  0.00    +0.000 A 
ATOM      6  C   UNL     1       2.744  -1.008  -1.783  0.00  0.00    +0.000 A 
ATOM      7  S   UNL     1       4.125  -1.935  -2.212  0.00  0.00    +0.000 S 
ATOM      8  C   UNL     1       5.179  -0.821  -1.457  0.00  0.00    +0.000 A 
ATOM      9  N   UNL     1       6.501  -1.057  -1.302  0.00  0.00    +0.000 NA
ATOM     10  C   UNL     1       7.159  -0.077  -0.775  0.00  0.00    +0.000 A 
ATOM     11  N   UNL     1       6.620   1.140  -0.433  0.00  0.00    +0.000 N 
ATOM     12  C   UNL     1       5.274   1.424  -0.534  0.00  0.00    +0.000 A 
ATOM     13  O   UNL     1       4.810   2.514  -0.247  0.00  0.00    +0.000 OA
ATOM     14  C   UNL     1       4.494   0.299  -1.024  0.00  0.00    +0.000 A 
ATOM     15  H   UNL     1       7.208   1.894  -0.106  0.00  0.00    +0.000 HD
ENDBRANCH   2   5
BRANCH   3  16
ATOM     16  C   UNL     1       2.029   0.723   2.507  0.00  0.00    +0.000 C 
BRANCH  16  17
ATOM     17  C   UNL     1       2.966   0.907   3.667  0.00  0.00    +0.000 A 
ATOM     18  C   UNL     1       3.295   2.201   4.099  0.00  0.00    +0.000 A 
ATOM     19  C   UNL     1       4.179   2.394   5.159  0.00  0.00    +0.000 A 
ATOM     20  C   UNL     1       4.779   1.299   5.797  0.00  0.00    +0.000 A 
ATOM     21  C   UNL     1       4.467   0.005   5.358  0.00  0.00    +0.000 A 
ATOM     22  C   UNL     1       3.580  -0.190   4.296  0.00  0.00    +0.000 A 
BRANCH  20  23
ATOM     23  C   UNL     1       5.731   1.512   6.951  0.00  0.00    +0.000 C 
BRANCH  23  24
ATOM     24  O   UNL     1       4.994   1.527   8.168  0.00  0.00    +0.000 OA
BRANCH  24  25
ATOM     25  C   UNL     1       5.811   1.830   9.236  0.00  0.00    +0.000 A 
ATOM     26  N   UNL     1       5.203   2.422  10.273  0.00  0.00    +0.000 NA
ATOM     27  C   UNL     1       5.997   2.767  11.303  0.00  0.00    +0.000 A 
ATOM     28  C   UNL     1       7.352   2.529  11.333  0.00  0.00    +0.000 A 
ATOM     29  C   UNL     1       7.864   1.891  10.230  0.00  0.00    +0.000 A 
ATOM     30  N   UNL     1       7.121   1.532   9.167  0.00  0.00    +0.000 NA
ENDBRANCH  24  25
ENDBRANCH  23  24
ENDBRANCH  20  23
ENDBRANCH  16  17
ENDBRANCH   3  16
TORSDOF 6
