REMARK  Name = 
REMARK  6 active torsions:
REMARK  status: ('A' for Active; 'I' for Inactive)
REMARK    1  A    between atoms: C_1  and  S_2
REMARK    2  A    between atoms: S_2  and  C_3
REMARK    3  A    between atoms: C_6  and  C_7
REMARK    4  A    between atoms: C_11  and  C_12
REMARK    5  A    between atoms: C_12  and  N_13
REMARK    6  A    between atoms: N_13  and  C_14
REMARK                            x       y       z     vdW  Elec       q    Type
REMARK                         _______ _______ _______ _____ _____    ______ ____
ROOT
ATOM      1  C   UNL     1       3.183  -1.406   0.976  0.00  0.00    +0.000 A 
ATOM      2  N   UNL     1       3.784  -1.235   2.179  0.00  0.00    +0.000 NA
ATOM      3  C   UNL     1       4.083  -2.340   2.904  0.00  0.00    +0.000 A 
ATOM      4  C   UNL     1       3.827  -3.633   2.480  0.00  0.00    +0.000 A 
ATOM      5  C   UNL     1       3.197  -3.797   1.247  0.00  0.00    +0.000 A 
ATOM      6  C   UNL     1       2.843  -2.674   0.474  0.00  0.00    +0.000 A 
ENDROOT
BRANCH   4   7
ATOM      7  C   UNL     1       4.218  -4.759   3.353  0.00  0.00    +0.000 C 
ATOM      8  N   UNL     1       4.415  -5.978   2.767  0.00  0.00    +0.000 N 
ATOM      9  O   UNL     1       4.388  -4.601   4.555  0.00  0.00    +0.000 OA
ATOM     10  H   UNL     1       4.486  -6.113   1.768  0.00  0.00    +0.000 HD
ATOM     11  H   UNL     1       4.755  -6.721   3.365  0.00  0.00    +0.000 HD
ENDBRANCH   4   7
BRANCH   1  13
ATOM     12  C   UNL     1       3.522   1.356   1.142  0.00  0.00    +0.000 C 
ATOM     13  S   UNL     1       2.871   0.085   0.028  0.00  0.00    +0.000 S 
ENDBRANCH   1  13
BRANCH   6  14
ATOM     14  C   UNL     1       2.245  -2.839  -0.905  0.00  0.00    +0.000 C 
BRANCH  14  15
ATOM     15  N   UNL     1       1.461  -4.075  -1.035  0.00  0.00    +0.000 N 
ATOM     16  H   UNL     1       0.755  -4.135  -0.303  0.00  0.00    +0.000 HD
BRANCH  15  17
ATOM     17  C   UNL     1       0.861  -4.293  -2.295  0.00  0.00    +0.000 A 
ATOM     18  C   UNL     1       1.445  -3.881  -3.502  0.00  0.00    +0.000 A 
ATOM     19  C   UNL     1       0.836  -4.150  -4.731  0.00  0.00    +0.000 A 
ATOM     20  C   UNL     1      -0.347  -4.872  -4.762  0.00  0.00    +0.000 A 
ATOM     21  F   UNL     1      -0.934  -5.128  -5.939  0.00  0.00    +0.000 F 
ATOM     22  C   UNL     1      -0.920  -5.343  -3.590  0.00  0.00    +0.000 A 
ATOM     23  C   UNL     1      -0.305  -5.069  -2.362  0.00  0.00    +0.000 A 
ENDBRANCH  15  17
ENDBRANCH  14  15
ENDBRANCH   6  14
TORSDOF 5
