REMARK  Name = 
REMARK  5 active torsions:
REMARK  status: ('A' for Active; 'I' for Inactive)
REMARK    1  A    between atoms: N_1  and  C_2
REMARK    2  A    between atoms: C_2  and  C_3
REMARK    3  A    between atoms: C_6  and  S_7
REMARK    4  A    between atoms: S_7  and  C_8
REMARK    5  A    between atoms: C_8  and  C_9
REMARK                            x       y       z     vdW  Elec       q    Type
REMARK                         _______ _______ _______ _____ _____    ______ ____
ROOT
ATOM      1  C   UNL     1       2.827  -1.131   0.826  0.00  0.00    +0.000 A 
ATOM      2  C   UNL     1       2.475  -2.385   0.373  0.00  0.00    +0.000 A 
ATOM      3  N   UNL     1       2.773  -3.532   1.017  0.00  0.00    +0.000 NA
ATOM      4  C   UNL     1       3.450  -3.410   2.170  0.00  0.00    +0.000 A 
ATOM      5  N   UNL     1       3.868  -2.243   2.688  0.00  0.00    +0.000 NA
ATOM      6  C   UNL     1       3.550  -1.129   1.999  0.00  0.00    +0.000 A 
ENDROOT
BRANCH   1   7
ATOM      7  C   UNL     1       2.444   0.119   0.105  0.00  0.00    +0.000 C 
BRANCH   7   8
ATOM      8  N   UNL     1       0.995   0.254   0.011  0.00  0.00    +0.000 NA
ATOM      9  H   UNL     1       0.763   1.135  -0.445  0.00  0.00    +0.000 HD
ATOM     10  H   UNL     1       0.596   0.310   0.948  0.00  0.00    +0.000 HD
ENDBRANCH   7   8
ENDBRANCH   1   7
BRANCH   4  11
ATOM     11  S   UNL     1       3.751  -4.862   3.146  0.00  0.00    +0.000 S 
BRANCH  11  12
ATOM     12  C   UNL     1       3.651  -6.131   1.851  0.00  0.00    +0.000 C 
BRANCH  12  13
ATOM     13  C   UNL     1       3.735  -7.520   2.424  0.00  0.00    +0.000 A 
ATOM     14  C   UNL     1       2.586  -8.245   2.748  0.00  0.00    +0.000 A 
ATOM     15  C   UNL     1       2.702  -9.533   3.264  0.00  0.00    +0.000 A 
ATOM     16  C   UNL     1       3.972 -10.054   3.446  0.00  0.00    +0.000 A 
ATOM     17  N   UNL     1       5.108  -9.383   3.157  0.00  0.00    +0.000 NA
ATOM     18  C   UNL     1       4.963  -8.131   2.661  0.00  0.00    +0.000 A 
ENDBRANCH  12  13
ENDBRANCH  11  12
ENDBRANCH   4  11
TORSDOF 5
