REMARK  Name = 
REMARK  4 active torsions:
REMARK  status: ('A' for Active; 'I' for Inactive)
REMARK    1  A    between atoms: C_2  and  C_5
REMARK    2  A    between atoms: C_7  and  N_8
REMARK    3  A    between atoms: N_8  and  C_9
REMARK    4  A    between atoms: C_9  and  C_10
REMARK                            x       y       z     vdW  Elec       q    Type
REMARK                         _______ _______ _______ _____ _____    ______ ____
ROOT
ATOM      1  C   UNL     1       2.628  -1.091  -0.968  0.00  0.00    +0.000 A 
ATOM      2  C   UNL     1       2.279  -2.407  -0.680  0.00  0.00    +0.000 A 
ATOM      3  C   UNL     1       2.683  -3.422  -1.535  0.00  0.00    +0.000 A 
ATOM      4  N   UNL     1       3.373  -3.153  -2.664  0.00  0.00    +0.000 NA
ATOM      5  C   UNL     1       3.687  -1.878  -3.000  0.00  0.00    +0.000 A 
ATOM      6  N   UNL     1       4.394  -1.643  -4.162  0.00  0.00    +0.000 N 
ATOM      7  C   UNL     1       4.335  -0.377  -4.905  0.00  0.00    +0.000 C 
ATOM      8  C   UNL     1       3.836  -0.602  -6.352  0.00  0.00    +0.000 C 
ATOM      9  N   UNL     1       4.579  -1.646  -7.085  0.00  0.00    +0.000 NA
ATOM     10  C   UNL     1       4.505  -2.901  -6.305  0.00  0.00    +0.000 C 
ATOM     11  C   UNL     1       5.038  -2.763  -4.863  0.00  0.00    +0.000 C 
ATOM     12  C   UNL     1       3.337  -0.837  -2.146  0.00  0.00    +0.000 A 
ATOM     13  H   UNL     1       5.558  -1.363  -7.134  0.00  0.00    +0.000 HD
ENDROOT
BRANCH   1  15
ATOM     14  F   UNL     1       1.614  -0.356   1.077  0.00  0.00    +0.000 F 
ATOM     15  C   UNL     1       2.308   0.034  -0.028  0.00  0.00    +0.000 C 
ATOM     16  F   UNL     1       1.559   1.007  -0.616  0.00  0.00    +0.000 F 
ATOM     17  F   UNL     1       3.427   0.657   0.436  0.00  0.00    +0.000 F 
ENDBRANCH   1  15
BRANCH   3  18
ATOM     18  N   UNL     1       2.430  -4.735  -1.135  0.00  0.00    +0.000 N 
ATOM     19  H   UNL     1       1.451  -4.902  -0.931  0.00  0.00    +0.000 HD
BRANCH  18  20
ATOM     20  C   UNL     1       3.101  -5.822  -1.825  0.00  0.00    +0.000 C 
BRANCH  20  21
ATOM     21  C   UNL     1       2.145  -6.677  -2.623  0.00  0.00    +0.000 A 
ATOM     22  C   UNL     1       1.548  -6.191  -3.788  0.00  0.00    +0.000 A 
ATOM     23  C   UNL     1       0.738  -7.042  -4.524  0.00  0.00    +0.000 A 
ATOM     24  N   UNL     1       0.481  -8.323  -4.181  0.00  0.00    +0.000 NA
ATOM     25  C   UNL     1       1.059  -8.773  -3.048  0.00  0.00    +0.000 A 
ATOM     26  C   UNL     1       1.882  -8.000  -2.246  0.00  0.00    +0.000 A 
ENDBRANCH  20  21
ENDBRANCH  18  20
ENDBRANCH   3  18
TORSDOF 4
