REMARK  Name = 
REMARK  4 active torsions:
REMARK  status: ('A' for Active; 'I' for Inactive)
REMARK    1  A    between atoms: C_1  and  C_2
REMARK    2  A    between atoms: C_9  and  C_10
REMARK    3  A    between atoms: C_13  and  C_14
REMARK    4  A    between atoms: C_21  and  C_22
REMARK                            x       y       z     vdW  Elec       q    Type
REMARK                         _______ _______ _______ _____ _____    ______ ____
ROOT
ATOM      1  C   UNL     1       3.368  -1.998  -4.135  0.00  0.00    +0.000 C 
ATOM      2  C   UNL     1       3.425  -1.613  -2.660  0.00  0.00    +0.000 C 
ATOM      3  C   UNL     1       2.306  -0.638  -2.235  0.00  0.00    +0.000 C 
ATOM      4  N   UNL     1       2.672   0.744  -2.525  0.00  0.00    +0.000 N 
ATOM      5  C   UNL     1       1.963   1.505  -3.415  0.00  0.00    +0.000 A 
ATOM      6  N   UNL     1       0.820   1.024  -3.922  0.00  0.00    +0.000 NA
ATOM      7  C   UNL     1       0.134   1.803  -4.775  0.00  0.00    +0.000 A 
ATOM      8  C   UNL     1       0.547   3.053  -5.154  0.00  0.00    +0.000 A 
ATOM      9  C   UNL     1       1.736   3.487  -4.607  0.00  0.00    +0.000 A 
ATOM     10  N   UNL     1       2.434   2.720  -3.737  0.00  0.00    +0.000 NA
ATOM     11  C   UNL     1       3.982   1.158  -2.038  0.00  0.00    +0.000 C 
ATOM     12  C   UNL     1       5.072   0.186  -2.527  0.00  0.00    +0.000 C 
ATOM     13  C   UNL     1       5.483   0.421  -3.979  0.00  0.00    +0.000 C 
ATOM     14  O   UNL     1       4.744  -1.191  -2.270  0.00  0.00    +0.000 OA
ENDROOT
BRANCH   9  15
ATOM     15  C   UNL     1       2.337   4.790  -4.954  0.00  0.00    +0.000 A 
ATOM     16  C   UNL     1       3.520   5.255  -4.369  0.00  0.00    +0.000 A 
ATOM     17  N   UNL     1       4.126   6.429  -4.701  0.00  0.00    +0.000 NA
ATOM     18  C   UNL     1       3.485   7.142  -5.667  0.00  0.00    +0.000 A 
ATOM     19  C   UNL     1       2.307   6.707  -6.252  0.00  0.00    +0.000 A 
ATOM     20  N   UNL     1       1.709   5.534  -5.910  0.00  0.00    +0.000 NA
BRANCH  18  21
ATOM     21  C   UNL     1       4.098   8.425  -6.106  0.00  0.00    +0.000 C 
ATOM     22  N   UNL     1       5.265   8.771  -5.485  0.00  0.00    +0.000 N 
ATOM     23  O   UNL     1       3.594   9.124  -6.976  0.00  0.00    +0.000 OA
ATOM     24  H   UNL     1       5.664   8.165  -4.776  0.00  0.00    +0.000 HD
ATOM     25  H   UNL     1       5.740   9.621  -5.753  0.00  0.00    +0.000 HD
ENDBRANCH  18  21
ENDBRANCH   9  15
TORSDOF 2
