REMARK  Name = 
REMARK  9 active torsions:
REMARK  status: ('A' for Active; 'I' for Inactive)
REMARK    1  A    between atoms: C_1  and  O_2
REMARK    2  A    between atoms: O_2  and  C_3
REMARK    3  A    between atoms: C_10  and  C_11
REMARK    4  A    between atoms: N_13  and  C_14
REMARK    5  A    between atoms: C_14  and  C_15
REMARK    6  A    between atoms: C_18  and  C_19
REMARK    7  A    between atoms: C_19  and  N_20
REMARK    8  A    between atoms: N_20  and  C_21
REMARK    9  A    between atoms: C_21  and  C_22
REMARK                            x       y       z     vdW  Elec       q    Type
REMARK                         _______ _______ _______ _____ _____    ______ ____
ROOT
ATOM      1  C   UNL     1       2.782   1.607   2.878  0.00  0.00    +0.000 C 
ENDROOT
BRANCH   1   2
ATOM      2  C   UNL     1       1.691   2.454   2.277  0.00  0.00    +0.000 A 
ATOM      3  C   UNL     1       0.473   1.880   1.891  0.00  0.00    +0.000 A 
ATOM      4  C   UNL     1      -0.514   2.652   1.271  0.00  0.00    +0.000 A 
ATOM      5  C   UNL     1      -0.307   4.017   1.031  0.00  0.00    +0.000 A 
ATOM      6  C   UNL     1       0.908   4.592   1.429  0.00  0.00    +0.000 A 
ATOM      7  C   UNL     1       1.898   3.818   2.040  0.00  0.00    +0.000 A 
BRANCH   5   8
ATOM      8  C   UNL     1      -1.351   4.858   0.331  0.00  0.00    +0.000 C 
BRANCH   8   9
ATOM      9  N   UNL     1      -2.651   4.920   0.997  0.00  0.00    +0.000 NA
ATOM     10  H   UNL     1      -3.034   3.980   1.096  0.00  0.00    +0.000 HD
BRANCH   9  11
ATOM     11  C   UNL     1      -2.577   5.515   2.335  0.00  0.00    +0.000 C 
BRANCH  11  12
ATOM     12  C   UNL     1      -3.940   5.564   2.987  0.00  0.00    +0.000 A 
ATOM     13  C   UNL     1      -4.761   6.678   2.834  0.00  0.00    +0.000 A 
ATOM     14  N   UNL     1      -5.996   6.764   3.385  0.00  0.00    +0.000 NA
ATOM     15  C   UNL     1      -6.391   5.677   4.083  0.00  0.00    +0.000 A 
ATOM     16  C   UNL     1      -5.591   4.557   4.228  0.00  0.00    +0.000 A 
ATOM     17  N   UNL     1      -4.356   4.471   3.684  0.00  0.00    +0.000 NA
ENDBRANCH  11  12
ENDBRANCH   9  11
ENDBRANCH   8   9
ENDBRANCH   5   8
ENDBRANCH   1   2
BRANCH   1  20
ATOM     18  C   UNL     1       4.667   0.208   2.164  0.00  0.00    +0.000 C 
ATOM     19  O   UNL     1       4.912  -0.087   3.332  0.00  0.00    +0.000 OA
ATOM     20  N   UNL     1       3.633   1.050   1.853  0.00  0.00    +0.000 N 
ATOM     21  H   UNL     1       3.450   1.304   0.890  0.00  0.00    +0.000 HD
BRANCH  18  29
ATOM     22  C   UNL     1       4.526   0.509  -1.280  0.00  0.00    +0.000 A 
ATOM     23  N   UNL     1       4.702   0.431  -2.615  0.00  0.00    +0.000 NA
ATOM     24  C   UNL     1       5.714  -0.308  -3.080  0.00  0.00    +0.000 A 
ATOM     25  N   UNL     1       6.592  -0.996  -2.361  0.00  0.00    +0.000 NA
ATOM     26  C   UNL     1       6.381  -0.899  -1.038  0.00  0.00    +0.000 A 
ATOM     27  S   UNL     1       7.414  -1.721   0.028  0.00  0.00    +0.000 S 
ATOM     28  C   UNL     1       6.556  -1.149   1.376  0.00  0.00    +0.000 A 
ATOM     29  C   UNL     1       5.478  -0.329   1.057  0.00  0.00    +0.000 A 
ATOM     30  C   UNL     1       5.378  -0.176  -0.394  0.00  0.00    +0.000 A 
BRANCH  22  32
ATOM     31  C   UNL     1       2.746   1.929  -1.840  0.00  0.00    +0.000 C 
ATOM     32  O   UNL     1       3.490   1.289  -0.803  0.00  0.00    +0.000 OA
ENDBRANCH  22  32
ENDBRANCH  18  29
ENDBRANCH   1  20
TORSDOF 8
