REMARK  Name = 
REMARK  5 active torsions:
REMARK  status: ('A' for Active; 'I' for Inactive)
REMARK    1  A    between atoms: C_2  and  C_4
REMARK    2  A    between atoms: C_8  and  C_9
REMARK    3  A    between atoms: C_9  and  C_10
REMARK    4  A    between atoms: C_10  and  C_11
REMARK    5  A    between atoms: C_13  and  C_14
REMARK                            x       y       z     vdW  Elec       q    Type
REMARK                         _______ _______ _______ _____ _____    ______ ____
ROOT
ATOM      1  C   UNL     1       6.837   2.164  -3.823  0.00  0.00    +0.000 C 
ENDROOT
BRANCH   1   2
ATOM      2  C   UNL     1       8.220   1.850  -4.344  0.00  0.00    +0.000 A 
ATOM      3  C   UNL     1       9.142   2.874  -4.469  0.00  0.00    +0.000 A 
ATOM      4  C   UNL     1      10.375   2.569  -5.022  0.00  0.00    +0.000 A 
ATOM      5  N   UNL     1      10.666   1.320  -5.445  0.00  0.00    +0.000 NA
ATOM      6  C   UNL     1       9.705   0.397  -5.289  0.00  0.00    +0.000 A 
ATOM      7  N   UNL     1       8.487   0.599  -4.762  0.00  0.00    +0.000 NA
BRANCH   4   8
ATOM      8  C   UNL     1      11.430   3.585  -5.214  0.00  0.00    +0.000 A 
ATOM      9  C   UNL     1      11.567   4.686  -4.355  0.00  0.00    +0.000 A 
ATOM     10  C   UNL     1      12.554   5.629  -4.606  0.00  0.00    +0.000 A 
ATOM     11  N   UNL     1      13.414   5.556  -5.640  0.00  0.00    +0.000 NA
ATOM     12  C   UNL     1      13.290   4.486  -6.451  0.00  0.00    +0.000 A 
ATOM     13  C   UNL     1      12.336   3.494  -6.279  0.00  0.00    +0.000 A 
ENDBRANCH   4   8
ENDBRANCH   1   2
BRANCH   1  14
ATOM     14  C   UNL     1       6.170   1.009  -3.071  0.00  0.00    +0.000 C 
BRANCH  14  19
ATOM     15  C   UNL     1       3.419   2.468  -0.854  0.00  0.00    +0.000 A 
ATOM     16  C   UNL     1       2.290   2.290  -1.662  0.00  0.00    +0.000 A 
ATOM     17  C   UNL     1       2.414   1.665  -2.903  0.00  0.00    +0.000 A 
ATOM     18  C   UNL     1       3.664   1.229  -3.347  0.00  0.00    +0.000 A 
ATOM     19  C   UNL     1       4.807   1.418  -2.557  0.00  0.00    +0.000 A 
ATOM     20  C   UNL     1       4.675   2.044  -1.309  0.00  0.00    +0.000 A 
BRANCH  15  22
ATOM     21  N   UNL     1       2.139   3.041   1.136  0.00  0.00    +0.000 N 
ATOM     22  C   UNL     1       3.330   3.132   0.472  0.00  0.00    +0.000 C 
ATOM     23  O   UNL     1       4.289   3.709   0.968  0.00  0.00    +0.000 OA
ATOM     24  H   UNL     1       2.122   3.405   2.081  0.00  0.00    +0.000 HD
ATOM     25  H   UNL     1       1.426   2.373   0.879  0.00  0.00    +0.000 HD
ENDBRANCH  15  22
ENDBRANCH  14  19
ENDBRANCH   1  14
TORSDOF 5
