REMARK  Name = 
REMARK  4 active torsions:
REMARK  status: ('A' for Active; 'I' for Inactive)
REMARK    1  A    between atoms: C_2  and  C_4
REMARK    2  A    between atoms: C_7  and  O_8
REMARK    3  A    between atoms: O_8  and  C_9
REMARK    4  A    between atoms: C_9  and  C_10
REMARK                            x       y       z     vdW  Elec       q    Type
REMARK                         _______ _______ _______ _____ _____    ______ ____
ROOT
ATOM      1  C   UNL     1       3.228   1.330  -0.373  0.00  0.00    +0.000 A 
ATOM      2  C   UNL     1       2.815   2.562   0.139  0.00  0.00    +0.000 A 
ATOM      3  C   UNL     1       3.526   3.714  -0.204  0.00  0.00    +0.000 A 
ATOM      4  C   UNL     1       4.638   3.586  -1.023  0.00  0.00    +0.000 A 
ATOM      5  N   UNL     1       5.059   2.406  -1.527  0.00  0.00    +0.000 NA
ATOM      6  C   UNL     1       4.349   1.304  -1.188  0.00  0.00    +0.000 A 
ENDROOT
BRANCH   1   8
ATOM      7  N   UNL     1       1.211   0.113   0.208  0.00  0.00    +0.000 N 
ATOM      8  C   UNL     1       2.546   0.053  -0.071  0.00  0.00    +0.000 C 
ATOM      9  O   UNL     1       3.145  -1.012  -0.104  0.00  0.00    +0.000 OA
ATOM     10  H   UNL     1       0.735  -0.776   0.307  0.00  0.00    +0.000 HD
ATOM     11  H   UNL     1       0.643   0.922  -0.005  0.00  0.00    +0.000 HD
ENDBRANCH   1   8
BRANCH   4  12
ATOM     12  O   UNL     1       5.323   4.738  -1.356  0.00  0.00    +0.000 OA
BRANCH  12  13
ATOM     13  C   UNL     1       6.679   4.448  -1.719  0.00  0.00    +0.000 C 
BRANCH  13  14
ATOM     14  C   UNL     1       7.417   5.693  -2.141  0.00  0.00    +0.000 A 
ATOM     15  C   UNL     1       8.787   5.829  -1.888  0.00  0.00    +0.000 A 
ATOM     16  C   UNL     1       9.466   6.958  -2.337  0.00  0.00    +0.000 A 
ATOM     17  C   UNL     1       8.754   7.911  -3.041  0.00  0.00    +0.000 A 
ATOM     18  F   UNL     1       9.404   9.000  -3.475  0.00  0.00    +0.000 F 
ATOM     19  N   UNL     1       7.440   7.810  -3.330  0.00  0.00    +0.000 NA
ATOM     20  C   UNL     1       6.805   6.702  -2.880  0.00  0.00    +0.000 A 
ENDBRANCH  13  14
ENDBRANCH  12  13
ENDBRANCH   4  12
TORSDOF 4
