REMARK  Name = 
REMARK  5 active torsions:
REMARK  status: ('A' for Active; 'I' for Inactive)
REMARK    1  A    between atoms: C_2  and  C_4
REMARK    2  A    between atoms: C_7  and  O_8
REMARK    3  A    between atoms: O_8  and  C_9
REMARK    4  A    between atoms: C_9  and  C_10
REMARK    5  A    between atoms: C_15  and  C_16
REMARK                            x       y       z     vdW  Elec       q    Type
REMARK                         _______ _______ _______ _____ _____    ______ ____
ROOT
ATOM      1  C   UNL     1       5.261  -5.346   2.380  0.00  0.00    +0.000 C 
ENDROOT
BRANCH   1   2
ATOM      2  C   UNL     1       6.192  -6.241   3.164  0.00  0.00    +0.000 A 
ATOM      3  C   UNL     1       7.323  -5.752   3.829  0.00  0.00    +0.000 A 
ATOM      4  C   UNL     1       8.211  -6.646   4.411  0.00  0.00    +0.000 A 
ATOM      5  F   UNL     1       9.298  -6.182   5.042  0.00  0.00    +0.000 F 
ATOM      6  C   UNL     1       8.010  -8.018   4.311  0.00  0.00    +0.000 A 
ATOM      7  C   UNL     1       6.891  -8.540   3.634  0.00  0.00    +0.000 A 
ATOM      8  C   UNL     1       5.972  -7.634   3.099  0.00  0.00    +0.000 A 
BRANCH   7   9
ATOM      9  C   UNL     1       6.812 -10.046   3.445  0.00  0.00    +0.000 C 
ATOM     10  C   UNL     1       5.662 -10.700   2.644  0.00  0.00    +0.000 C 
ATOM     11  C   UNL     1       4.499 -11.284   3.454  0.00  0.00    +0.000 C 
ATOM     12  C   UNL     1       4.908 -11.769   4.838  0.00  0.00    +0.000 C 
ATOM     13  C   UNL     1       5.826 -10.758   5.485  0.00  0.00    +0.000 C 
ATOM     14  O   UNL     1       7.018 -10.682   4.713  0.00  0.00    +0.000 OA
ENDBRANCH   7   9
ENDBRANCH   1   2
BRANCH   1  15
ATOM     15  O   UNL     1       5.331  -3.973   2.762  0.00  0.00    +0.000 OA
BRANCH  15  19
ATOM     16  C   UNL     1       3.049  -1.209   0.758  0.00  0.00    +0.000 A 
ATOM     17  C   UNL     1       2.924  -2.525   0.341  0.00  0.00    +0.000 A 
ATOM     18  C   UNL     1       3.684  -3.496   0.990  0.00  0.00    +0.000 A 
ATOM     19  C   UNL     1       4.536  -3.128   2.035  0.00  0.00    +0.000 A 
ATOM     20  C   UNL     1       4.586  -1.780   2.376  0.00  0.00    +0.000 A 
ATOM     21  N   UNL     1       3.867  -0.805   1.768  0.00  0.00    +0.000 NA
BRANCH  16  23
ATOM     22  N   UNL     1       2.463   1.128   0.531  0.00  0.00    +0.000 N 
ATOM     23  C   UNL     1       2.240  -0.147   0.079  0.00  0.00    +0.000 C 
ATOM     24  O   UNL     1       1.434  -0.391  -0.806  0.00  0.00    +0.000 OA
ATOM     25  H   UNL     1       1.948   1.896   0.127  0.00  0.00    +0.000 HD
ATOM     26  H   UNL     1       3.133   1.282   1.276  0.00  0.00    +0.000 HD
ENDBRANCH  16  23
ENDBRANCH  15  19
ENDBRANCH   1  15
TORSDOF 5
