REMARK  Name = 
REMARK  5 active torsions:
REMARK  status: ('A' for Active; 'I' for Inactive)
REMARK    1  A    between atoms: C_2  and  C_4
REMARK    2  A    between atoms: C_7  and  O_8
REMARK    3  A    between atoms: O_8  and  C_9
REMARK    4  A    between atoms: C_9  and  C_10
REMARK    5  A    between atoms: C_14  and  C_15
REMARK                            x       y       z     vdW  Elec       q    Type
REMARK                         _______ _______ _______ _____ _____    ______ ____
ROOT
ATOM      1  C   UNL     1       5.153  -4.424  -3.959  0.00  0.00    +0.000 C 
ATOM      2  C   UNL     1       5.190  -3.886  -5.384  0.00  0.00    +0.000 C 
ATOM      3  C   UNL     1       3.882  -4.268  -4.771  0.00  0.00    +0.000 C 
ENDROOT
BRANCH   1   4
ATOM      4  C   UNL     1       5.727  -5.803  -3.681  0.00  0.00    +0.000 A 
ATOM      5  C   UNL     1       7.108  -6.030  -3.766  0.00  0.00    +0.000 A 
ATOM      6  C   UNL     1       7.663  -7.261  -3.422  0.00  0.00    +0.000 A 
ATOM      7  C   UNL     1       6.845  -8.286  -2.947  0.00  0.00    +0.000 A 
ATOM      8  C   UNL     1       5.459  -8.105  -2.813  0.00  0.00    +0.000 A 
ATOM      9  C   UNL     1       4.923  -6.874  -3.239  0.00  0.00    +0.000 A 
BRANCH   8  10
ATOM     10  C   UNL     1       4.601  -9.112  -2.155  0.00  0.00    +0.000 A 
ATOM     11  C   UNL     1       5.051  -9.852  -1.059  0.00  0.00    +0.000 A 
ATOM     12  C   UNL     1       4.180 -10.726  -0.414  0.00  0.00    +0.000 A 
ATOM     13  C   UNL     1       2.878 -10.848  -0.877  0.00  0.00    +0.000 A 
ATOM     14  C   UNL     1       2.502 -10.084  -1.972  0.00  0.00    +0.000 A 
ATOM     15  N   UNL     1       3.325  -9.220  -2.608  0.00  0.00    +0.000 NA
ENDBRANCH   8  10
ENDBRANCH   1   4
BRANCH   1  16
ATOM     16  O   UNL     1       5.518  -3.383  -3.020  0.00  0.00    +0.000 OA
BRANCH  16  20
ATOM     17  C   UNL     1       3.392  -2.517   0.460  0.00  0.00    +0.000 A 
ATOM     18  C   UNL     1       2.970  -3.595  -0.329  0.00  0.00    +0.000 A 
ATOM     19  C   UNL     1       3.670  -3.933  -1.492  0.00  0.00    +0.000 A 
ATOM     20  C   UNL     1       4.787  -3.197  -1.878  0.00  0.00    +0.000 A 
ATOM     21  C   UNL     1       5.220  -2.134  -1.078  0.00  0.00    +0.000 A 
ATOM     22  C   UNL     1       4.522  -1.786   0.080  0.00  0.00    +0.000 A 
BRANCH  17  24
ATOM     23  N   UNL     1       1.915  -3.047   2.322  0.00  0.00    +0.000 N 
ATOM     24  C   UNL     1       2.641  -2.091   1.668  0.00  0.00    +0.000 C 
ATOM     25  O   UNL     1       2.685  -0.941   2.080  0.00  0.00    +0.000 OA
ATOM     26  H   UNL     1       1.472  -2.766   3.185  0.00  0.00    +0.000 HD
ATOM     27  H   UNL     1       2.046  -4.035   2.157  0.00  0.00    +0.000 HD
ENDBRANCH  17  24
ENDBRANCH  16  20
ENDBRANCH   1  16
TORSDOF 5
