REMARK  Name = 
REMARK  7 active torsions:
REMARK  status: ('A' for Active; 'I' for Inactive)
REMARK    1  A    between atoms: C_2  and  C_21
REMARK    2  A    between atoms: N_3  and  C_4
REMARK    3  A    between atoms: C_4  and  C_5
REMARK    4  A    between atoms: C_8  and  C_9
REMARK    5  A    between atoms: C_9  and  C_10
REMARK    6  A    between atoms: C_10  and  O_11
REMARK    7  A    between atoms: C_10  and  C_12
REMARK                            x       y       z     vdW  Elec       q    Type
REMARK                         _______ _______ _______ _____ _____    ______ ____
ROOT
ATOM      1  C   UNL     1       3.297  -2.260  -2.862  0.00  0.00    +0.000 A 
ATOM      2  C   UNL     1       4.256  -1.527  -3.568  0.00  0.00    +0.000 A 
ATOM      3  C   UNL     1       5.153  -2.167  -4.428  0.00  0.00    +0.000 A 
ATOM      4  C   UNL     1       5.111  -3.557  -4.598  0.00  0.00    +0.000 A 
ATOM      5  C   UNL     1       4.124  -4.286  -3.923  0.00  0.00    +0.000 A 
ATOM      6  C   UNL     1       3.222  -3.644  -3.067  0.00  0.00    +0.000 A 
ENDROOT
BRANCH   1   7
ATOM      7  C   UNL     1       2.346  -1.558  -1.928  0.00  0.00    +0.000 C 
BRANCH   7  10
ATOM      8  O   UNL     1       1.851   0.979  -3.071  0.00  0.00    +0.000 OA
ATOM      9  C   UNL     1       1.014   0.090  -3.193  0.00  0.00    +0.000 C 
ATOM     10  N   UNL     1       1.150  -1.144  -2.613  0.00  0.00    +0.000 N 
ATOM     11  H   UNL     1       0.534  -1.894  -2.904  0.00  0.00    +0.000 HD
BRANCH   9  12
ATOM     12  C   UNL     1      -0.236   0.311  -3.934  0.00  0.00    +0.000 A 
ATOM     13  C   UNL     1      -0.725   1.599  -4.104  0.00  0.00    +0.000 A 
ATOM     14  S   UNL     1      -2.196   1.661  -4.967  0.00  0.00    +0.000 S 
ATOM     15  C   UNL     1      -2.206  -0.027  -5.181  0.00  0.00    +0.000 A 
ATOM     16  N   UNL     1      -3.203  -0.641  -5.875  0.00  0.00    +0.000 NA
ATOM     17  C   UNL     1      -3.058  -1.918  -6.000  0.00  0.00    +0.000 A 
ATOM     18  N   UNL     1      -2.012  -2.640  -5.485  0.00  0.00    +0.000 N 
ATOM     19  C   UNL     1      -1.032  -2.075  -4.708  0.00  0.00    +0.000 A 
ATOM     20  O   UNL     1      -0.197  -2.773  -4.141  0.00  0.00    +0.000 OA
ATOM     21  C   UNL     1      -1.117  -0.632  -4.581  0.00  0.00    +0.000 A 
ATOM     22  H   UNL     1      -1.974  -3.643  -5.587  0.00  0.00    +0.000 HD
ENDBRANCH   9  12
ENDBRANCH   7  10
ENDBRANCH   1   7
BRANCH   4  23
ATOM     23  C   UNL     1       6.090  -4.258  -5.520  0.00  0.00    +0.000 C 
BRANCH  23  24
ATOM     24  C   UNL     1       7.565  -4.068  -5.121  0.00  0.00    +0.000 C 
BRANCH  24  25
ATOM     25  C   UNL     1       8.517  -4.650  -6.197  0.00  0.00    +0.000 C 
ATOM     26  O   UNL     1       8.091  -5.258  -7.179  0.00  0.00    +0.000 OA
ATOM     27  N   UNL     1       9.866  -4.420  -6.011  0.00  0.00    +0.000 N 
ATOM     28  C   UNL     1      10.510  -3.801  -4.864  0.00  0.00    +0.000 C 
ATOM     29  C   UNL     1      11.757  -3.181  -5.465  0.00  0.00    +0.000 C 
ATOM     30  C   UNL     1      12.166  -4.183  -6.540  0.00  0.00    +0.000 C 
ATOM     31  C   UNL     1      10.852  -4.806  -7.007  0.00  0.00    +0.000 C 
ENDBRANCH  24  25
BRANCH  24  32
ATOM     32  O   UNL     1       7.822  -4.658  -3.843  0.00  0.00    +0.000 OA
ATOM     33  H   UNL     1       7.493  -5.572  -3.881  0.00  0.00    +0.000 HD
ENDBRANCH  24  32
ENDBRANCH  23  24
ENDBRANCH   4  23
TORSDOF 7
