REMARK  Name = 
REMARK  10 active torsions:
REMARK  status: ('A' for Active; 'I' for Inactive)
REMARK    1  A    between atoms: C_1  and  C_2
REMARK    2  A    between atoms: C_2  and  N_3
REMARK    3  A    between atoms: C_2  and  C_21
REMARK    4  A    between atoms: N_3  and  C_4
REMARK    5  A    between atoms: C_4  and  C_5
REMARK    6  A    between atoms: C_8  and  C_9
REMARK    7  A    between atoms: C_9  and  C_10
REMARK    8  A    between atoms: C_10  and  C_11
REMARK    9  A    between atoms: C_11  and  O_12
REMARK   10  A    between atoms: C_11  and  C_13
REMARK                            x       y       z     vdW  Elec       q    Type
REMARK                         _______ _______ _______ _____ _____    ______ ____
ROOT
ATOM      1  C   UNL     1      -0.971   0.569   1.262  0.00  0.00    +0.000 A 
ATOM      2  C   UNL     1      -1.670  -0.089   2.270  0.00  0.00    +0.000 A 
ATOM      3  C   UNL     1      -3.058   0.034   2.363  0.00  0.00    +0.000 A 
ATOM      4  C   UNL     1      -3.767   0.813   1.430  0.00  0.00    +0.000 A 
ATOM      5  C   UNL     1      -3.057   1.474   0.427  0.00  0.00    +0.000 A 
ATOM      6  C   UNL     1      -1.671   1.356   0.340  0.00  0.00    +0.000 A 
ENDROOT
BRANCH   1   7
ATOM      7  C   UNL     1       0.528   0.487   1.213  0.00  0.00    +0.000 C 
BRANCH   7   8
ATOM      8  N   UNL     1       1.009  -0.887   1.086  0.00  0.00    +0.000 NA
ATOM      9  H   UNL     1       0.655  -1.260   0.204  0.00  0.00    +0.000 HD
BRANCH   8  11
ATOM     10  C   UNL     1       3.024  -0.242   2.334  0.00  0.00    +0.000 C 
ATOM     11  C   UNL     1       2.474  -0.922   1.075  0.00  0.00    +0.000 C 
BRANCH  11  12
ATOM     12  C   UNL     1       2.897  -2.371   0.931  0.00  0.00    +0.000 A 
ATOM     13  C   UNL     1       3.144  -3.249   1.976  0.00  0.00    +0.000 A 
ATOM     14  S   UNL     1       3.627  -4.803   1.452  0.00  0.00    +0.000 S 
ATOM     15  C   UNL     1       3.488  -4.366  -0.188  0.00  0.00    +0.000 A 
ATOM     16  N   UNL     1       3.744  -5.254  -1.177  0.00  0.00    +0.000 NA
ATOM     17  C   UNL     1       3.568  -4.782  -2.378  0.00  0.00    +0.000 A 
ATOM     18  N   UNL     1       3.166  -3.500  -2.656  0.00  0.00    +0.000 N 
ATOM     19  C   UNL     1       2.905  -2.564  -1.687  0.00  0.00    +0.000 A 
ATOM     20  O   UNL     1       2.543  -1.424  -1.979  0.00  0.00    +0.000 OA
ATOM     21  C   UNL     1       3.086  -3.047  -0.331  0.00  0.00    +0.000 A 
ATOM     22  H   UNL     1       3.040  -3.200  -3.614  0.00  0.00    +0.000 HD
ENDBRANCH  11  12
ENDBRANCH   8  11
ENDBRANCH   7   8
ENDBRANCH   1   7
BRANCH   4  23
ATOM     23  C   UNL     1      -5.274   0.941   1.489  0.00  0.00    +0.000 C 
BRANCH  23  24
ATOM     24  C   UNL     1      -5.729   2.123   2.349  0.00  0.00    +0.000 C 
BRANCH  24  25
ATOM     25  C   UNL     1      -7.250   2.285   2.415  0.00  0.00    +0.000 C 
BRANCH  25  26
ATOM     26  C   UNL     1      -7.626   3.484   3.269  0.00  0.00    +0.000 A 
ATOM     27  C   UNL     1      -8.346   4.538   2.715  0.00  0.00    +0.000 A 
ATOM     28  N   UNL     1      -8.703   5.640   3.420  0.00  0.00    +0.000 NA
ATOM     29  C   UNL     1      -8.315   5.643   4.713  0.00  0.00    +0.000 A 
ATOM     30  C   UNL     1      -7.603   4.603   5.281  0.00  0.00    +0.000 A 
ATOM     31  N   UNL     1      -7.245   3.500   4.576  0.00  0.00    +0.000 NA
ENDBRANCH  25  26
BRANCH  25  32
ATOM     32  O   UNL     1      -7.837   1.103   2.959  0.00  0.00    +0.000 OA
ATOM     33  H   UNL     1      -7.472   1.014   3.861  0.00  0.00    +0.000 HD
ENDBRANCH  25  32
ENDBRANCH  24  25
ENDBRANCH  23  24
ENDBRANCH   4  23
TORSDOF 9
