REMARK  Name = 
REMARK  5 active torsions:
REMARK  status: ('A' for Active; 'I' for Inactive)
REMARK    1  A    between atoms: C_2  and  C_4
REMARK    2  A    between atoms: C_7  and  N_8
REMARK    3  A    between atoms: N_8  and  C_9
REMARK    4  A    between atoms: C_9  and  C_10
REMARK    5  A    between atoms: C_14  and  C_15
REMARK                            x       y       z     vdW  Elec       q    Type
REMARK                         _______ _______ _______ _____ _____    ______ ____
ROOT
ATOM      1  C   UNL     1       5.233   4.617  -3.727  0.00  0.00    +0.000 C 
ENDROOT
BRANCH   1   2
ATOM      2  C   UNL     1       6.245   5.293  -4.628  0.00  0.00    +0.000 A 
ATOM      3  C   UNL     1       7.176   4.557  -5.359  0.00  0.00    +0.000 A 
ATOM      4  C   UNL     1       8.062   5.240  -6.175  0.00  0.00    +0.000 A 
ATOM      5  N   UNL     1       8.082   6.584  -6.310  0.00  0.00    +0.000 NA
ATOM      6  C   UNL     1       7.193   7.309  -5.588  0.00  0.00    +0.000 A 
ATOM      7  C   UNL     1       6.267   6.692  -4.745  0.00  0.00    +0.000 A 
BRANCH   6   8
ATOM      8  C   UNL     1       7.265   8.770  -5.765  0.00  0.00    +0.000 A 
ATOM      9  C   UNL     1       7.686   9.337  -6.974  0.00  0.00    +0.000 A 
ATOM     10  N   UNL     1       7.761  10.672  -7.231  0.00  0.00    +0.000 NA
ATOM     11  C   UNL     1       7.413  11.497  -6.220  0.00  0.00    +0.000 A 
ATOM     12  C   UNL     1       7.000  11.045  -4.982  0.00  0.00    +0.000 A 
ATOM     13  F   UNL     1       6.674  11.909  -4.013  0.00  0.00    +0.000 F 
ATOM     14  C   UNL     1       6.925   9.676  -4.750  0.00  0.00    +0.000 A 
ENDBRANCH   6   8
ENDBRANCH   1   2
BRANCH   1  15
ATOM     15  N   UNL     1       3.895   4.998  -4.166  0.00  0.00    +0.000 N 
ATOM     16  H   UNL     1       3.760   4.798  -5.153  0.00  0.00    +0.000 HD
BRANCH  15  20
ATOM     17  C   UNL     1       0.671   3.512  -2.087  0.00  0.00    +0.000 A 
ATOM     18  C   UNL     1       1.964   3.198  -1.698  0.00  0.00    +0.000 A 
ATOM     19  N   UNL     1       3.064   3.663  -2.356  0.00  0.00    +0.000 NA
ATOM     20  C   UNL     1       2.835   4.454  -3.426  0.00  0.00    +0.000 A 
ATOM     21  C   UNL     1       1.517   4.777  -3.786  0.00  0.00    +0.000 A 
ATOM     22  N   UNL     1       0.408   4.317  -3.150  0.00  0.00    +0.000 NA
BRANCH  17  24
ATOM     23  N   UNL     1      -1.727   3.280  -1.837  0.00  0.00    +0.000 N 
ATOM     24  C   UNL     1      -0.492   2.952  -1.345  0.00  0.00    +0.000 C 
ATOM     25  O   UNL     1      -0.356   2.236  -0.360  0.00  0.00    +0.000 OA
ATOM     26  H   UNL     1      -2.556   2.924  -1.384  0.00  0.00    +0.000 HD
ATOM     27  H   UNL     1      -1.807   3.867  -2.660  0.00  0.00    +0.000 HD
ENDBRANCH  17  24
ENDBRANCH  15  20
ENDBRANCH   1  15
TORSDOF 5
