REMARK  Name = 
REMARK  5 active torsions:
REMARK  status: ('A' for Active; 'I' for Inactive)
REMARK    1  A    between atoms: N_1  and  C_2
REMARK    2  A    between atoms: C_2  and  C_3
REMARK    3  A    between atoms: C_6  and  C_7
REMARK    4  A    between atoms: C_7  and  N_8
REMARK    5  A    between atoms: C_13  and  C_14
REMARK                            x       y       z     vdW  Elec       q    Type
REMARK                         _______ _______ _______ _____ _____    ______ ____
ROOT
ATOM      1  N   UNL     1       5.169   4.563  -4.192  0.00  0.00    +0.000 N 
ATOM      2  C   UNL     1       4.079   5.220  -4.707  0.00  0.00    +0.000 A 
ATOM      3  C   UNL     1       4.308   6.573  -4.594  0.00  0.00    +0.000 A 
ATOM      4  C   UNL     1       5.598   6.741  -4.041  0.00  0.00    +0.000 A 
ATOM      5  N   UNL     1       6.239   7.895  -3.733  0.00  0.00    +0.000 NA
ATOM      6  C   UNL     1       7.491   7.720  -3.230  0.00  0.00    +0.000 A 
ATOM      7  C   UNL     1       8.136   6.497  -3.067  0.00  0.00    +0.000 A 
ATOM      8  C   UNL     1       7.461   5.322  -3.390  0.00  0.00    +0.000 A 
ATOM      9  C   UNL     1       6.152   5.472  -3.856  0.00  0.00    +0.000 A 
ENDROOT
BRANCH   6  10
ATOM     10  C   UNL     1       8.202   8.967  -2.800  0.00  0.00    +0.000 C 
ATOM     11  N   UNL     1       7.518  10.139  -2.985  0.00  0.00    +0.000 N 
ATOM     12  O   UNL     1       9.321   8.954  -2.300  0.00  0.00    +0.000 OA
ATOM     13  H   UNL     1       6.585  10.120  -3.379  0.00  0.00    +0.000 HD
ATOM     14  H   UNL     1       7.936  11.009  -2.687  0.00  0.00    +0.000 HD
ENDBRANCH   6  10
BRANCH   1  15
ATOM     15  C   UNL     1       5.250   3.117  -4.031  0.00  0.00    +0.000 C 
BRANCH  15  19
ATOM     16  C   UNL     1       2.933   0.786  -1.125  0.00  0.00    +0.000 C 
ATOM     17  C   UNL     1       4.412   0.428  -1.333  0.00  0.00    +0.000 C 
ATOM     18  C   UNL     1       4.975   1.066  -2.601  0.00  0.00    +0.000 C 
ATOM     19  C   UNL     1       4.788   2.593  -2.648  0.00  0.00    +0.000 C 
ATOM     20  C   UNL     1       3.329   2.975  -2.340  0.00  0.00    +0.000 C 
ATOM     21  C   UNL     1       2.787   2.313  -1.072  0.00  0.00    +0.000 C 
BRANCH  16  22
ATOM     22  C   UNL     1       2.391   0.092   0.137  0.00  0.00    +0.000 C 
BRANCH  22  23
ATOM     23  N   UNL     1       0.974   0.364   0.350  0.00  0.00    +0.000 NA
ATOM     24  H   UNL     1       0.646  -0.156   1.164  0.00  0.00    +0.000 HD
ATOM     25  H   UNL     1       0.432   0.025  -0.443  0.00  0.00    +0.000 HD
ENDBRANCH  22  23
ENDBRANCH  16  22
ENDBRANCH  15  19
ENDBRANCH   1  15
TORSDOF 5
