REMARK  Name = 
REMARK  7 active torsions:
REMARK  status: ('A' for Active; 'I' for Inactive)
REMARK    1  A    between atoms: N_1  and  C_2
REMARK    2  A    between atoms: C_2  and  C_3
REMARK    3  A    between atoms: C_2  and  C_18
REMARK    4  A    between atoms: C_3  and  N_4
REMARK    5  A    between atoms: C_7  and  C_8
REMARK    6  A    between atoms: C_8  and  N_9
REMARK    7  A    between atoms: C_18  and  C_20
REMARK                            x       y       z     vdW  Elec       q    Type
REMARK                         _______ _______ _______ _____ _____    ______ ____
ROOT
ATOM      1  C   UNL     1       1.859  -1.474  -0.691  0.00  0.00    +0.000 C 
ENDROOT
BRANCH   1   2
ATOM      2  N   UNL     1       1.235  -2.796  -0.913  0.00  0.00    +0.000 NA
ATOM      3  H   UNL     1       0.543  -2.970  -0.186  0.00  0.00    +0.000 HD
ATOM      4  H   UNL     1       1.955  -3.516  -0.816  0.00  0.00    +0.000 HD
ENDBRANCH   1   2
BRANCH   1   5
ATOM      5  C   UNL     1       2.669  -1.120  -1.949  0.00  0.00    +0.000 C 
ATOM      6  O   UNL     1       3.886  -1.298  -1.981  0.00  0.00    +0.000 OA
BRANCH   5   7
ATOM      7  C   UNL     1       1.974  -0.690  -3.168  0.00  0.00    +0.000 A 
ATOM      8  C   UNL     1       0.681  -1.028  -3.519  0.00  0.00    +0.000 A 
ATOM      9  S   UNL     1       0.332  -0.660  -5.158  0.00  0.00    +0.000 S 
ATOM     10  C   UNL     1       1.877   0.020  -5.394  0.00  0.00    +0.000 A 
ATOM     11  N   UNL     1       2.304   0.449  -6.611  0.00  0.00    +0.000 NA
ATOM     12  C   UNL     1       3.501   0.941  -6.604  0.00  0.00    +0.000 A 
ATOM     13  N   UNL     1       4.288   1.092  -5.489  0.00  0.00    +0.000 N 
ATOM     14  C   UNL     1       3.850   0.776  -4.226  0.00  0.00    +0.000 A 
ATOM     15  O   UNL     1       4.441   1.166  -3.225  0.00  0.00    +0.000 OA
ATOM     16  C   UNL     1       2.589   0.066  -4.215  0.00  0.00    +0.000 A 
ATOM     17  H   UNL     1       5.163   1.592  -5.532  0.00  0.00    +0.000 HD
ENDBRANCH   5   7
ENDBRANCH   1   5
BRANCH   1  18
ATOM     18  C   UNL     1       2.830  -1.389   0.533  0.00  0.00    +0.000 C 
BRANCH  18  19
ATOM     19  N   UNL     1       2.350  -1.733   1.882  0.00  0.00    +0.000 NA
ATOM     20  C   UNL     1       1.285  -0.857   2.359  0.00  0.00    +0.000 C 
ATOM     21  C   UNL     1       0.916  -1.171   3.809  0.00  0.00    +0.000 C 
ATOM     22  C   UNL     1       0.534  -2.646   3.990  0.00  0.00    +0.000 C 
ATOM     23  C   UNL     1       1.730  -3.497   3.533  0.00  0.00    +0.000 C 
ATOM     24  C   UNL     1       2.155  -3.162   2.103  0.00  0.00    +0.000 C 
BRANCH  22  25
ATOM     25  C   UNL     1      -0.746  -3.042   3.226  0.00  0.00    +0.000 C 
BRANCH  25  26
ATOM     26  N   UNL     1      -1.900  -2.311   3.718  0.00  0.00    +0.000 N 
ATOM     27  C   UNL     1      -3.078  -2.615   3.043  0.00  0.00    +0.000 A 
ATOM     28  N   UNL     1      -3.273  -3.845   2.544  0.00  0.00    +0.000 NA
ATOM     29  C   UNL     1      -4.431  -4.068   1.898  0.00  0.00    +0.000 A 
ATOM     30  C   UNL     1      -5.396  -3.109   1.725  0.00  0.00    +0.000 A 
ATOM     31  C   UNL     1      -5.099  -1.881   2.261  0.00  0.00    +0.000 A 
ATOM     32  N   UNL     1      -3.951  -1.609   2.912  0.00  0.00    +0.000 NA
ATOM     33  H   UNL     1      -1.842  -1.298   3.696  0.00  0.00    +0.000 HD
ENDBRANCH  25  26
ENDBRANCH  22  25
ENDBRANCH  18  19
ENDBRANCH   1  18
TORSDOF 7
