REMARK  Name = 
REMARK  4 active torsions:
REMARK  status: ('A' for Active; 'I' for Inactive)
REMARK    1  A    between atoms: C_2  and  C_4
REMARK    2  A    between atoms: C_7  and  N_8
REMARK    3  A    between atoms: N_8  and  C_9
REMARK    4  A    between atoms: C_9  and  C_10
REMARK                            x       y       z     vdW  Elec       q    Type
REMARK                         _______ _______ _______ _____ _____    ______ ____
ROOT
ATOM      1  C   UNL     1       5.418  -5.184   2.844  0.00  0.00    +0.000 C 
ATOM      2  C   UNL     1       4.893  -6.470   2.204  0.00  0.00    +0.000 C 
ATOM      3  C   UNL     1       3.968  -5.628   3.013  0.00  0.00    +0.000 C 
ENDROOT
BRANCH   1   4
ATOM      4  C   UNL     1       6.358  -5.378   4.039  0.00  0.00    +0.000 A 
ATOM      5  C   UNL     1       6.207  -4.688   5.222  0.00  0.00    +0.000 A 
ATOM      6  C   UNL     1       6.994  -5.106   6.267  0.00  0.00    +0.000 A 
ATOM      7  N   UNL     1       7.868  -6.128   6.187  0.00  0.00    +0.000 NA
ATOM      8  C   UNL     1       7.997  -6.725   4.997  0.00  0.00    +0.000 A 
ATOM      9  N   UNL     1       8.806  -7.818   4.845  0.00  0.00    +0.000 N 
ATOM     10  C   UNL     1       9.414  -8.496   5.980  0.00  0.00    +0.000 C 
ATOM     11  C   UNL     1      10.939  -8.341   5.940  0.00  0.00    +0.000 C 
ATOM     12  O   UNL     1      11.487  -8.724   4.666  0.00  0.00    +0.000 OA
ATOM     13  C   UNL     1      10.920  -7.919   3.617  0.00  0.00    +0.000 C 
ATOM     14  C   UNL     1       9.397  -8.100   3.537  0.00  0.00    +0.000 C 
ATOM     15  N   UNL     1       7.287  -6.352   3.928  0.00  0.00    +0.000 NA
ENDBRANCH   1   4
BRANCH   1  16
ATOM     16  N   UNL     1       5.673  -3.980   2.008  0.00  0.00    +0.000 N 
ATOM     17  H   UNL     1       4.860  -3.383   1.878  0.00  0.00    +0.000 HD
BRANCH  16  21
ATOM     18  C   UNL     1       7.851  -4.221  -1.623  0.00  0.00    +0.000 A 
ATOM     19  C   UNL     1       6.970  -3.161  -1.385  0.00  0.00    +0.000 A 
ATOM     20  C   UNL     1       6.281  -3.081  -0.167  0.00  0.00    +0.000 A 
ATOM     21  C   UNL     1       6.432  -4.071   0.816  0.00  0.00    +0.000 A 
ATOM     22  C   UNL     1       7.379  -5.077   0.596  0.00  0.00    +0.000 A 
ATOM     23  C   UNL     1       8.065  -5.169  -0.619  0.00  0.00    +0.000 A 
BRANCH  18  25
ATOM     24  N   UNL     1       8.707  -3.312  -3.721  0.00  0.00    +0.000 N 
ATOM     25  C   UNL     1       8.526  -4.415  -2.930  0.00  0.00    +0.000 C 
ATOM     26  O   UNL     1       8.920  -5.516  -3.295  0.00  0.00    +0.000 OA
ATOM     27  H   UNL     1       9.233  -3.460  -4.572  0.00  0.00    +0.000 HD
ATOM     28  H   UNL     1       8.636  -2.372  -3.361  0.00  0.00    +0.000 HD
ENDBRANCH  18  25
ENDBRANCH  16  21
ENDBRANCH   1  16
TORSDOF 4
