REMARK  Name = 
REMARK  7 active torsions:
REMARK  status: ('A' for Active; 'I' for Inactive)
REMARK    1  A    between atoms: C_1  and  C_2
REMARK    2  A    between atoms: C_4  and  C_5
REMARK    3  A    between atoms: C_5  and  N_6
REMARK    4  A    between atoms: C_9  and  O_10
REMARK    5  A    between atoms: C_15  and  C_16
REMARK    6  A    between atoms: C_16  and  N_17
REMARK    7  A    between atoms: C_18  and  C_20
REMARK                            x       y       z     vdW  Elec       q    Type
REMARK                         _______ _______ _______ _____ _____    ______ ____
ROOT
ATOM      1  C   UNL     1       2.565   0.113  -0.123  0.00  0.00    +0.000 C 
ATOM      2  C   UNL     1       1.074  -0.044  -0.016  0.00  0.00    +0.000 A 
ATOM      3  C   UNL     1       0.314   1.139   0.074  0.00  0.00    +0.000 A 
ATOM      4  C   UNL     1      -1.081   1.134   0.068  0.00  0.00    +0.000 A 
ATOM      5  C   UNL     1      -1.729  -0.108   0.029  0.00  0.00    +0.000 A 
ATOM      6  C   UNL     1      -0.988  -1.299   0.003  0.00  0.00    +0.000 A 
ATOM      7  C   UNL     1       0.419  -1.294   0.005  0.00  0.00    +0.000 A 
ENDROOT
BRANCH   4   8
ATOM      8  C   UNL     1      -1.844   2.448   0.091  0.00  0.00    +0.000 C 
BRANCH   8   9
ATOM      9  N   UNL     1      -2.113   3.088  -1.216  0.00  0.00    +0.000 NA
ATOM     10  C   UNL     1      -2.928   2.244  -2.091  0.00  0.00    +0.000 C 
ATOM     11  C   UNL     1      -3.246   2.900  -3.434  0.00  0.00    +0.000 C 
ATOM     12  C   UNL     1      -1.991   3.411  -4.131  0.00  0.00    +0.000 C 
ATOM     13  C   UNL     1      -1.196   4.315  -3.199  0.00  0.00    +0.000 C 
ATOM     14  C   UNL     1      -0.917   3.654  -1.846  0.00  0.00    +0.000 C 
BRANCH  12  15
ATOM     15  O   UNL     1      -1.186   2.324  -4.592  0.00  0.00    +0.000 OA
ATOM     16  H   UNL     1      -0.902   1.806  -3.819  0.00  0.00    +0.000 HD
ENDBRANCH  12  15
ENDBRANCH   8   9
ENDBRANCH   4   8
BRANCH   7  17
ATOM     17  C   UNL     1       1.158  -2.618   0.013  0.00  0.00    +0.000 C 
BRANCH  17  18
ATOM     18  N   UNL     1       1.363  -3.124  -1.320  0.00  0.00    +0.000 N 
ATOM     19  C   UNL     1       1.849  -4.385  -1.574  0.00  0.00    +0.000 C 
ATOM     20  O   UNL     1       2.113  -5.177  -0.683  0.00  0.00    +0.000 OA
ATOM     21  H   UNL     1       1.393  -2.424  -2.056  0.00  0.00    +0.000 HD
BRANCH  19  22
ATOM     22  C   UNL     1       1.948  -4.753  -3.000  0.00  0.00    +0.000 A 
ATOM     23  C   UNL     1       1.986  -6.093  -3.373  0.00  0.00    +0.000 A 
ATOM     24  S   UNL     1       1.953  -6.334  -5.063  0.00  0.00    +0.000 S 
ATOM     25  C   UNL     1       1.944  -4.658  -5.359  0.00  0.00    +0.000 A 
ATOM     26  N   UNL     1       1.895  -4.169  -6.628  0.00  0.00    +0.000 NA
ATOM     27  C   UNL     1       1.891  -2.880  -6.705  0.00  0.00    +0.000 A 
ATOM     28  N   UNL     1       1.954  -2.035  -5.629  0.00  0.00    +0.000 N 
ATOM     29  C   UNL     1       2.031  -2.484  -4.333  0.00  0.00    +0.000 A 
ATOM     30  O   UNL     1       2.120  -1.698  -3.393  0.00  0.00    +0.000 OA
ATOM     31  C   UNL     1       1.984  -3.926  -4.186  0.00  0.00    +0.000 A 
ATOM     32  H   UNL     1       1.961  -1.032  -5.756  0.00  0.00    +0.000 HD
ENDBRANCH  19  22
ENDBRANCH  17  18
ENDBRANCH   7  17
TORSDOF 6
