REMARK  Name = 
REMARK  13 active torsions:
REMARK  status: ('A' for Active; 'I' for Inactive)
REMARK    1  A    between atoms: C_1  and  C_2
REMARK    2  A    between atoms: C_2  and  N_3
REMARK    3  A    between atoms: N_3  and  C_4
REMARK    4  A    between atoms: N_3  and  C_25
REMARK    5  A    between atoms: C_4  and  C_5
REMARK    6  A    between atoms: C_8  and  C_9
REMARK    7  A    between atoms: C_9  and  N_10
REMARK    8  A    between atoms: C_11  and  C_13
REMARK    9  A    between atoms: C_25  and  C_26
REMARK   10  A    between atoms: N_29  and  C_30
REMARK   11  A    between atoms: C_30  and  C_31
REMARK   12  A    between atoms: C_31  and  C_32
REMARK   13  A    between atoms: C_32  and  N_33
REMARK                            x       y       z     vdW  Elec       q    Type
REMARK                         _______ _______ _______ _____ _____    ______ ____
ROOT
ATOM      1  C   UNL     1       2.948  -0.538   2.893  0.00  0.00    +0.000 A 
ATOM      2  C   UNL     1       4.172  -0.511   3.570  0.00  0.00    +0.000 A 
ATOM      3  C   UNL     1       4.747  -1.699   4.006  0.00  0.00    +0.000 A 
ATOM      4  C   UNL     1       4.052  -2.888   3.809  0.00  0.00    +0.000 A 
ATOM      5  N   UNL     1       2.825  -2.933   3.237  0.00  0.00    +0.000 NA
ATOM      6  C   UNL     1       2.308  -1.765   2.792  0.00  0.00    +0.000 A 
ENDROOT
BRANCH   1   7
ATOM      7  C   UNL     1       2.415   0.682   2.181  0.00  0.00    +0.000 C 
BRANCH   7   8
ATOM      8  N   UNL     1       2.902   0.864   0.791  0.00  0.00    +0.000 NA
BRANCH   8  10
ATOM      9  C   UNL     1       0.906  -0.276  -0.278  0.00  0.00    +0.000 C 
ATOM     10  C   UNL     1       2.419  -0.144  -0.167  0.00  0.00    +0.000 C 
ENDBRANCH   8  10
BRANCH   8  11
ATOM     11  C   UNL     1       4.379   0.945   0.759  0.00  0.00    +0.000 C 
BRANCH  11  12
ATOM     12  C   UNL     1       4.997   1.368  -0.592  0.00  0.00    +0.000 C 
ATOM     13  C   UNL     1       6.526   1.352  -0.511  0.00  0.00    +0.000 C 
ATOM     14  C   UNL     1       7.070   2.489   0.348  0.00  0.00    +0.000 C 
ATOM     15  N   UNL     1       6.583   3.798  -0.111  0.00  0.00    +0.000 NA
ATOM     16  C   UNL     1       5.113   3.862  -0.159  0.00  0.00    +0.000 C 
ATOM     17  C   UNL     1       4.531   2.755  -1.040  0.00  0.00    +0.000 C 
BRANCH  15  18
ATOM     18  C   UNL     1       7.115   4.892   0.717  0.00  0.00    +0.000 C 
BRANCH  18  19
ATOM     19  C   UNL     1       8.644   5.019   0.671  0.00  0.00    +0.000 C 
BRANCH  19  20
ATOM     20  C   UNL     1       9.168   5.200  -0.753  0.00  0.00    +0.000 C 
BRANCH  20  21
ATOM     21  N   UNL     1      10.628   5.269  -0.748  0.00  0.00    +0.000 NA
ATOM     22  H   UNL     1      10.934   6.051  -0.174  0.00  0.00    +0.000 HD
ATOM     23  H   UNL     1      10.953   5.457  -1.695  0.00  0.00    +0.000 HD
ENDBRANCH  20  21
ENDBRANCH  19  20
ENDBRANCH  18  19
ENDBRANCH  15  18
ENDBRANCH  11  12
ENDBRANCH   8  11
ENDBRANCH   7   8
ENDBRANCH   1   7
BRANCH   4  24
ATOM     24  C   UNL     1       4.678  -4.208   4.176  0.00  0.00    +0.000 C 
BRANCH  24  25
ATOM     25  N   UNL     1       5.419  -4.788   3.074  0.00  0.00    +0.000 N 
ATOM     26  C   UNL     1       6.779  -4.673   2.965  0.00  0.00    +0.000 C 
ATOM     27  O   UNL     1       7.445  -4.050   3.788  0.00  0.00    +0.000 OA
ATOM     28  H   UNL     1       4.867  -5.086   2.274  0.00  0.00    +0.000 HD
BRANCH  26  29
ATOM     29  C   UNL     1       7.417  -5.401   1.860  0.00  0.00    +0.000 A 
ATOM     30  C   UNL     1       8.758  -5.752   1.958  0.00  0.00    +0.000 A 
ATOM     31  S   UNL     1       9.339  -6.633   0.620  0.00  0.00    +0.000 S 
ATOM     32  C   UNL     1       7.833  -6.537  -0.165  0.00  0.00    +0.000 A 
ATOM     33  N   UNL     1       7.653  -7.080  -1.400  0.00  0.00    +0.000 NA
ATOM     34  C   UNL     1       6.473  -6.906  -1.892  0.00  0.00    +0.000 A 
ATOM     35  N   UNL     1       5.452  -6.250  -1.256  0.00  0.00    +0.000 N 
ATOM     36  C   UNL     1       5.571  -5.732   0.013  0.00  0.00    +0.000 A 
ATOM     37  O   UNL     1       4.613  -5.226   0.586  0.00  0.00    +0.000 OA
ATOM     38  C   UNL     1       6.891  -5.867   0.598  0.00  0.00    +0.000 A 
ATOM     39  H   UNL     1       4.543  -6.165  -1.686  0.00  0.00    +0.000 HD
ENDBRANCH  26  29
ENDBRANCH  24  25
ENDBRANCH   4  24
TORSDOF 12
