REMARK  Name = 
REMARK  6 active torsions:
REMARK  status: ('A' for Active; 'I' for Inactive)
REMARK    1  A    between atoms: C_2  and  C_3
REMARK    2  A    between atoms: C_2  and  C_18
REMARK    3  A    between atoms: C_3  and  O_4
REMARK    4  A    between atoms: O_4  and  C_5
REMARK    5  A    between atoms: C_8  and  C_9
REMARK    6  A    between atoms: C_9  and  C_10
REMARK                            x       y       z     vdW  Elec       q    Type
REMARK                         _______ _______ _______ _____ _____    ______ ____
ROOT
ATOM      1  O   UNL     1       1.207 -11.357  -5.834  0.00  0.00    +0.000 OA
ENDROOT
BRANCH   1   2
ATOM      2  C   UNL     1       2.286 -10.550  -5.541  0.00  0.00    +0.000 A 
ATOM      3  C   UNL     1       2.072  -9.525  -4.636  0.00  0.00    +0.000 A 
ATOM      4  C   UNL     1       3.134  -8.676  -4.343  0.00  0.00    +0.000 A 
ATOM      5  C   UNL     1       4.386  -8.911  -4.918  0.00  0.00    +0.000 A 
ATOM      6  C   UNL     1       4.494  -9.979  -5.803  0.00  0.00    +0.000 A 
ATOM      7  N   UNL     1       3.468 -10.783  -6.149  0.00  0.00    +0.000 NA
BRANCH   5   8
ATOM      8  C   UNL     1       5.586  -8.056  -4.607  0.00  0.00    +0.000 C 
BRANCH   8   9
ATOM      9  C   UNL     1       5.965  -8.019  -3.115  0.00  0.00    +0.000 C 
ATOM     10  C   UNL     1       6.282  -9.415  -2.554  0.00  0.00    +0.000 C 
ATOM     11  C   UNL     1       6.714  -9.302  -1.095  0.00  0.00    +0.000 C 
ATOM     12  C   UNL     1       7.881  -8.333  -0.946  0.00  0.00    +0.000 C 
ATOM     13  N   UNL     1       7.560  -7.015  -1.496  0.00  0.00    +0.000 NA
ATOM     14  C   UNL     1       7.178  -7.094  -2.906  0.00  0.00    +0.000 C 
ATOM     15  H   UNL     1       8.372  -6.406  -1.400  0.00  0.00    +0.000 HD
ENDBRANCH   8   9
ENDBRANCH   5   8
ENDBRANCH   1   2
BRANCH   1  16
ATOM     16  C   UNL     1       1.386 -12.054  -7.058  0.00  0.00    +0.000 C 
BRANCH  16  18
ATOM     17  O   UNL     1       2.703 -13.770  -5.959  0.00  0.00    +0.000 OA
ATOM     18  C   UNL     1       2.262 -13.322  -7.016  0.00  0.00    +0.000 C 
BRANCH  18  19
ATOM     19  C   UNL     1       2.517 -14.006  -8.295  0.00  0.00    +0.000 A 
ATOM     20  C   UNL     1       2.564 -13.360  -9.520  0.00  0.00    +0.000 A 
ATOM     21  S   UNL     1       2.948 -14.400 -10.821  0.00  0.00    +0.000 S 
ATOM     22  C   UNL     1       3.058 -15.747  -9.784  0.00  0.00    +0.000 A 
ATOM     23  N   UNL     1       3.375 -16.978 -10.269  0.00  0.00    +0.000 NA
ATOM     24  C   UNL     1       3.438 -17.899  -9.365  0.00  0.00    +0.000 A 
ATOM     25  N   UNL     1       3.197 -17.706  -8.031  0.00  0.00    +0.000 N 
ATOM     26  C   UNL     1       2.761 -16.505  -7.512  0.00  0.00    +0.000 A 
ATOM     27  O   UNL     1       2.332 -16.445  -6.368  0.00  0.00    +0.000 OA
ATOM     28  C   UNL     1       2.773 -15.415  -8.473  0.00  0.00    +0.000 A 
ATOM     29  H   UNL     1       3.192 -18.480  -7.385  0.00  0.00    +0.000 HD
ENDBRANCH  18  19
ENDBRANCH  16  18
ENDBRANCH   1  16
TORSDOF 6
