REMARK  Name = 
REMARK  5 active torsions:
REMARK  status: ('A' for Active; 'I' for Inactive)
REMARK    1  A    between atoms: C_2  and  C_4
REMARK    2  A    between atoms: C_7  and  O_8
REMARK    3  A    between atoms: O_8  and  C_9
REMARK    4  A    between atoms: C_9  and  C_10
REMARK    5  A    between atoms: C_12  and  C_13
REMARK                            x       y       z     vdW  Elec       q    Type
REMARK                         _______ _______ _______ _____ _____    ______ ____
ROOT
ATOM      1  C   UNL     1       4.760   5.642  -2.134  0.00  0.00    +0.000 C 
ENDROOT
BRANCH   1   2
ATOM      2  C   UNL     1       5.530   6.708  -2.883  0.00  0.00    +0.000 A 
ATOM      3  C   UNL     1       5.179   8.056  -2.785  0.00  0.00    +0.000 A 
ATOM      4  C   UNL     1       5.879   9.028  -3.520  0.00  0.00    +0.000 A 
ATOM      5  C   UNL     1       6.904   8.571  -4.356  0.00  0.00    +0.000 A 
ATOM      6  C   UNL     1       7.175   7.213  -4.422  0.00  0.00    +0.000 A 
ATOM      7  N   UNL     1       6.516   6.282  -3.709  0.00  0.00    +0.000 NA
BRANCH   4   8
ATOM      8  C   UNL     1       5.537  10.466  -3.413  0.00  0.00    +0.000 A 
ATOM      9  C   UNL     1       5.666  11.342  -4.510  0.00  0.00    +0.000 A 
ATOM     10  C   UNL     1       5.336  12.700  -4.411  0.00  0.00    +0.000 A 
ATOM     11  C   UNL     1       4.858  13.212  -3.210  0.00  0.00    +0.000 A 
ATOM     12  C   UNL     1       4.723  12.365  -2.120  0.00  0.00    +0.000 A 
ATOM     13  F   UNL     1       4.257  12.849  -0.962  0.00  0.00    +0.000 F 
ATOM     14  C   UNL     1       5.062  11.017  -2.209  0.00  0.00    +0.000 A 
ENDBRANCH   4   8
ENDBRANCH   1   2
BRANCH   1  15
ATOM     15  O   UNL     1       4.273   6.128  -0.875  0.00  0.00    +0.000 OA
BRANCH  15  19
ATOM     16  C   UNL     1       2.064   3.321   1.177  0.00  0.00    +0.000 A 
ATOM     17  C   UNL     1       2.239   4.596   1.722  0.00  0.00    +0.000 A 
ATOM     18  C   UNL     1       2.993   5.538   1.018  0.00  0.00    +0.000 A 
ATOM     19  C   UNL     1       3.541   5.170  -0.202  0.00  0.00    +0.000 A 
ATOM     20  N   UNL     1       3.392   3.945  -0.746  0.00  0.00    +0.000 NA
ATOM     21  C   UNL     1       2.668   3.043  -0.040  0.00  0.00    +0.000 A 
BRANCH  16  23
ATOM     22  N   UNL     1       0.281   2.637   2.678  0.00  0.00    +0.000 N 
ATOM     23  C   UNL     1       1.284   2.253   1.834  0.00  0.00    +0.000 C 
ATOM     24  O   UNL     1       1.497   1.070   1.600  0.00  0.00    +0.000 OA
ATOM     25  H   UNL     1      -0.315   1.895   3.026  0.00  0.00    +0.000 HD
ATOM     26  H   UNL     1      -0.090   3.576   2.692  0.00  0.00    +0.000 HD
ENDBRANCH  16  23
ENDBRANCH  15  19
ENDBRANCH   1  15
TORSDOF 5
