REMARK  Name = 
REMARK  9 active torsions:
REMARK  status: ('A' for Active; 'I' for Inactive)
REMARK    1  A    between atoms: C_1  and  N_2
REMARK    2  A    between atoms: C_3  and  C_5
REMARK    3  A    between atoms: C_8  and  N_9
REMARK    4  A    between atoms: N_9  and  C_10
REMARK    5  A    between atoms: C_10  and  C_11
REMARK    6  A    between atoms: C_11  and  O_12
REMARK    7  A    between atoms: C_11  and  C_13
REMARK    8  A    between atoms: C_17  and  C_18
REMARK    9  A    between atoms: C_18  and  N_19
REMARK                            x       y       z     vdW  Elec       q    Type
REMARK                         _______ _______ _______ _____ _____    ______ ____
ROOT
ATOM      1  C   UNL     1       9.710  -0.740   0.421  0.00  0.00    +0.000 C 
ENDROOT
BRANCH   1   2
ATOM      2  N   UNL     1       8.911  -1.329  -0.663  0.00  0.00    +0.000 N 
ATOM      3  H   UNL     1       9.216  -0.979  -1.577  0.00  0.00    +0.000 HD
BRANCH   2   7
ATOM      4  C   UNL     1       4.752  -1.052  -0.444  0.00  0.00    +0.000 A 
ATOM      5  C   UNL     1       5.328  -2.123  -1.119  0.00  0.00    +0.000 A 
ATOM      6  C   UNL     1       6.722  -2.204  -1.179  0.00  0.00    +0.000 A 
ATOM      7  C   UNL     1       7.515  -1.251  -0.537  0.00  0.00    +0.000 A 
ATOM      8  C   UNL     1       6.825  -0.211   0.096  0.00  0.00    +0.000 A 
ATOM      9  N   UNL     1       5.475  -0.080   0.170  0.00  0.00    +0.000 NA
BRANCH   4  12
ATOM     10  C   UNL     1       1.380   0.466   0.389  0.00  0.00    +0.000 C 
ATOM     11  N   UNL     1       2.789   0.209   0.268  0.00  0.00    +0.000 N 
ATOM     12  C   UNL     1       3.263  -0.908  -0.388  0.00  0.00    +0.000 C 
ATOM     13  O   UNL     1       2.525  -1.744  -0.914  0.00  0.00    +0.000 OA
ATOM     14  H   UNL     1       3.479   0.889   0.579  0.00  0.00    +0.000 HD
ENDBRANCH   4  12
ENDBRANCH   2   7
ENDBRANCH   1   2
BRANCH   1  15
ATOM     15  C   UNL     1      11.227  -0.775   0.108  0.00  0.00    +0.000 C 
BRANCH  15  16
ATOM     16  C   UNL     1      12.002  -0.279   1.316  0.00  0.00    +0.000 A 
ATOM     17  C   UNL     1      11.843   1.022   1.819  0.00  0.00    +0.000 A 
ATOM     18  C   UNL     1      12.431   1.390   3.030  0.00  0.00    +0.000 A 
ATOM     19  C   UNL     1      13.176   0.463   3.761  0.00  0.00    +0.000 A 
ATOM     20  C   UNL     1      13.356  -0.841   3.281  0.00  0.00    +0.000 A 
ATOM     21  C   UNL     1      12.792  -1.186   2.042  0.00  0.00    +0.000 A 
BRANCH  20  22
ATOM     22  C   UNL     1      14.127  -1.870   4.072  0.00  0.00    +0.000 C 
BRANCH  22  23
ATOM     23  N   UNL     1      13.311  -3.043   4.378  0.00  0.00    +0.000 NA
ATOM     24  H   UNL     1      12.566  -2.772   5.019  0.00  0.00    +0.000 HD
ATOM     25  H   UNL     1      13.880  -3.727   4.872  0.00  0.00    +0.000 HD
ENDBRANCH  22  23
ENDBRANCH  20  22
ENDBRANCH  15  16
BRANCH  15  26
ATOM     26  O   UNL     1      11.520   0.011  -1.052  0.00  0.00    +0.000 OA
ATOM     27  H   UNL     1      11.217   0.918  -0.888  0.00  0.00    +0.000 HD
ENDBRANCH  15  26
ENDBRANCH   1  15
TORSDOF 8
