REMARK  Name = 
REMARK  9 active torsions:
REMARK  status: ('A' for Active; 'I' for Inactive)
REMARK    1  A    between atoms: C_1  and  C_2
REMARK    2  A    between atoms: C_2  and  O_3
REMARK    3  A    between atoms: C_5  and  O_6
REMARK    4  A    between atoms: O_6  and  C_7
REMARK    5  A    between atoms: C_9  and  C_10
REMARK    6  A    between atoms: C_10  and  C_13
REMARK    7  A    between atoms: C_13  and  N_14
REMARK    8  A    between atoms: N_14  and  C_15
REMARK    9  A    between atoms: C_18  and  C_19
REMARK                            x       y       z     vdW  Elec       q    Type
REMARK                         _______ _______ _______ _____ _____    ______ ____
ROOT
ATOM      1  C   UNL     1       7.049  -4.666   0.780  0.00  0.00    +0.000 C 
ATOM      2  F   UNL     1       6.057  -5.014   1.655  0.00  0.00    +0.000 F 
ATOM      3  F   UNL     1       6.575  -5.023  -0.455  0.00  0.00    +0.000 F 
ENDROOT
BRANCH   1   6
ATOM      4  C   UNL     1       6.523  -0.911   0.698  0.00  0.00    +0.000 A 
ATOM      5  C   UNL     1       6.282  -2.272   0.582  0.00  0.00    +0.000 A 
ATOM      6  C   UNL     1       7.326  -3.169   0.849  0.00  0.00    +0.000 A 
ATOM      7  C   UNL     1       8.572  -2.623   1.194  0.00  0.00    +0.000 A 
ATOM      8  C   UNL     1       8.714  -1.246   1.267  0.00  0.00    +0.000 A 
ATOM      9  N   UNL     1       7.714  -0.378   1.035  0.00  0.00    +0.000 NA
BRANCH   4  10
ATOM     10  O   UNL     1       5.461  -0.060   0.471  0.00  0.00    +0.000 OA
BRANCH  10  14
ATOM     11  C   UNL     1       3.292   2.421   3.516  0.00  0.00    +0.000 C 
ATOM     12  C   UNL     1       3.896   1.450   2.516  0.00  0.00    +0.000 C 
ATOM     13  C   UNL     1       5.419   1.215   2.684  0.00  0.00    +0.000 C 
ATOM     14  C   UNL     1       5.537   1.225   1.136  0.00  0.00    +0.000 C 
ATOM     15  C   UNL     1       4.223   2.046   1.120  0.00  0.00    +0.000 C 
BRANCH  12  16
ATOM     16  O   UNL     1       3.082   0.256   2.478  0.00  0.00    +0.000 OA
ATOM     17  H   UNL     1       3.199  -0.165   3.347  0.00  0.00    +0.000 HD
ENDBRANCH  12  16
ENDBRANCH  10  14
ENDBRANCH   4  10
ENDBRANCH   1   6
BRANCH   1  18
ATOM     18  C   UNL     1       8.292  -5.543   1.073  0.00  0.00    +0.000 C 
BRANCH  18  19
ATOM     19  N   UNL     1       8.066  -7.002   1.039  0.00  0.00    +0.000 N 
ATOM     20  H   UNL     1       7.589  -7.315   0.194  0.00  0.00    +0.000 HD
BRANCH  19  21
ATOM     21  C   UNL     1       9.253  -7.740   1.231  0.00  0.00    +0.000 A 
ATOM     22  N   UNL     1      10.403  -7.083   1.520  0.00  0.00    +0.000 NA
ATOM     23  C   UNL     1      11.524  -7.821   1.727  0.00  0.00    +0.000 A 
ATOM     24  C   UNL     1      11.559  -9.207   1.697  0.00  0.00    +0.000 A 
ATOM     25  C   UNL     1      10.375  -9.882   1.411  0.00  0.00    +0.000 A 
ATOM     26  C   UNL     1       9.221  -9.140   1.176  0.00  0.00    +0.000 A 
ATOM     27  F   UNL     1       8.081  -9.786   0.886  0.00  0.00    +0.000 F 
BRANCH  24  28
ATOM     28  C   UNL     1      12.848  -9.887   1.937  0.00  0.00    +0.000 C 
ATOM     29  N   UNL     1      12.806 -11.173   2.398  0.00  0.00    +0.000 N 
ATOM     30  O   UNL     1      13.912  -9.313   1.754  0.00  0.00    +0.000 OA
ATOM     31  H   UNL     1      11.974 -11.604   2.773  0.00  0.00    +0.000 HD
ATOM     32  H   UNL     1      13.696 -11.596   2.634  0.00  0.00    +0.000 HD
ENDBRANCH  24  28
ENDBRANCH  19  21
ENDBRANCH  18  19
ENDBRANCH   1  18
TORSDOF 8
