REMARK  Name = 
REMARK  5 active torsions:
REMARK  status: ('A' for Active; 'I' for Inactive)
REMARK    1  A    between atoms: N_1  and  C_2
REMARK    2  A    between atoms: C_2  and  C_3
REMARK    3  A    between atoms: C_3  and  C_4
REMARK    4  A    between atoms: N_10  and  C_11
REMARK    5  A    between atoms: C_11  and  C_12
REMARK                            x       y       z     vdW  Elec       q    Type
REMARK                         _______ _______ _______ _____ _____    ______ ____
ROOT
ATOM      1  C   UNL     1       4.438   1.401  -0.680  0.00  0.00    +0.000 A 
ATOM      2  C   UNL     1       5.221   0.629  -1.537  0.00  0.00    +0.000 A 
ATOM      3  N   UNL     1       6.567   0.584  -1.556  0.00  0.00    +0.000 NA
ATOM      4  C   UNL     1       7.176   1.354  -0.619  0.00  0.00    +0.000 A 
ATOM      5  C   UNL     1       8.557   1.493  -0.364  0.00  0.00    +0.000 A 
ATOM      6  C   UNL     1       8.692   2.348   0.708  0.00  0.00    +0.000 A 
ATOM      7  N   UNL     1       7.434   2.738   1.104  0.00  0.00    +0.000 N 
ATOM      8  C   UNL     1       6.484   2.155   0.289  0.00  0.00    +0.000 A 
ATOM      9  C   UNL     1       5.085   2.219   0.255  0.00  0.00    +0.000 A 
ENDROOT
BRANCH   1  10
ATOM     10  C   UNL     1       2.935   1.332  -0.742  0.00  0.00    +0.000 C 
BRANCH  10  11
ATOM     11  C   UNL     1       2.335   2.299  -1.765  0.00  0.00    +0.000 C 
BRANCH  11  12
ATOM     12  N   UNL     1       0.874   2.219  -1.754  0.00  0.00    +0.000 NA
ATOM     13  H   UNL     1       0.493   2.895  -2.414  0.00  0.00    +0.000 HD
ATOM     14  H   UNL     1       0.519   2.484  -0.837  0.00  0.00    +0.000 HD
ENDBRANCH  11  12
ENDBRANCH  10  11
ENDBRANCH   1  10
BRANCH   7  15
ATOM     15  C   UNL     1       7.170   3.547   2.292  0.00  0.00    +0.000 C 
BRANCH  15  16
ATOM     16  C   UNL     1       7.214   5.019   1.972  0.00  0.00    +0.000 A 
ATOM     17  C   UNL     1       6.036   5.720   1.677  0.00  0.00    +0.000 A 
ATOM     18  C   UNL     1       6.085   7.060   1.297  0.00  0.00    +0.000 A 
ATOM     19  C   UNL     1       7.314   7.716   1.212  0.00  0.00    +0.000 A 
ATOM     20  C   UNL     1       8.486   7.041   1.540  0.00  0.00    +0.000 A 
ATOM     21  C   UNL     1       8.439   5.701   1.921  0.00  0.00    +0.000 A 
ENDBRANCH  15  16
ENDBRANCH   7  15
TORSDOF 5
