REMARK  Name = 
REMARK  3 active torsions:
REMARK  status: ('A' for Active; 'I' for Inactive)
REMARK    1  A    between atoms: C_2  and  C_4
REMARK    2  A    between atoms: N_8  and  C_9
REMARK    3  A    between atoms: C_9  and  C_10
REMARK                            x       y       z     vdW  Elec       q    Type
REMARK                         _______ _______ _______ _____ _____    ______ ____
ROOT
ATOM      1  C   UNL     1       4.342  -1.519  -2.917  0.00  0.00    +0.000 A 
ATOM      2  C   UNL     1       3.652  -2.701  -2.984  0.00  0.00    +0.000 A 
ATOM      3  N   UNL     1       3.884  -3.751  -2.164  0.00  0.00    +0.000 NA
ATOM      4  C   UNL     1       4.881  -3.622  -1.270  0.00  0.00    +0.000 A 
ATOM      5  N   UNL     1       5.002  -4.677  -0.362  0.00  0.00    +0.000 N 
ATOM      6  N   UNL     1       5.656  -2.531  -1.176  0.00  0.00    +0.000 NA
ATOM      7  C   UNL     1       5.366  -1.496  -1.999  0.00  0.00    +0.000 A 
ATOM      8  H   UNL     1       4.391  -5.409  -0.709  0.00  0.00    +0.000 HD
ENDROOT
BRANCH   1  10
ATOM      9  N   UNL     1       2.748  -0.167  -4.152  0.00  0.00    +0.000 N 
ATOM     10  C   UNL     1       4.041  -0.337  -3.737  0.00  0.00    +0.000 C 
ATOM     11  O   UNL     1       4.903   0.491  -3.991  0.00  0.00    +0.000 OA
ATOM     12  H   UNL     1       2.541   0.717  -4.601  0.00  0.00    +0.000 HD
ATOM     13  H   UNL     1       1.968  -0.666  -3.748  0.00  0.00    +0.000 HD
ENDBRANCH   1  10
BRANCH   5  14
ATOM     14  C   UNL     1       6.303  -5.098   0.181  0.00  0.00    +0.000 C 
ATOM     15  C   UNL     1       6.300  -5.351   1.685  0.00  0.00    +0.000 C 
ATOM     16  C   UNL     1       7.121  -4.238   1.125  0.00  0.00    +0.000 C 
BRANCH  14  17
ATOM     17  C   UNL     1       7.039  -6.080  -0.719  0.00  0.00    +0.000 A 
ATOM     18  C   UNL     1       6.854  -7.467  -0.619  0.00  0.00    +0.000 A 
ATOM     19  C   UNL     1       7.485  -8.339  -1.506  0.00  0.00    +0.000 A 
ATOM     20  C   UNL     1       8.298  -7.800  -2.485  0.00  0.00    +0.000 A 
ATOM     21  N   UNL     1       8.526  -6.477  -2.619  0.00  0.00    +0.000 NA
ATOM     22  C   UNL     1       7.894  -5.659  -1.741  0.00  0.00    +0.000 A 
ENDBRANCH  14  17
ENDBRANCH   5  14
TORSDOF 3
