REMARK  Name = 
REMARK  6 active torsions:
REMARK  status: ('A' for Active; 'I' for Inactive)
REMARK    1  A    between atoms: C_2  and  C_3
REMARK    2  A    between atoms: N_10  and  C_11
REMARK    3  A    between atoms: C_11  and  C_12
REMARK    4  A    between atoms: C_15  and  C_16
REMARK    5  A    between atoms: C_16  and  N_17
REMARK    6  A    between atoms: C_18  and  C_20
REMARK                            x       y       z     vdW  Elec       q    Type
REMARK                         _______ _______ _______ _____ _____    ______ ____
ROOT
ATOM      1  C   UNL     1       0.740  -4.241  -0.113  0.00  0.00    +0.000 A 
ATOM      2  C   UNL     1       0.092  -5.477  -0.094  0.00  0.00    +0.000 A 
ATOM      3  C   UNL     1      -1.303  -5.521  -0.126  0.00  0.00    +0.000 A 
ATOM      4  C   UNL     1      -2.035  -4.335  -0.188  0.00  0.00    +0.000 A 
ATOM      5  C   UNL     1      -1.309  -3.149  -0.181  0.00  0.00    +0.000 A 
ATOM      6  N   UNL     1       0.048  -3.074  -0.161  0.00  0.00    +0.000 NA
ENDROOT
BRANCH   1   7
ATOM      7  C   UNL     1       2.255  -4.160  -0.068  0.00  0.00    +0.000 C 
BRANCH   7  15
ATOM      8  C   UNL     1       4.616  -4.486  -3.825  0.00  0.00    +0.000 A 
ATOM      9  C   UNL     1       4.724  -4.688  -5.189  0.00  0.00    +0.000 A 
ATOM     10  C   UNL     1       3.657  -5.522  -5.590  0.00  0.00    +0.000 A 
ATOM     11  C   UNL     1       2.950  -5.837  -4.455  0.00  0.00    +0.000 A 
ATOM     12  N   UNL     1       3.511  -5.186  -3.366  0.00  0.00    +0.000 N 
ATOM     13  C   UNL     1       3.048  -5.351  -2.046  0.00  0.00    +0.000 C 
ATOM     14  O   UNL     1       2.742  -6.465  -1.655  0.00  0.00    +0.000 OA
ATOM     15  N   UNL     1       2.890  -4.160  -1.378  0.00  0.00    +0.000 N 
ATOM     16  H   UNL     1       2.874  -3.285  -1.887  0.00  0.00    +0.000 HD
BRANCH   8  18
ATOM     17  N   UNL     1       6.327  -3.239  -2.346  0.00  0.00    +0.000 NA
ATOM     18  C   UNL     1       5.550  -3.796  -3.003  0.00  0.00    +0.000 C 
ENDBRANCH   8  18
ENDBRANCH   7  15
ENDBRANCH   1   7
BRANCH   4  19
ATOM     19  C   UNL     1      -3.536  -4.330  -0.236  0.00  0.00    +0.000 C 
BRANCH  19  20
ATOM     20  N   UNL     1      -4.113  -4.222   1.081  0.00  0.00    +0.000 N 
ATOM     21  C   UNL     1      -5.476  -4.138   1.250  0.00  0.00    +0.000 C 
ATOM     22  O   UNL     1      -6.243  -4.014   0.304  0.00  0.00    +0.000 OA
ATOM     23  H   UNL     1      -3.542  -4.533   1.861  0.00  0.00    +0.000 HD
BRANCH  21  24
ATOM     24  C   UNL     1      -5.967  -4.187   2.634  0.00  0.00    +0.000 A 
ATOM     25  C   UNL     1      -7.169  -3.580   2.969  0.00  0.00    +0.000 A 
ATOM     26  S   UNL     1      -7.606  -3.787   4.606  0.00  0.00    +0.000 S 
ATOM     27  C   UNL     1      -6.254  -4.780   4.895  0.00  0.00    +0.000 A 
ATOM     28  N   UNL     1      -6.091  -5.416   6.087  0.00  0.00    +0.000 NA
ATOM     29  C   UNL     1      -5.025  -6.141   6.161  0.00  0.00    +0.000 A 
ATOM     30  N   UNL     1      -4.084  -6.251   5.170  0.00  0.00    +0.000 N 
ATOM     31  C   UNL     1      -4.197  -5.611   3.960  0.00  0.00    +0.000 A 
ATOM     32  O   UNL     1      -3.313  -5.684   3.112  0.00  0.00    +0.000 OA
ATOM     33  C   UNL     1      -5.418  -4.846   3.796  0.00  0.00    +0.000 A 
ATOM     34  H   UNL     1      -3.245  -6.794   5.311  0.00  0.00    +0.000 HD
ENDBRANCH  21  24
ENDBRANCH  19  20
ENDBRANCH   4  19
TORSDOF 6
