REMARK  Name = 
REMARK  7 active torsions:
REMARK  status: ('A' for Active; 'I' for Inactive)
REMARK    1  A    between atoms: C_1  and  C_2
REMARK    2  A    between atoms: C_2  and  N_3
REMARK    3  A    between atoms: C_2  and  C_12
REMARK    4  A    between atoms: C_4  and  C_6
REMARK    5  A    between atoms: C_15  and  C_16
REMARK    6  A    between atoms: C_16  and  N_17
REMARK    7  A    between atoms: C_18  and  C_20
REMARK                            x       y       z     vdW  Elec       q    Type
REMARK                         _______ _______ _______ _____ _____    ______ ____
ROOT
ATOM      1  C   UNL     1       2.974  -0.528   1.226  0.00  0.00    +0.000 A 
ATOM      2  C   UNL     1       3.489   0.336   2.196  0.00  0.00    +0.000 A 
ATOM      3  C   UNL     1       3.896  -0.180   3.428  0.00  0.00    +0.000 A 
ATOM      4  C   UNL     1       3.799  -1.550   3.673  0.00  0.00    +0.000 A 
ATOM      5  C   UNL     1       3.278  -2.336   2.652  0.00  0.00    +0.000 A 
ATOM      6  N   UNL     1       2.875  -1.863   1.447  0.00  0.00    +0.000 NA
ENDROOT
BRANCH   1   8
ATOM      7  C   UNL     1       1.233   0.917   0.161  0.00  0.00    +0.000 C 
ATOM      8  C   UNL     1       2.439   0.003  -0.104  0.00  0.00    +0.000 C 
BRANCH   8   9
ATOM      9  N   UNL     1       3.474   0.684  -0.877  0.00  0.00    +0.000 N 
ATOM     10  C   UNL     1       3.278   1.141  -2.163  0.00  0.00    +0.000 C 
ATOM     11  O   UNL     1       2.229   0.991  -2.784  0.00  0.00    +0.000 OA
ATOM     12  H   UNL     1       4.440   0.651  -0.564  0.00  0.00    +0.000 HD
BRANCH  10  13
ATOM     13  C   UNL     1       4.486   1.881  -2.778  0.00  0.00    +0.000 C 
ATOM     14  C   UNL     1       5.373   0.934  -3.589  0.00  0.00    +0.000 C 
ATOM     15  C   UNL     1       6.560   1.689  -4.189  0.00  0.00    +0.000 C 
ATOM     16  C   UNL     1       7.311   2.467  -3.113  0.00  0.00    +0.000 C 
ATOM     17  C   UNL     1       6.364   3.332  -2.285  0.00  0.00    +0.000 C 
ATOM     18  N   UNL     1       5.281   2.534  -1.703  0.00  0.00    +0.000 NA
ATOM     19  H   UNL     1       4.655   3.158  -1.189  0.00  0.00    +0.000 HD
ENDBRANCH  10  13
ENDBRANCH   8   9
ENDBRANCH   1   8
BRANCH   4  20
ATOM     20  C   UNL     1       4.178  -2.151   4.996  0.00  0.00    +0.000 C 
BRANCH  20  21
ATOM     21  N   UNL     1       3.051  -2.185   5.896  0.00  0.00    +0.000 N 
ATOM     22  C   UNL     1       3.187  -2.599   7.199  0.00  0.00    +0.000 C 
ATOM     23  O   UNL     1       4.279  -2.890   7.676  0.00  0.00    +0.000 OA
ATOM     24  H   UNL     1       2.126  -2.172   5.479  0.00  0.00    +0.000 HD
BRANCH  22  25
ATOM     25  C   UNL     1       1.962  -2.620   8.013  0.00  0.00    +0.000 A 
ATOM     26  C   UNL     1       2.054  -2.555   9.397  0.00  0.00    +0.000 A 
ATOM     27  S   UNL     1       0.542  -2.546  10.186  0.00  0.00    +0.000 S 
ATOM     28  C   UNL     1      -0.290  -2.683   8.709  0.00  0.00    +0.000 A 
ATOM     29  N   UNL     1      -1.650  -2.755   8.676  0.00  0.00    +0.000 NA
ATOM     30  C   UNL     1      -2.148  -2.887   7.491  0.00  0.00    +0.000 A 
ATOM     31  N   UNL     1      -1.411  -2.944   6.337  0.00  0.00    +0.000 N 
ATOM     32  C   UNL     1      -0.039  -2.845   6.319  0.00  0.00    +0.000 A 
ATOM     33  O   UNL     1       0.588  -2.853   5.267  0.00  0.00    +0.000 OA
ATOM     34  C   UNL     1       0.572  -2.711   7.629  0.00  0.00    +0.000 A 
ATOM     35  H   UNL     1      -1.863  -3.039   5.438  0.00  0.00    +0.000 HD
ENDBRANCH  22  25
ENDBRANCH  20  21
ENDBRANCH   4  20
TORSDOF 6
