REMARK  Name = 
REMARK  8 active torsions:
REMARK  status: ('A' for Active; 'I' for Inactive)
REMARK    1  A    between atoms: N_1  and  C_2
REMARK    2  A    between atoms: C_2  and  C_3
REMARK    3  A    between atoms: C_3  and  N_4
REMARK    4  A    between atoms: C_3  and  C_17
REMARK    5  A    between atoms: C_5  and  C_7
REMARK    6  A    between atoms: C_20  and  C_21
REMARK    7  A    between atoms: C_21  and  C_22
REMARK    8  A    between atoms: C_22  and  C_23
REMARK                            x       y       z     vdW  Elec       q    Type
REMARK                         _______ _______ _______ _____ _____    ______ ____
ROOT
ATOM      1  C   UNL     1       2.810  -0.756  -1.038  0.00  0.00    +0.000 C 
ENDROOT
BRANCH   1   2
ATOM      2  C   UNL     1       4.333  -0.814  -1.165  0.00  0.00    +0.000 A 
ATOM      3  C   UNL     1       4.992  -2.045  -1.256  0.00  0.00    +0.000 A 
ATOM      4  C   UNL     1       6.389  -2.107  -1.334  0.00  0.00    +0.000 A 
ATOM      5  C   UNL     1       7.165  -0.940  -1.348  0.00  0.00    +0.000 A 
ATOM      6  C   UNL     1       6.502   0.293  -1.274  0.00  0.00    +0.000 A 
ATOM      7  C   UNL     1       5.107   0.357  -1.193  0.00  0.00    +0.000 A 
BRANCH   5   8
ATOM      8  C   UNL     1       8.683  -0.956  -1.362  0.00  0.00    +0.000 C 
BRANCH   8   9
ATOM      9  C   UNL     1       9.324  -2.138  -2.097  0.00  0.00    +0.000 C 
BRANCH   9  10
ATOM     10  C   UNL     1      10.830  -2.048  -2.129  0.00  0.00    +0.000 A 
ATOM     11  C   UNL     1      11.599  -2.634  -1.126  0.00  0.00    +0.000 A 
ATOM     12  C   UNL     1      12.988  -2.565  -1.214  0.00  0.00    +0.000 A 
ATOM     13  C   UNL     1      13.569  -1.913  -2.293  0.00  0.00    +0.000 A 
ATOM     14  C   UNL     1      12.733  -1.346  -3.240  0.00  0.00    +0.000 A 
ATOM     15  N   UNL     1      11.383  -1.395  -3.179  0.00  0.00    +0.000 NA
ENDBRANCH   9  10
ENDBRANCH   8   9
ENDBRANCH   5   8
ENDBRANCH   1   2
BRANCH   1  16
ATOM     16  N   UNL     1       2.285  -0.075  -2.211  0.00  0.00    +0.000 N 
ATOM     17  C   UNL     1       0.950   0.039  -2.492  0.00  0.00    +0.000 C 
ATOM     18  O   UNL     1       0.066  -0.302  -1.714  0.00  0.00    +0.000 OA
ATOM     19  H   UNL     1       2.932  -0.030  -2.991  0.00  0.00    +0.000 HD
BRANCH  17  20
ATOM     20  C   UNL     1       0.637   0.663  -3.779  0.00  0.00    +0.000 A 
ATOM     21  C   UNL     1      -0.524   1.404  -3.940  0.00  0.00    +0.000 A 
ATOM     22  S   UNL     1      -0.688   2.073  -5.502  0.00  0.00    +0.000 S 
ATOM     23  C   UNL     1       0.761   1.349  -6.027  0.00  0.00    +0.000 A 
ATOM     24  N   UNL     1       1.202   1.496  -7.306  0.00  0.00    +0.000 NA
ATOM     25  C   UNL     1       2.299   0.865  -7.568  0.00  0.00    +0.000 A 
ATOM     26  N   UNL     1       3.001   0.111  -6.664  0.00  0.00    +0.000 N 
ATOM     27  C   UNL     1       2.618  -0.036  -5.358  0.00  0.00    +0.000 A 
ATOM     28  O   UNL     1       3.305  -0.659  -4.558  0.00  0.00    +0.000 OA
ATOM     29  C   UNL     1       1.376   0.633  -5.016  0.00  0.00    +0.000 A 
ATOM     30  H   UNL     1       3.868  -0.343  -6.924  0.00  0.00    +0.000 HD
ENDBRANCH  17  20
ENDBRANCH   1  16
BRANCH   1  31
ATOM     31  C   UNL     1       2.378  -0.065   0.290  0.00  0.00    +0.000 C 
BRANCH  31  32
ATOM     32  N   UNL     1       2.904  -0.705   1.505  0.00  0.00    +0.000 NA
ATOM     33  H   UNL     1       2.805  -0.053   2.282  0.00  0.00    +0.000 HD
ATOM     34  H   UNL     1       3.905  -0.866   1.394  0.00  0.00    +0.000 HD
ENDBRANCH  31  32
ENDBRANCH   1  31
TORSDOF 8
