REMARK  Name = 
REMARK  9 active torsions:
REMARK  status: ('A' for Active; 'I' for Inactive)
REMARK    1  A    between atoms: C_2  and  C_3
REMARK    2  A    between atoms: C_3  and  N_4
REMARK    3  A    between atoms: C_3  and  C_20
REMARK    4  A    between atoms: N_4  and  C_5
REMARK    5  A    between atoms: C_5  and  C_6
REMARK    6  A    between atoms: C_9  and  C_10
REMARK    7  A    between atoms: C_10  and  N_11
REMARK    8  A    between atoms: N_11  and  C_12
REMARK    9  A    between atoms: C_12  and  C_13
REMARK                            x       y       z     vdW  Elec       q    Type
REMARK                         _______ _______ _______ _____ _____    ______ ____
ROOT
ATOM      1  C   UNL     1       1.736   0.992  -0.224  0.00  0.00    +0.000 C 
ENDROOT
BRANCH   1   2
ATOM      2  C   UNL     1       0.216   1.009  -0.239  0.00  0.00    +0.000 A 
ATOM      3  C   UNL     1      -0.517  -0.146  -0.494  0.00  0.00    +0.000 A 
ATOM      4  C   UNL     1      -1.914  -0.055  -0.563  0.00  0.00    +0.000 A 
ATOM      5  C   UNL     1      -2.545   1.166  -0.358  0.00  0.00    +0.000 A 
ATOM      6  C   UNL     1      -1.729   2.263  -0.101  0.00  0.00    +0.000 A 
ATOM      7  N   UNL     1      -0.381   2.210  -0.052  0.00  0.00    +0.000 NA
BRANCH   5   8
ATOM      8  C   UNL     1      -4.039   1.328  -0.438  0.00  0.00    +0.000 C 
BRANCH   8   9
ATOM      9  N   UNL     1      -4.371   2.290  -1.483  0.00  0.00    +0.000 NA
ATOM     10  H   UNL     1      -4.004   1.949  -2.372  0.00  0.00    +0.000 HD
BRANCH   9  11
ATOM     11  C   UNL     1      -5.805   2.488  -1.624  0.00  0.00    +0.000 C 
BRANCH  11  12
ATOM     12  C   UNL     1      -6.016   3.472  -2.710  0.00  0.00    +0.000 A 
ATOM     13  C   UNL     1      -6.685   3.405  -3.912  0.00  0.00    +0.000 A 
ATOM     14  N   UNL     1      -6.566   4.582  -4.606  0.00  0.00    +0.000 NA
ATOM     15  C   UNL     1      -5.827   5.359  -3.846  0.00  0.00    +0.000 A 
ATOM     16  N   UNL     1      -5.476   4.735  -2.685  0.00  0.00    +0.000 N 
ATOM     17  H   UNL     1      -4.880   5.106  -1.959  0.00  0.00    +0.000 HD
ENDBRANCH  11  12
ENDBRANCH   9  11
ENDBRANCH   8   9
ENDBRANCH   5   8
ENDBRANCH   1   2
BRANCH   1  18
ATOM     18  N   UNL     1       2.393   0.744  -1.524  0.00  0.00    +0.000 NA
ATOM     19  H   UNL     1       2.135  -0.198  -1.830  0.00  0.00    +0.000 HD
BRANCH  18  20
ATOM     20  C   UNL     1       1.935   1.682  -2.572  0.00  0.00    +0.000 C 
BRANCH  20  21
ATOM     21  C   UNL     1       2.703   1.395  -3.868  0.00  0.00    +0.000 A 
ATOM     22  C   UNL     1       3.613   2.248  -4.483  0.00  0.00    +0.000 A 
ATOM     23  S   UNL     1       4.047   1.759  -6.064  0.00  0.00    +0.000 S 
ATOM     24  C   UNL     1       3.049   0.385  -5.973  0.00  0.00    +0.000 A 
ATOM     25  N   UNL     1       2.837  -0.414  -7.052  0.00  0.00    +0.000 NA
ATOM     26  C   UNL     1       2.016  -1.388  -6.836  0.00  0.00    +0.000 A 
ATOM     27  N   UNL     1       1.442  -1.677  -5.621  0.00  0.00    +0.000 N 
ATOM     28  C   UNL     1       1.712  -0.956  -4.479  0.00  0.00    +0.000 A 
ATOM     29  O   UNL     1       1.337  -1.314  -3.366  0.00  0.00    +0.000 OA
ATOM     30  C   UNL     1       2.494   0.241  -4.716  0.00  0.00    +0.000 A 
ATOM     31  H   UNL     1       0.870  -2.500  -5.511  0.00  0.00    +0.000 HD
ENDBRANCH  20  21
BRANCH  20  33
ATOM     32  N   UNL     1       2.134   4.258  -1.959  0.00  0.00    +0.000 NA
ATOM     33  C   UNL     1       2.043   3.124  -2.213  0.00  0.00    +0.000 C 
ENDBRANCH  20  33
ENDBRANCH  18  20
ENDBRANCH   1  18
TORSDOF 9
