REMARK  Name = 
REMARK  7 active torsions:
REMARK  status: ('A' for Active; 'I' for Inactive)
REMARK    1  A    between atoms: C_1  and  O_2
REMARK    2  A    between atoms: O_2  and  C_3
REMARK    3  A    between atoms: C_7  and  C_8
REMARK    4  A    between atoms: C_12  and  C_13
REMARK    5  A    between atoms: C_13  and  N_14
REMARK    6  A    between atoms: C_19  and  O_20
REMARK    7  A    between atoms: O_20  and  C_21
REMARK                            x       y       z     vdW  Elec       q    Type
REMARK                         _______ _______ _______ _____ _____    ______ ____
ROOT
ATOM      1  C   UNL     1       3.033   1.377  -4.613  0.00  0.00    +0.000 A 
ATOM      2  C   UNL     1       2.950   2.778  -4.515  0.00  0.00    +0.000 A 
ATOM      3  C   UNL     1       2.622   3.571  -5.618  0.00  0.00    +0.000 A 
ATOM      4  C   UNL     1       2.372   2.982  -6.854  0.00  0.00    +0.000 A 
ATOM      5  C   UNL     1       2.455   1.594  -7.000  0.00  0.00    +0.000 A 
ATOM      6  C   UNL     1       2.766   0.807  -5.873  0.00  0.00    +0.000 A 
ENDROOT
BRANCH   1  11
ATOM      7  C   UNL     1       4.693   0.195  -1.397  0.00  0.00    +0.000 A 
ATOM      8  C   UNL     1       4.093  -1.053  -1.302  0.00  0.00    +0.000 A 
ATOM      9  N   UNL     1       3.194  -1.536  -2.188  0.00  0.00    +0.000 NA
ATOM     10  C   UNL     1       2.876  -0.725  -3.226  0.00  0.00    +0.000 A 
ATOM     11  C   UNL     1       3.413   0.546  -3.448  0.00  0.00    +0.000 A 
ATOM     12  C   UNL     1       4.348   0.988  -2.492  0.00  0.00    +0.000 A 
BRANCH   7  14
ATOM     13  C   UNL     1       6.128   1.830  -0.450  0.00  0.00    +0.000 C 
ATOM     14  O   UNL     1       5.572   0.521  -0.406  0.00  0.00    +0.000 OA
ENDBRANCH   7  14
ENDBRANCH   1  11
BRANCH   5  15
ATOM     15  C   UNL     1       2.251   0.947  -8.350  0.00  0.00    +0.000 C 
BRANCH  15  16
ATOM     16  N   UNL     1       0.874   0.522  -8.516  0.00  0.00    +0.000 N 
ATOM     17  C   UNL     1       0.512  -0.102  -9.706  0.00  0.00    +0.000 A 
ATOM     18  C   UNL     1       1.344  -0.986 -10.405  0.00  0.00    +0.000 A 
ATOM     19  N   UNL     1       0.987  -1.637 -11.540  0.00  0.00    +0.000 NA
ATOM     20  C   UNL     1      -0.276  -1.393 -11.946  0.00  0.00    +0.000 A 
ATOM     21  C   UNL     1      -1.126  -0.536 -11.264  0.00  0.00    +0.000 A 
ATOM     22  N   UNL     1      -0.747   0.131 -10.142  0.00  0.00    +0.000 NA
ATOM     23  H   UNL     1       0.170   1.221  -8.291  0.00  0.00    +0.000 HD
BRANCH  21  24
ATOM     24  O   UNL     1      -2.399  -0.393 -11.778  0.00  0.00    +0.000 OA
ATOM     25  C   UNL     1      -3.238   0.441 -10.989  0.00  0.00    +0.000 C 
ENDBRANCH  21  24
ENDBRANCH  15  16
ENDBRANCH   5  15
TORSDOF 5
