REMARK  Name = 
REMARK  5 active torsions:
REMARK  status: ('A' for Active; 'I' for Inactive)
REMARK    1  A    between atoms: C_2  and  C_5
REMARK    2  A    between atoms: C_9  and  C_10
REMARK    3  A    between atoms: C_10  and  N_11
REMARK    4  A    between atoms: N_11  and  C_12
REMARK    5  A    between atoms: C_16  and  C_17
REMARK                            x       y       z     vdW  Elec       q    Type
REMARK                         _______ _______ _______ _____ _____    ______ ____
ROOT
ATOM      1  N   UNL     1       1.945  -5.995   0.318  0.00  0.00    +0.000 N 
ATOM      2  H   UNL     1       1.554  -5.236  -0.237  0.00  0.00    +0.000 HD
ENDROOT
BRANCH   1   3
ATOM      3  C   UNL     1       1.418  -7.237  -0.089  0.00  0.00    +0.000 A 
ATOM      4  C   UNL     1       0.936  -7.381  -1.393  0.00  0.00    +0.000 A 
ATOM      5  C   UNL     1       0.455  -8.613  -1.849  0.00  0.00    +0.000 A 
ATOM      6  C   UNL     1       0.507  -9.736  -1.022  0.00  0.00    +0.000 A 
ATOM      7  C   UNL     1       1.065  -9.656   0.262  0.00  0.00    +0.000 A 
ATOM      8  C   UNL     1       1.502  -8.390   0.703  0.00  0.00    +0.000 A 
BRANCH   7   9
ATOM      9  C   UNL     1       1.269 -10.840   1.123  0.00  0.00    +0.000 A 
ATOM     10  C   UNL     1       1.568 -12.100   0.606  0.00  0.00    +0.000 A 
ATOM     11  C   UNL     1       1.860 -13.147   1.477  0.00  0.00    +0.000 A 
ATOM     12  C   UNL     1       1.844 -12.918   2.846  0.00  0.00    +0.000 A 
ATOM     13  C   UNL     1       1.527 -11.647   3.287  0.00  0.00    +0.000 A 
ATOM     14  N   UNL     1       1.243 -10.613   2.464  0.00  0.00    +0.000 NA
ENDBRANCH   7   9
ENDBRANCH   1   3
BRANCH   1  15
ATOM     15  C   UNL     1       1.843  -5.688   1.749  0.00  0.00    +0.000 C 
BRANCH  15  20
ATOM     16  C   UNL     1       2.139  -2.165   2.897  0.00  0.00    +0.000 A 
ATOM     17  C   UNL     1       3.503  -1.899   2.770  0.00  0.00    +0.000 A 
ATOM     18  C   UNL     1       4.343  -2.886   2.264  0.00  0.00    +0.000 A 
ATOM     19  C   UNL     1       3.810  -4.118   1.905  0.00  0.00    +0.000 A 
ATOM     20  C   UNL     1       2.443  -4.331   2.063  0.00  0.00    +0.000 A 
ATOM     21  N   UNL     1       1.610  -3.373   2.542  0.00  0.00    +0.000 NA
BRANCH  16  23
ATOM     22  F   UNL     1       1.839   0.072   3.758  0.00  0.00    +0.000 F 
ATOM     23  C   UNL     1       1.205  -1.102   3.460  0.00  0.00    +0.000 C 
ATOM     24  F   UNL     1       0.595  -1.486   4.618  0.00  0.00    +0.000 F 
ATOM     25  F   UNL     1       0.202  -0.762   2.600  0.00  0.00    +0.000 F 
ENDBRANCH  16  23
ENDBRANCH  15  20
ENDBRANCH   1  15
TORSDOF 5
