REMARK  Name = 
REMARK  5 active torsions:
REMARK  status: ('A' for Active; 'I' for Inactive)
REMARK    1  A    between atoms: C_2  and  C_4
REMARK    2  A    between atoms: C_7  and  N_8
REMARK    3  A    between atoms: N_8  and  C_9
REMARK    4  A    between atoms: C_9  and  C_10
REMARK    5  A    between atoms: C_14  and  C_15
REMARK                            x       y       z     vdW  Elec       q    Type
REMARK                         _______ _______ _______ _____ _____    ______ ____
ROOT
ATOM      1  C   UNL     1       5.069  -2.839   5.307  0.00  0.00    +0.000 C 
ATOM      2  C   UNL     1       5.016  -4.338   5.047  0.00  0.00    +0.000 C 
ATOM      3  C   UNL     1       3.777  -3.618   5.470  0.00  0.00    +0.000 C 
ENDROOT
BRANCH   1   4
ATOM      4  C   UNL     1       5.816  -2.347   6.542  0.00  0.00    +0.000 A 
ATOM      5  C   UNL     1       7.218  -2.405   6.598  0.00  0.00    +0.000 A 
ATOM      6  C   UNL     1       7.926  -1.818   7.643  0.00  0.00    +0.000 A 
ATOM      7  C   UNL     1       7.241  -1.158   8.662  0.00  0.00    +0.000 A 
ATOM      8  C   UNL     1       5.840  -1.075   8.664  0.00  0.00    +0.000 A 
ATOM      9  C   UNL     1       5.152  -1.703   7.608  0.00  0.00    +0.000 A 
BRANCH   8  10
ATOM     10  C   UNL     1       5.122  -0.284   9.685  0.00  0.00    +0.000 A 
ATOM     11  C   UNL     1       5.622   0.958  10.107  0.00  0.00    +0.000 A 
ATOM     12  C   UNL     1       4.918   1.701  11.043  0.00  0.00    +0.000 A 
ATOM     13  N   UNL     1       3.749   1.302  11.585  0.00  0.00    +0.000 NA
ATOM     14  C   UNL     1       3.271   0.113  11.170  0.00  0.00    +0.000 A 
ATOM     15  C   UNL     1       3.909  -0.703  10.245  0.00  0.00    +0.000 A 
ENDBRANCH   8  10
ENDBRANCH   1   4
BRANCH   1  16
ATOM     16  N   UNL     1       5.325  -2.018   4.108  0.00  0.00    +0.000 N 
ATOM     17  H   UNL     1       6.303  -2.001   3.825  0.00  0.00    +0.000 HD
BRANCH  16  21
ATOM     18  C   UNL     1       3.459   1.538   3.009  0.00  0.00    +0.000 A 
ATOM     19  C   UNL     1       2.967   0.881   4.127  0.00  0.00    +0.000 A 
ATOM     20  C   UNL     1       3.589  -0.303   4.532  0.00  0.00    +0.000 A 
ATOM     21  C   UNL     1       4.700  -0.784   3.841  0.00  0.00    +0.000 A 
ATOM     22  C   UNL     1       5.103  -0.040   2.724  0.00  0.00    +0.000 A 
ATOM     23  N   UNL     1       4.526   1.105   2.286  0.00  0.00    +0.000 NA
BRANCH  18  25
ATOM     24  N   UNL     1       3.274   3.294   1.346  0.00  0.00    +0.000 N 
ATOM     25  C   UNL     1       2.777   2.776   2.513  0.00  0.00    +0.000 C 
ATOM     26  O   UNL     1       1.829   3.288   3.092  0.00  0.00    +0.000 OA
ATOM     27  H   UNL     1       2.834   4.101   0.932  0.00  0.00    +0.000 HD
ATOM     28  H   UNL     1       4.036   2.818   0.875  0.00  0.00    +0.000 HD
ENDBRANCH  18  25
ENDBRANCH  16  21
ENDBRANCH   1  16
TORSDOF 5
