REMARK  Name = 
REMARK  7 active torsions:
REMARK  status: ('A' for Active; 'I' for Inactive)
REMARK    1  A    between atoms: C_1  and  C_2
REMARK    2  A    between atoms: C_4  and  C_5
REMARK    3  A    between atoms: C_5  and  N_6
REMARK    4  A    between atoms: C_7  and  C_9
REMARK    5  A    between atoms: C_21  and  C_22
REMARK    6  A    between atoms: C_22  and  N_23
REMARK    7  A    between atoms: C_24  and  C_26
REMARK                            x       y       z     vdW  Elec       q    Type
REMARK                         _______ _______ _______ _____ _____    ______ ____
ROOT
ATOM      1  C   UNL     1       2.571   0.237  -0.002  0.00  0.00    +0.000 C 
ATOM      2  C   UNL     1       1.073   0.092   0.016  0.00  0.00    +0.000 A 
ATOM      3  C   UNL     1       0.305   1.279   0.029  0.00  0.00    +0.000 A 
ATOM      4  C   UNL     1      -1.095   1.256   0.045  0.00  0.00    +0.000 A 
ATOM      5  C   UNL     1      -1.735   0.016   0.015  0.00  0.00    +0.000 A 
ATOM      6  C   UNL     1      -0.990  -1.170   0.010  0.00  0.00    +0.000 A 
ATOM      7  C   UNL     1       0.419  -1.159   0.027  0.00  0.00    +0.000 A 
ENDROOT
BRANCH   4   8
ATOM      8  C   UNL     1      -1.885   2.544   0.044  0.00  0.00    +0.000 C 
BRANCH   8   9
ATOM      9  N   UNL     1      -2.146   2.991  -1.301  0.00  0.00    +0.000 N 
ATOM     10  C   UNL     1      -2.759   4.192  -1.564  0.00  0.00    +0.000 C 
ATOM     11  O   UNL     1      -3.089   4.967  -0.674  0.00  0.00    +0.000 OA
ATOM     12  H   UNL     1      -2.116   2.284  -2.027  0.00  0.00    +0.000 HD
BRANCH  10  13
ATOM     13  C   UNL     1      -2.938   4.527  -2.982  0.00  0.00    +0.000 A 
ATOM     14  C   UNL     1      -3.052   5.858  -3.374  0.00  0.00    +0.000 A 
ATOM     15  S   UNL     1      -3.218   6.064  -5.059  0.00  0.00    +0.000 S 
ATOM     16  C   UNL     1      -3.199   4.384  -5.323  0.00  0.00    +0.000 A 
ATOM     17  N   UNL     1      -3.335   3.871  -6.576  0.00  0.00    +0.000 NA
ATOM     18  C   UNL     1      -3.334   2.580  -6.628  0.00  0.00    +0.000 A 
ATOM     19  N   UNL     1      -3.201   1.756  -5.539  0.00  0.00    +0.000 N 
ATOM     20  C   UNL     1      -3.023   2.230  -4.263  0.00  0.00    +0.000 A 
ATOM     21  O   UNL     1      -2.843   1.464  -3.322  0.00  0.00    +0.000 OA
ATOM     22  C   UNL     1      -3.042   3.676  -4.146  0.00  0.00    +0.000 A 
ATOM     23  H   UNL     1      -3.191   0.753  -5.650  0.00  0.00    +0.000 HD
ENDBRANCH  10  13
ENDBRANCH   8   9
ENDBRANCH   4   8
BRANCH   7  24
ATOM     24  C   UNL     1       1.136  -2.498   0.033  0.00  0.00    +0.000 C 
BRANCH  24  25
ATOM     25  N   UNL     1       1.323  -3.013  -1.307  0.00  0.00    +0.000 N 
ATOM     26  C   UNL     1       1.935  -4.225  -1.557  0.00  0.00    +0.000 C 
ATOM     27  O   UNL     1       2.361  -4.975  -0.682  0.00  0.00    +0.000 OA
ATOM     28  H   UNL     1       0.731  -2.622  -2.030  0.00  0.00    +0.000 HD
BRANCH  26  29
ATOM     29  C   UNL     1       2.039  -4.600  -2.989  0.00  0.00    +0.000 A 
ATOM     30  C   UNL     1       2.184  -3.631  -3.986  0.00  0.00    +0.000 A 
ATOM     31  C   UNL     1       2.278  -4.021  -5.321  0.00  0.00    +0.000 A 
ATOM     32  C   UNL     1       2.231  -5.373  -5.615  0.00  0.00    +0.000 A 
ATOM     33  N   UNL     1       2.108  -6.339  -4.676  0.00  0.00    +0.000 NA
ATOM     34  C   UNL     1       2.026  -5.933  -3.380  0.00  0.00    +0.000 A 
ENDBRANCH  26  29
ENDBRANCH  24  25
ENDBRANCH   7  24
TORSDOF 6
