REMARK  Name = 
REMARK  6 active torsions:
REMARK  status: ('A' for Active; 'I' for Inactive)
REMARK    1  A    between atoms: C_1  and  C_2
REMARK    2  A    between atoms: C_2  and  C_3
REMARK    3  A    between atoms: C_2  and  C_14
REMARK    4  A    between atoms: C_3  and  N_4
REMARK    5  A    between atoms: C_8  and  C_9
REMARK    6  A    between atoms: C_18  and  C_19
REMARK                            x       y       z     vdW  Elec       q    Type
REMARK                         _______ _______ _______ _____ _____    ______ ____
ROOT
ATOM      1  N   UNL     1       2.783  -2.293  -0.931  0.00  0.00    +0.000 N 
ATOM      2  C   UNL     1       3.309  -3.218  -1.849  0.00  0.00    +0.000 A 
ATOM      3  C   UNL     1       3.059  -4.588  -1.680  0.00  0.00    +0.000 A 
ATOM      4  N   UNL     1       3.473  -5.556  -2.541  0.00  0.00    +0.000 NA
ATOM      5  C   UNL     1       4.191  -5.089  -3.598  0.00  0.00    +0.000 A 
ATOM      6  C   UNL     1       4.486  -3.745  -3.760  0.00  0.00    +0.000 A 
ATOM      7  N   UNL     1       4.057  -2.794  -2.891  0.00  0.00    +0.000 NA
ATOM      8  H   UNL     1       1.779  -2.437  -0.860  0.00  0.00    +0.000 HD
ENDROOT
BRANCH   5   9
ATOM      9  C   UNL     1       4.629  -6.061  -4.636  0.00  0.00    +0.000 C 
ATOM     10  N   UNL     1       4.269  -7.365  -4.428  0.00  0.00    +0.000 N 
ATOM     11  O   UNL     1       5.260  -5.715  -5.627  0.00  0.00    +0.000 OA
ATOM     12  H   UNL     1       3.733  -7.623  -3.608  0.00  0.00    +0.000 HD
ATOM     13  H   UNL     1       4.516  -8.060  -5.118  0.00  0.00    +0.000 HD
ENDBRANCH   5   9
BRANCH   1  14
ATOM     14  C   UNL     1       3.087  -0.902  -1.252  0.00  0.00    +0.000 C 
BRANCH  14  16
ATOM     15  C   UNL     1       2.836  -0.085   1.174  0.00  0.00    +0.000 C 
ATOM     16  C   UNL     1       2.366  -0.056  -0.248  0.00  0.00    +0.000 C 
BRANCH  16  17
ATOM     17  C   UNL     1       1.085   0.595  -0.581  0.00  0.00    +0.000 A 
ATOM     18  C   UNL     1       0.910   1.326  -1.763  0.00  0.00    +0.000 A 
ATOM     19  C   UNL     1      -0.303   1.970  -2.033  0.00  0.00    +0.000 A 
ATOM     20  C   UNL     1      -1.360   1.878  -1.129  0.00  0.00    +0.000 A 
ATOM     21  C   UNL     1      -1.206   1.135   0.042  0.00  0.00    +0.000 A 
ATOM     22  C   UNL     1       0.013   0.503   0.315  0.00  0.00    +0.000 A 
BRANCH  21  23
ATOM     23  C   UNL     1      -2.286   1.014   0.968  0.00  0.00    +0.000 C 
ATOM     24  N   UNL     1      -3.157   0.900   1.727  0.00  0.00    +0.000 NA
ENDBRANCH  21  23
ENDBRANCH  16  17
ENDBRANCH  14  16
ENDBRANCH   1  14
TORSDOF 5
