REMARK  Name = 
REMARK  7 active torsions:
REMARK  status: ('A' for Active; 'I' for Inactive)
REMARK    1  A    between atoms: C_1  and  C_2
REMARK    2  A    between atoms: C_2  and  N_3
REMARK    3  A    between atoms: C_6  and  C_7
REMARK    4  A    between atoms: C_7  and  C_8
REMARK    5  A    between atoms: C_8  and  N_9
REMARK    6  A    between atoms: N_9  and  C_10
REMARK    7  A    between atoms: C_15  and  C_16
REMARK                            x       y       z     vdW  Elec       q    Type
REMARK                         _______ _______ _______ _____ _____    ______ ____
ROOT
ATOM      1  N   UNL     1       2.776  -0.013  -1.513  0.00  0.00    +0.000 N 
ATOM      2  C   UNL     1       4.076   0.009  -2.095  0.00  0.00    +0.000 A 
ATOM      3  C   UNL     1       4.984  -1.014  -1.787  0.00  0.00    +0.000 A 
ATOM      4  C   UNL     1       6.300  -0.975  -2.288  0.00  0.00    +0.000 A 
ATOM      5  C   UNL     1       6.649   0.110  -3.091  0.00  0.00    +0.000 A 
ATOM      6  C   UNL     1       5.693   1.075  -3.357  0.00  0.00    +0.000 A 
ATOM      7  N   UNL     1       4.431   1.041  -2.883  0.00  0.00    +0.000 NA
ATOM      8  H   UNL     1       2.545  -0.980  -1.298  0.00  0.00    +0.000 HD
ENDROOT
BRANCH   1  10
ATOM      9  C   UNL     1       1.309  -0.009  -3.462  0.00  0.00    +0.000 C 
ATOM     10  C   UNL     1       1.637   0.652  -2.132  0.00  0.00    +0.000 C 
ATOM     11  C   UNL     1       0.418   0.733  -1.174  0.00  0.00    +0.000 C 
ATOM     12  C   UNL     1       0.779   2.196  -0.859  0.00  0.00    +0.000 C 
ATOM     13  F   UNL     1      -0.260   3.063  -0.904  0.00  0.00    +0.000 F 
ATOM     14  F   UNL     1       1.390   2.399   0.332  0.00  0.00    +0.000 F 
ATOM     15  C   UNL     1       1.692   2.197  -2.102  0.00  0.00    +0.000 C 
ENDBRANCH   1  10
BRANCH   4  16
ATOM     16  C   UNL     1       7.268  -2.091  -1.931  0.00  0.00    +0.000 C 
BRANCH  16  17
ATOM     17  C   UNL     1       8.703  -1.902  -2.447  0.00  0.00    +0.000 C 
BRANCH  17  18
ATOM     18  N   UNL     1       9.566  -3.055  -2.132  0.00  0.00    +0.000 N 
ATOM     19  H   UNL     1       9.225  -3.892  -2.608  0.00  0.00    +0.000 HD
BRANCH  18  20
ATOM     20  C   UNL     1      10.900  -2.820  -2.568  0.00  0.00    +0.000 A 
ATOM     21  N   UNL     1      11.296  -1.527  -2.693  0.00  0.00    +0.000 NA
ATOM     22  C   UNL     1      12.558  -1.254  -3.087  0.00  0.00    +0.000 A 
ATOM     23  C   UNL     1      13.492  -2.225  -3.375  0.00  0.00    +0.000 A 
ATOM     24  C   UNL     1      13.104  -3.550  -3.236  0.00  0.00    +0.000 A 
ATOM     25  C   UNL     1      11.806  -3.868  -2.808  0.00  0.00    +0.000 A 
BRANCH  25  26
ATOM     26  C   UNL     1      11.476  -5.312  -2.705  0.00  0.00    +0.000 C 
ATOM     27  N   UNL     1      10.511  -5.687  -1.818  0.00  0.00    +0.000 N 
ATOM     28  O   UNL     1      12.072  -6.155  -3.372  0.00  0.00    +0.000 OA
ATOM     29  H   UNL     1      10.188  -5.042  -1.103  0.00  0.00    +0.000 HD
ATOM     30  H   UNL     1      10.423  -6.682  -1.640  0.00  0.00    +0.000 HD
ENDBRANCH  25  26
ENDBRANCH  18  20
ENDBRANCH  17  18
ENDBRANCH  16  17
ENDBRANCH   4  16
TORSDOF 6
