REMARK  Name = 
REMARK  6 active torsions:
REMARK  status: ('A' for Active; 'I' for Inactive)
REMARK    1  A    between atoms: N_1  and  C_2
REMARK    2  A    between atoms: C_2  and  C_3
REMARK    3  A    between atoms: C_7  and  O_8
REMARK    4  A    between atoms: O_8  and  C_9
REMARK    5  A    between atoms: C_9  and  C_10
REMARK    6  A    between atoms: C_10  and  C_11
REMARK                            x       y       z     vdW  Elec       q    Type
REMARK                         _______ _______ _______ _____ _____    ______ ____
ROOT
ATOM      1  C   UNL     1       3.036   0.396  -1.410  0.00  0.00    +0.000 A 
ATOM      2  C   UNL     1       2.877   1.731  -1.805  0.00  0.00    +0.000 A 
ATOM      3  C   UNL     1       3.361   2.169  -3.035  0.00  0.00    +0.000 A 
ATOM      4  C   UNL     1       4.020   1.280  -3.883  0.00  0.00    +0.000 A 
ATOM      5  C   UNL     1       4.200  -0.055  -3.510  0.00  0.00    +0.000 A 
ATOM      6  C   UNL     1       3.704  -0.491  -2.274  0.00  0.00    +0.000 A 
ENDROOT
BRANCH   1   7
ATOM      7  C   UNL     1       2.516  -0.055  -0.069  0.00  0.00    +0.000 C 
BRANCH   7   8
ATOM      8  N   UNL     1       1.079   0.175   0.053  0.00  0.00    +0.000 NA
ATOM      9  H   UNL     1       0.753  -0.200   0.941  0.00  0.00    +0.000 HD
ATOM     10  H   UNL     1       0.601  -0.350  -0.678  0.00  0.00    +0.000 HD
ENDBRANCH   7   8
ENDBRANCH   1   7
BRANCH   5  11
ATOM     11  O   UNL     1       4.842  -1.008  -4.263  0.00  0.00    +0.000 OA
BRANCH  11  12
ATOM     12  C   UNL     1       5.397  -0.548  -5.499  0.00  0.00    +0.000 C 
BRANCH  12  13
ATOM     13  C   UNL     1       6.121  -1.693  -6.208  0.00  0.00    +0.000 C 
BRANCH  13  14
ATOM     14  C   UNL     1       6.726  -1.233  -7.507  0.00  0.00    +0.000 A 
ATOM     15  C   UNL     1       8.012  -0.700  -7.565  0.00  0.00    +0.000 A 
ATOM     16  C   UNL     1       8.487  -0.254  -8.786  0.00  0.00    +0.000 A 
ATOM     17  N   UNL     1       7.754  -0.310  -9.915  0.00  0.00    +0.000 NA
ATOM     18  N   UNL     1       6.495  -0.823  -9.867  0.00  0.00    +0.000 NA
ATOM     19  C   UNL     1       6.004  -1.268  -8.692  0.00  0.00    +0.000 A 
ENDBRANCH  13  14
ENDBRANCH  12  13
ENDBRANCH  11  12
ENDBRANCH   5  11
TORSDOF 6
