REMARK  Name = 
REMARK  7 active torsions:
REMARK  status: ('A' for Active; 'I' for Inactive)
REMARK    1  A    between atoms: C_1  and  C_2
REMARK    2  A    between atoms: C_2  and  C_3
REMARK    3  A    between atoms: C_2  and  C_4
REMARK    4  A    between atoms: C_7  and  C_8
REMARK    5  A    between atoms: C_15  and  C_17
REMARK    6  A    between atoms: C_20  and  O_21
REMARK    7  A    between atoms: O_21  and  C_22
REMARK                            x       y       z     vdW  Elec       q    Type
REMARK                         _______ _______ _______ _____ _____    ______ ____
ROOT
ATOM      1  C   UNL     1       1.252   0.048  -0.172  0.00  0.00    +0.000 C 
ATOM      2  C   UNL     1       2.868  -0.208   0.069  0.00  0.00    +0.000 C 
ATOM      3  C   UNL     1       2.996  -1.784   0.607  0.00  0.00    +0.000 C 
ATOM      4  C   UNL     1       2.936   0.986  -0.448  0.00  0.00    +0.000 C 
ATOM      5  C   UNL     1       3.321  -0.782  -1.034  0.00  0.00    +0.000 C 
ATOM      6  F   UNL     1       4.691  -0.800  -1.278  0.00  0.00    +0.000 F 
ENDROOT
BRANCH   2   7
ATOM      7  C   UNL     1       2.854   0.111   1.661  0.00  0.00    +0.000 A 
ATOM      8  N   UNL     1       1.721  -0.156   2.397  0.00  0.00    +0.000 NA
ATOM      9  C   UNL     1       1.516   0.203   3.676  0.00  0.00    +0.000 A 
ATOM     10  C   UNL     1       2.486   0.911   4.381  0.00  0.00    +0.000 A 
ATOM     11  C   UNL     1       3.704   1.176   3.713  0.00  0.00    +0.000 A 
ATOM     12  C   UNL     1       3.899   0.779   2.366  0.00  0.00    +0.000 A 
ATOM     13  F   UNL     1       5.078   1.090   1.767  0.00  0.00    +0.000 F 
BRANCH  10  14
ATOM     14  C   UNL     1       2.151   1.354   5.778  0.00  0.00    +0.000 C 
ATOM     15  N   UNL     1       3.001   2.068   6.554  0.00  0.00    +0.000 N 
ATOM     16  O   UNL     1       1.048   1.083   6.234  0.00  0.00    +0.000 OA
ATOM     17  H   UNL     1       3.938   2.342   6.240  0.00  0.00    +0.000 HD
ATOM     18  H   UNL     1       2.702   2.359   7.499  0.00  0.00    +0.000 HD
ENDBRANCH  10  14
ENDBRANCH   2   7
BRANCH   5  19
ATOM     19  C   UNL     1       2.499  -1.296  -2.247  0.00  0.00    +0.000 A 
ATOM     20  C   UNL     1       2.681  -2.614  -2.692  0.00  0.00    +0.000 A 
ATOM     21  C   UNL     1       1.935  -3.093  -3.770  0.00  0.00    +0.000 A 
ATOM     22  C   UNL     1       1.000  -2.258  -4.408  0.00  0.00    +0.000 A 
ATOM     23  C   UNL     1       0.828  -0.964  -3.922  0.00  0.00    +0.000 A 
ATOM     24  N   UNL     1       1.593  -0.515  -2.898  0.00  0.00    +0.000 NA
BRANCH  22  25
ATOM     25  O   UNL     1       0.265  -2.640  -5.482  0.00  0.00    +0.000 OA
BRANCH  25  26
ATOM     26  C   UNL     1       0.634  -3.521  -6.485  0.00  0.00    +0.000 C 
ATOM     27  F   UNL     1       1.940  -3.960  -6.362  0.00  0.00    +0.000 F 
ATOM     28  F   UNL     1      -0.219  -4.607  -6.485  0.00  0.00    +0.000 F 
ATOM     29  F   UNL     1       0.530  -2.866  -7.697  0.00  0.00    +0.000 F 
ENDBRANCH  25  26
ENDBRANCH  22  25
ENDBRANCH   5  19
TORSDOF 5
