REMARK  Name = 
REMARK  7 active torsions:
REMARK  status: ('A' for Active; 'I' for Inactive)
REMARK    1  A    between atoms: C_1  and  C_2
REMARK    2  A    between atoms: C_2  and  N_3
REMARK    3  A    between atoms: C_2  and  C_16
REMARK    4  A    between atoms: C_4  and  C_6
REMARK    5  A    between atoms: C_19  and  C_20
REMARK    6  A    between atoms: C_20  and  N_21
REMARK    7  A    between atoms: C_22  and  C_24
REMARK                            x       y       z     vdW  Elec       q    Type
REMARK                         _______ _______ _______ _____ _____    ______ ____
ROOT
ATOM      1  C   UNL     1       0.921   0.058  -0.181  0.00  0.00    +0.000 C 
ATOM      2  C   UNL     1       2.447  -0.066  -0.081  0.00  0.00    +0.000 C 
ENDROOT
BRANCH   2   3
ATOM      3  C   UNL     1       2.933   0.780   1.100  0.00  0.00    +0.000 A 
ATOM      4  C   UNL     1       2.763   2.167   1.091  0.00  0.00    +0.000 A 
ATOM      5  C   UNL     1       3.116   2.908   2.217  0.00  0.00    +0.000 A 
ATOM      6  C   UNL     1       3.638   2.258   3.335  0.00  0.00    +0.000 A 
ATOM      7  C   UNL     1       3.825   0.883   3.238  0.00  0.00    +0.000 A 
ATOM      8  N   UNL     1       3.487   0.137   2.157  0.00  0.00    +0.000 NA
BRANCH   6   9
ATOM      9  C   UNL     1       3.981   3.003   4.590  0.00  0.00    +0.000 C 
BRANCH   9  10
ATOM     10  N   UNL     1       5.339   3.495   4.573  0.00  0.00    +0.000 N 
ATOM     11  C   UNL     1       5.837   4.189   5.658  0.00  0.00    +0.000 C 
ATOM     12  O   UNL     1       5.174   4.447   6.655  0.00  0.00    +0.000 OA
ATOM     13  H   UNL     1       5.976   3.118   3.886  0.00  0.00    +0.000 HD
BRANCH  11  14
ATOM     14  C   UNL     1       7.260   4.592   5.584  0.00  0.00    +0.000 A 
ATOM     15  C   UNL     1       7.903   4.871   4.376  0.00  0.00    +0.000 A 
ATOM     16  C   UNL     1       9.246   5.247   4.389  0.00  0.00    +0.000 A 
ATOM     17  C   UNL     1       9.895   5.335   5.611  0.00  0.00    +0.000 A 
ATOM     18  N   UNL     1       9.297   5.087   6.796  0.00  0.00    +0.000 NA
ATOM     19  C   UNL     1       7.987   4.732   6.759  0.00  0.00    +0.000 A 
ENDBRANCH  11  14
ENDBRANCH   9  10
ENDBRANCH   6   9
ENDBRANCH   2   3
BRANCH   2  20
ATOM     20  N   UNL     1       3.126   0.341  -1.306  0.00  0.00    +0.000 N 
ATOM     21  C   UNL     1       2.897  -0.235  -2.531  0.00  0.00    +0.000 C 
ATOM     22  O   UNL     1       2.059  -1.108  -2.716  0.00  0.00    +0.000 OA
ATOM     23  H   UNL     1       4.046   0.746  -1.161  0.00  0.00    +0.000 HD
BRANCH  21  24
ATOM     24  C   UNL     1       3.660   0.333  -3.650  0.00  0.00    +0.000 A 
ATOM     25  C   UNL     1       3.135   0.304  -4.935  0.00  0.00    +0.000 A 
ATOM     26  S   UNL     1       4.124   1.069  -6.095  0.00  0.00    +0.000 S 
ATOM     27  C   UNL     1       5.315   1.417  -4.930  0.00  0.00    +0.000 A 
ATOM     28  N   UNL     1       6.466   2.057  -5.270  0.00  0.00    +0.000 NA
ATOM     29  C   UNL     1       7.295   2.219  -4.294  0.00  0.00    +0.000 A 
ATOM     30  N   UNL     1       7.074   1.809  -3.004  0.00  0.00    +0.000 N 
ATOM     31  C   UNL     1       5.908   1.205  -2.606  0.00  0.00    +0.000 A 
ATOM     32  O   UNL     1       5.704   0.921  -1.430  0.00  0.00    +0.000 OA
ATOM     33  C   UNL     1       4.954   0.974  -3.671  0.00  0.00    +0.000 A 
ATOM     34  H   UNL     1       7.758   1.976  -2.282  0.00  0.00    +0.000 HD
ENDBRANCH  21  24
ENDBRANCH   2  20
TORSDOF 6
