REMARK  Name = 
REMARK  5 active torsions:
REMARK  status: ('A' for Active; 'I' for Inactive)
REMARK    1  A    between atoms: N_1  and  C_2
REMARK    2  A    between atoms: C_2  and  C_3
REMARK    3  A    between atoms: C_6  and  S_7
REMARK    4  A    between atoms: S_7  and  C_8
REMARK    5  A    between atoms: C_8  and  C_9
REMARK                            x       y       z     vdW  Elec       q    Type
REMARK                         _______ _______ _______ _____ _____    ______ ____
ROOT
ATOM      1  C   UNL     1       3.210  -0.765  -1.118  0.00  0.00    +0.000 A 
ATOM      2  C   UNL     1       4.151  -1.649  -0.579  0.00  0.00    +0.000 A 
ATOM      3  C   UNL     1       4.491  -2.810  -1.278  0.00  0.00    +0.000 A 
ATOM      4  C   UNL     1       3.898  -3.056  -2.511  0.00  0.00    +0.000 A 
ATOM      5  N   UNL     1       2.985  -2.223  -3.055  0.00  0.00    +0.000 NA
ATOM      6  C   UNL     1       2.660  -1.116  -2.345  0.00  0.00    +0.000 A 
ENDROOT
BRANCH   1   7
ATOM      7  C   UNL     1       2.793   0.495  -0.413  0.00  0.00    +0.000 C 
BRANCH   7   8
ATOM      8  N   UNL     1       3.919   1.400  -0.216  0.00  0.00    +0.000 NA
ATOM      9  H   UNL     1       3.580   2.276   0.179  0.00  0.00    +0.000 HD
ATOM     10  H   UNL     1       4.321   1.634  -1.123  0.00  0.00    +0.000 HD
ENDBRANCH   7   8
ENDBRANCH   1   7
BRANCH   4  11
ATOM     11  S   UNL     1       4.219  -4.581  -3.379  0.00  0.00    +0.000 S 
BRANCH  11  12
ATOM     12  C   UNL     1       4.784  -3.953  -5.015  0.00  0.00    +0.000 C 
BRANCH  12  13
ATOM     13  C   UNL     1       5.031  -5.098  -6.046  0.00  0.00    +0.000 C 
ATOM     14  C   UNL     1       6.092  -6.111  -5.563  0.00  0.00    +0.000 C 
ATOM     15  C   UNL     1       6.379  -7.191  -6.605  0.00  0.00    +0.000 C 
ATOM     16  C   UNL     1       6.738  -6.556  -7.940  0.00  0.00    +0.000 C 
ATOM     17  C   UNL     1       5.657  -5.568  -8.366  0.00  0.00    +0.000 C 
ATOM     18  N   UNL     1       5.443  -4.530  -7.352  0.00  0.00    +0.000 NA
ATOM     19  H   UNL     1       4.718  -3.894  -7.687  0.00  0.00    +0.000 HD
ENDBRANCH  12  13
ENDBRANCH  11  12
ENDBRANCH   4  11
TORSDOF 5
