REMARK  Name = 
REMARK  4 active torsions:
REMARK  status: ('A' for Active; 'I' for Inactive)
REMARK    1  A    between atoms: N_1  and  C_2
REMARK    2  A    between atoms: C_2  and  C_3
REMARK    3  A    between atoms: N_5  and  C_6
REMARK    4  A    between atoms: C_6  and  C_7
REMARK                            x       y       z     vdW  Elec       q    Type
REMARK                         _______ _______ _______ _____ _____    ______ ____
ROOT
ATOM      1  C   UNL     1       3.050   4.001  -2.923  0.00  0.00    +0.000 C 
ENDROOT
BRANCH   1   2
ATOM      2  C   UNL     1       2.611   5.052  -1.965  0.00  0.00    +0.000 C 
ATOM      3  C   UNL     1       3.511   5.652  -1.009  0.00  0.00    +0.000 C 
ATOM      4  N   UNL     1       2.888   6.687  -0.355  0.00  0.00    +0.000 NA
ATOM      5  C   UNL     1       1.698   6.699  -0.865  0.00  0.00    +0.000 A 
ATOM      6  N   UNL     1       0.714   7.593  -0.557  0.00  0.00    +0.000 NA
ATOM      7  C   UNL     1      -0.400   7.507  -1.209  0.00  0.00    +0.000 A 
ATOM      8  C   UNL     1      -0.746   6.514  -2.266  0.00  0.00    +0.000 A 
ATOM      9  C   UNL     1       0.191   5.612  -2.584  0.00  0.00    +0.000 A 
ATOM     10  C   UNL     1       1.436   5.681  -1.902  0.00  0.00    +0.000 A 
ENDBRANCH   1   2
BRANCH   1  13
ATOM     11  C   UNL     1       3.597   0.741  -1.501  0.00  0.00    +0.000 A 
ATOM     12  C   UNL     1       4.061   2.016  -1.764  0.00  0.00    +0.000 A 
ATOM     13  N   UNL     1       3.020   2.662  -2.362  0.00  0.00    +0.000 N 
ATOM     14  C   UNL     1       1.978   1.783  -2.450  0.00  0.00    +0.000 A 
ATOM     15  N   UNL     1       2.292   0.614  -1.936  0.00  0.00    +0.000 NA
BRANCH  11  16
ATOM     16  C   UNL     1       4.304  -0.397  -0.848  0.00  0.00    +0.000 C 
BRANCH  16  17
ATOM     17  N   UNL     1       4.052  -0.342   0.590  0.00  0.00    +0.000 NA
ATOM     18  H   UNL     1       4.406  -1.193   1.018  0.00  0.00    +0.000 HD
ATOM     19  H   UNL     1       3.039  -0.355   0.718  0.00  0.00    +0.000 HD
ENDBRANCH  16  17
ENDBRANCH  11  16
ENDBRANCH   1  13
TORSDOF 4
