REMARK  Name = 
REMARK  5 active torsions:
REMARK  status: ('A' for Active; 'I' for Inactive)
REMARK    1  A    between atoms: C_2  and  C_3
REMARK    2  A    between atoms: C_7  and  O_8
REMARK    3  A    between atoms: O_8  and  C_9
REMARK    4  A    between atoms: C_9  and  C_10
REMARK    5  A    between atoms: C_15  and  C_16
REMARK                            x       y       z     vdW  Elec       q    Type
REMARK                         _______ _______ _______ _____ _____    ______ ____
ROOT
ATOM      1  C   UNL     1      -2.534   4.861   0.151  0.00  0.00    +0.000 A 
ATOM      2  C   UNL     1      -3.897   4.564   0.270  0.00  0.00    +0.000 A 
ATOM      3  C   UNL     1      -4.841   5.591   0.298  0.00  0.00    +0.000 A 
ATOM      4  C   UNL     1      -4.434   6.920   0.214  0.00  0.00    +0.000 A 
ATOM      5  F   UNL     1      -5.378   7.871   0.216  0.00  0.00    +0.000 F 
ATOM      6  C   UNL     1      -3.084   7.260   0.117  0.00  0.00    +0.000 A 
ATOM      7  C   UNL     1      -2.140   6.209   0.091  0.00  0.00    +0.000 A 
ENDROOT
BRANCH   6   8
ATOM      8  C   UNL     1      -2.593   8.690  -0.008  0.00  0.00    +0.000 C 
ATOM      9  C   UNL     1      -2.555   9.145  -1.475  0.00  0.00    +0.000 C 
ATOM     10  C   UNL     1      -1.843  10.494  -1.560  0.00  0.00    +0.000 C 
ATOM     11  C   UNL     1      -2.467  11.531  -0.622  0.00  0.00    +0.000 C 
ATOM     12  N   UNL     1      -2.624  11.044   0.751  0.00  0.00    +0.000 NA
ATOM     13  C   UNL     1      -3.350   9.764   0.802  0.00  0.00    +0.000 C 
ATOM     14  H   UNL     1      -3.137  11.739   1.295  0.00  0.00    +0.000 HD
ENDBRANCH   6   8
BRANCH   1  15
ATOM     15  C   UNL     1      -1.513   3.745   0.086  0.00  0.00    +0.000 C 
BRANCH  15  16
ATOM     16  O   UNL     1      -1.127   3.379   1.409  0.00  0.00    +0.000 OA
BRANCH  16  21
ATOM     17  C   UNL     1       1.237   0.576   0.809  0.00  0.00    +0.000 A 
ATOM     18  C   UNL     1       1.532   0.327   2.143  0.00  0.00    +0.000 A 
ATOM     19  N   UNL     1       0.996   1.027   3.167  0.00  0.00    +0.000 NA
ATOM     20  C   UNL     1       0.129   2.017   2.841  0.00  0.00    +0.000 A 
ATOM     21  C   UNL     1      -0.237   2.350   1.538  0.00  0.00    +0.000 A 
ATOM     22  C   UNL     1       0.335   1.605   0.507  0.00  0.00    +0.000 A 
BRANCH  17  24
ATOM     23  N   UNL     1       2.324  -0.838  -1.067  0.00  0.00    +0.000 NA
ATOM     24  C   UNL     1       1.840  -0.207  -0.222  0.00  0.00    +0.000 C 
ENDBRANCH  17  24
ENDBRANCH  16  21
ENDBRANCH  15  16
ENDBRANCH   1  15
TORSDOF 5
