REMARK  Name = 
REMARK  5 active torsions:
REMARK  status: ('A' for Active; 'I' for Inactive)
REMARK    1  A    between atoms: C_2  and  C_4
REMARK    2  A    between atoms: C_8  and  O_9
REMARK    3  A    between atoms: O_9  and  C_10
REMARK    4  A    between atoms: C_10  and  C_11
REMARK    5  A    between atoms: C_15  and  C_16
REMARK                            x       y       z     vdW  Elec       q    Type
REMARK                         _______ _______ _______ _____ _____    ______ ____
ROOT
ATOM      1  C   UNL     1       1.988  -0.614   5.116  0.00  0.00    +0.000 C 
ENDROOT
BRANCH   1   2
ATOM      2  C   UNL     1       1.882  -0.888   6.587  0.00  0.00    +0.000 A 
ATOM      3  C   UNL     1       1.747   0.146   7.503  0.00  0.00    +0.000 A 
ATOM      4  N   UNL     1       1.626  -0.041   8.832  0.00  0.00    +0.000 NA
ATOM      5  C   UNL     1       1.667  -1.325   9.275  0.00  0.00    +0.000 A 
ATOM      6  C   UNL     1       1.839  -2.448   8.464  0.00  0.00    +0.000 A 
ATOM      7  C   UNL     1       1.937  -2.194   7.088  0.00  0.00    +0.000 A 
BRANCH   6   8
ATOM      8  C   UNL     1       1.908  -3.804   9.032  0.00  0.00    +0.000 A 
ATOM      9  C   UNL     1       2.644  -4.833   8.440  0.00  0.00    +0.000 A 
ATOM     10  C   UNL     1       2.656  -6.094   9.031  0.00  0.00    +0.000 A 
ATOM     11  C   UNL     1       1.938  -6.304  10.199  0.00  0.00    +0.000 A 
ATOM     12  C   UNL     1       1.239  -5.236  10.732  0.00  0.00    +0.000 A 
ATOM     13  N   UNL     1       1.212  -4.002  10.180  0.00  0.00    +0.000 NA
ENDBRANCH   6   8
ENDBRANCH   1   2
BRANCH   1  14
ATOM     14  O   UNL     1       3.363  -0.434   4.785  0.00  0.00    +0.000 OA
BRANCH  14  19
ATOM     15  C   UNL     1       3.186   0.149   1.131  0.00  0.00    +0.000 A 
ATOM     16  C   UNL     1       4.551   0.281   0.918  0.00  0.00    +0.000 A 
ATOM     17  N   UNL     1       5.471   0.215   1.910  0.00  0.00    +0.000 NA
ATOM     18  C   UNL     1       4.998  -0.018   3.159  0.00  0.00    +0.000 A 
ATOM     19  C   UNL     1       3.651  -0.186   3.473  0.00  0.00    +0.000 A 
ATOM     20  C   UNL     1       2.731  -0.098   2.431  0.00  0.00    +0.000 A 
BRANCH  15  22
ATOM     21  N   UNL     1       1.005   0.696   0.218  0.00  0.00    +0.000 N 
ATOM     22  C   UNL     1       2.270   0.233  -0.022  0.00  0.00    +0.000 C 
ATOM     23  O   UNL     1       2.632  -0.072  -1.150  0.00  0.00    +0.000 OA
ATOM     24  H   UNL     1       0.424   0.844  -0.600  0.00  0.00    +0.000 HD
ATOM     25  H   UNL     1       0.764   1.210   1.053  0.00  0.00    +0.000 HD
ENDBRANCH  15  22
ENDBRANCH  14  19
ENDBRANCH   1  14
TORSDOF 5
