REMARK  Name = 
REMARK  10 active torsions:
REMARK  status: ('A' for Active; 'I' for Inactive)
REMARK    1  A    between atoms: C_1  and  N_2
REMARK    2  A    between atoms: N_2  and  C_3
REMARK    3  A    between atoms: N_2  and  C_4
REMARK    4  A    between atoms: C_4  and  C_5
REMARK    5  A    between atoms: C_5  and  N_6
REMARK    6  A    between atoms: N_6  and  C_7
REMARK    7  A    between atoms: C_7  and  C_8
REMARK    8  A    between atoms: C_12  and  C_13
REMARK    9  A    between atoms: C_14  and  C_15
REMARK   10  A    between atoms: C_18  and  C_19
REMARK                            x       y       z     vdW  Elec       q    Type
REMARK                         _______ _______ _______ _____ _____    ______ ____
ROOT
ATOM      1  C   UNL     1       6.947  -3.014   2.917  0.00  0.00    +0.000 A 
ATOM      2  C   UNL     1       6.733  -4.372   2.720  0.00  0.00    +0.000 A 
ATOM      3  N   UNL     1       7.030  -5.320   3.634  0.00  0.00    +0.000 NA
ATOM      4  C   UNL     1       7.570  -4.884   4.793  0.00  0.00    +0.000 A 
ATOM      5  C   UNL     1       7.828  -3.552   5.109  0.00  0.00    +0.000 A 
ATOM      6  C   UNL     1       7.513  -2.607   4.134  0.00  0.00    +0.000 A 
ENDROOT
BRANCH   5   7
ATOM      7  C   UNL     1       8.466  -3.208   6.388  0.00  0.00    +0.000 C 
ATOM      8  C   UNL     1       8.302  -2.044   7.041  0.00  0.00    +0.000 C 
BRANCH   8   9
ATOM      9  C   UNL     1       8.974  -1.719   8.309  0.00  0.00    +0.000 A 
ATOM     10  C   UNL     1      10.229  -2.231   8.649  0.00  0.00    +0.000 A 
ATOM     11  C   UNL     1      10.843  -1.845   9.839  0.00  0.00    +0.000 A 
ATOM     12  C   UNL     1      10.183  -0.942  10.659  0.00  0.00    +0.000 A 
ATOM     13  N   UNL     1       8.959  -0.413  10.369  0.00  0.00    +0.000 NA
ATOM     14  C   UNL     1       8.396  -0.813   9.202  0.00  0.00    +0.000 A 
BRANCH  12  15
ATOM     15  C   UNL     1      10.831  -0.500  11.931  0.00  0.00    +0.000 C 
ATOM     16  N   UNL     1      10.110   0.393  12.682  0.00  0.00    +0.000 N 
ATOM     17  O   UNL     1      11.930  -0.898  12.293  0.00  0.00    +0.000 OA
ATOM     18  H   UNL     1       9.207   0.714  12.349  0.00  0.00    +0.000 HD
ATOM     19  H   UNL     1      10.499   0.745  13.543  0.00  0.00    +0.000 HD
ENDBRANCH  12  15
ENDBRANCH   8   9
ENDBRANCH   5   7
BRANCH   1  20
ATOM     20  C   UNL     1       6.521  -2.015   1.886  0.00  0.00    +0.000 C 
BRANCH  20  21
ATOM     21  N   UNL     1       7.651  -1.247   1.366  0.00  0.00    +0.000 NA
ATOM     22  H   UNL     1       8.064  -0.723   2.141  0.00  0.00    +0.000 HD
BRANCH  21  23
ATOM     23  C   UNL     1       7.198  -0.255   0.380  0.00  0.00    +0.000 C 
BRANCH  23  24
ATOM     24  C   UNL     1       6.256   0.830   0.965  0.00  0.00    +0.000 C 
BRANCH  24  26
ATOM     25  C   UNL     1       8.002   2.308   1.756  0.00  0.00    +0.000 C 
ATOM     26  N   UNL     1       6.824   1.525   2.143  0.00  0.00    +0.000 NA
ATOM     27  C   UNL     1       5.819   2.417   2.731  0.00  0.00    +0.000 C 
ENDBRANCH  24  26
ENDBRANCH  23  24
ENDBRANCH  21  23
ENDBRANCH  20  21
ENDBRANCH   1  20
TORSDOF 8
