REMARK  Name = 
REMARK  6 active torsions:
REMARK  status: ('A' for Active; 'I' for Inactive)
REMARK    1  A    between atoms: C_1  and  C_2
REMARK    2  A    between atoms: C_2  and  N_3
REMARK    3  A    between atoms: C_2  and  C_16
REMARK    4  A    between atoms: C_4  and  C_6
REMARK    5  A    between atoms: C_19  and  O_20
REMARK    6  A    between atoms: O_20  and  C_21
REMARK                            x       y       z     vdW  Elec       q    Type
REMARK                         _______ _______ _______ _____ _____    ______ ____
ROOT
ATOM      1  C   UNL     1       3.211   0.659  -1.175  0.00  0.00    +0.000 C 
ATOM      2  C   UNL     1       2.447   0.046   0.003  0.00  0.00    +0.000 C 
ENDROOT
BRANCH   2   3
ATOM      3  C   UNL     1       2.971  -1.360   0.280  0.00  0.00    +0.000 A 
ATOM      4  C   UNL     1       4.054  -1.524   1.155  0.00  0.00    +0.000 A 
ATOM      5  C   UNL     1       4.554  -2.795   1.453  0.00  0.00    +0.000 A 
ATOM      6  C   UNL     1       3.989  -3.936   0.889  0.00  0.00    +0.000 A 
ATOM      7  C   UNL     1       2.931  -3.783  -0.010  0.00  0.00    +0.000 A 
ATOM      8  C   UNL     1       2.435  -2.509  -0.327  0.00  0.00    +0.000 A 
BRANCH   6   9
ATOM      9  O   UNL     1       4.378  -5.227   1.132  0.00  0.00    +0.000 OA
BRANCH   9  10
ATOM     10  C   UNL     1       5.451  -5.459   2.060  0.00  0.00    +0.000 C 
ATOM     11  C   UNL     1       6.069  -6.826   1.743  0.00  0.00    +0.000 C 
ATOM     12  C   UNL     1       7.034  -7.260   2.835  0.00  0.00    +0.000 C 
ATOM     13  O   UNL     1       6.395  -7.243   4.109  0.00  0.00    +0.000 OA
ATOM     14  C   UNL     1       5.987  -5.929   4.477  0.00  0.00    +0.000 C 
ATOM     15  C   UNL     1       4.944  -5.403   3.506  0.00  0.00    +0.000 C 
ENDBRANCH   9  10
ENDBRANCH   6   9
ENDBRANCH   2   3
BRANCH   2  16
ATOM     16  N   UNL     1       1.010   0.046  -0.213  0.00  0.00    +0.000 N 
ATOM     17  C   UNL     1       0.281   1.202  -0.353  0.00  0.00    +0.000 C 
ATOM     18  O   UNL     1       0.787   2.317  -0.365  0.00  0.00    +0.000 OA
ATOM     19  H   UNL     1       0.512  -0.774   0.117  0.00  0.00    +0.000 HD
BRANCH  17  20
ATOM     20  C   UNL     1      -1.160   1.026  -0.557  0.00  0.00    +0.000 A 
ATOM     21  C   UNL     1      -1.870   1.951  -1.311  0.00  0.00    +0.000 A 
ATOM     22  S   UNL     1      -3.533   1.597  -1.437  0.00  0.00    +0.000 S 
ATOM     23  C   UNL     1      -3.367   0.214  -0.462  0.00  0.00    +0.000 A 
ATOM     24  N   UNL     1      -4.446  -0.545  -0.134  0.00  0.00    +0.000 NA
ATOM     25  C   UNL     1      -4.182  -1.550   0.636  0.00  0.00    +0.000 A 
ATOM     26  N   UNL     1      -2.929  -1.874   1.094  0.00  0.00    +0.000 N 
ATOM     27  C   UNL     1      -1.805  -1.159   0.753  0.00  0.00    +0.000 A 
ATOM     28  O   UNL     1      -0.688  -1.519   1.109  0.00  0.00    +0.000 OA
ATOM     29  C   UNL     1      -2.055   0.005  -0.072  0.00  0.00    +0.000 A 
ATOM     30  H   UNL     1      -2.786  -2.691   1.668  0.00  0.00    +0.000 HD
ENDBRANCH  17  20
ENDBRANCH   2  16
TORSDOF 5
