REMARK  Name = 
REMARK  8 active torsions:
REMARK  status: ('A' for Active; 'I' for Inactive)
REMARK    1  A    between atoms: N_1  and  C_2
REMARK    2  A    between atoms: C_2  and  C_3
REMARK    3  A    between atoms: C_3  and  N_4
REMARK    4  A    between atoms: C_3  and  C_11
REMARK    5  A    between atoms: C_5  and  C_7
REMARK    6  A    between atoms: C_14  and  C_15
REMARK    7  A    between atoms: C_15  and  N_16
REMARK    8  A    between atoms: C_17  and  C_19
REMARK                            x       y       z     vdW  Elec       q    Type
REMARK                         _______ _______ _______ _____ _____    ______ ____
ROOT
ATOM      1  C   UNL     1       4.579   1.135  -0.982  0.00  0.00    +0.000 A 
ATOM      2  C   UNL     1       5.295   2.185  -0.408  0.00  0.00    +0.000 A 
ATOM      3  C   UNL     1       6.692   2.176  -0.461  0.00  0.00    +0.000 A 
ATOM      4  C   UNL     1       7.360   1.125  -1.088  0.00  0.00    +0.000 A 
ATOM      5  C   UNL     1       6.574   0.112  -1.619  0.00  0.00    +0.000 A 
ATOM      6  N   UNL     1       5.221   0.089  -1.570  0.00  0.00    +0.000 NA
ENDROOT
BRANCH   1   7
ATOM      7  C   UNL     1       3.056   1.021  -0.885  0.00  0.00    +0.000 C 
BRANCH   7   8
ATOM      8  N   UNL     1       2.709   0.187   0.272  0.00  0.00    +0.000 N 
ATOM      9  C   UNL     1       1.556  -0.554   0.329  0.00  0.00    +0.000 C 
ATOM     10  O   UNL     1       0.687  -0.556  -0.532  0.00  0.00    +0.000 OA
ATOM     11  H   UNL     1       3.402   0.091   1.000  0.00  0.00    +0.000 HD
BRANCH   9  12
ATOM     12  C   UNL     1       1.457  -1.411   1.532  0.00  0.00    +0.000 C 
ATOM     13  C   UNL     1       1.450  -2.914   1.352  0.00  0.00    +0.000 C 
ATOM     14  C   UNL     1       0.219  -2.206   1.817  0.00  0.00    +0.000 C 
ATOM     15  F   UNL     1      -0.126  -2.380   3.148  0.00  0.00    +0.000 F 
ENDBRANCH   9  12
ENDBRANCH   7   8
BRANCH   7  16
ATOM     16  C   UNL     1       2.271   2.364  -0.816  0.00  0.00    +0.000 C 
BRANCH  16  17
ATOM     17  N   UNL     1       2.461   3.267  -1.956  0.00  0.00    +0.000 NA
ATOM     18  H   UNL     1       1.955   4.135  -1.784  0.00  0.00    +0.000 HD
ATOM     19  H   UNL     1       2.021   2.853  -2.780  0.00  0.00    +0.000 HD
ENDBRANCH  16  17
ENDBRANCH   7  16
ENDBRANCH   1   7
BRANCH   4  20
ATOM     20  C   UNL     1       8.858   1.036  -1.113  0.00  0.00    +0.000 C 
BRANCH  20  21
ATOM     21  N   UNL     1       9.336   0.307   0.037  0.00  0.00    +0.000 N 
ATOM     22  C   UNL     1      10.671   0.173   0.315  0.00  0.00    +0.000 C 
ATOM     23  O   UNL     1      11.536   0.714  -0.368  0.00  0.00    +0.000 OA
ATOM     24  H   UNL     1       8.677  -0.323   0.483  0.00  0.00    +0.000 HD
BRANCH  22  25
ATOM     25  C   UNL     1      11.008  -0.604   1.515  0.00  0.00    +0.000 A 
ATOM     26  C   UNL     1      12.231  -0.407   2.141  0.00  0.00    +0.000 A 
ATOM     27  S   UNL     1      12.437  -1.345   3.552  0.00  0.00    +0.000 S 
ATOM     28  C   UNL     1      10.918  -2.087   3.347  0.00  0.00    +0.000 A 
ATOM     29  N   UNL     1      10.480  -3.030   4.224  0.00  0.00    +0.000 NA
ATOM     30  C   UNL     1       9.326  -3.534   3.927  0.00  0.00    +0.000 A 
ATOM     31  N   UNL     1       8.571  -3.177   2.843  0.00  0.00    +0.000 N 
ATOM     32  C   UNL     1       8.957  -2.200   1.955  0.00  0.00    +0.000 A 
ATOM     33  O   UNL     1       8.229  -1.858   1.031  0.00  0.00    +0.000 OA
ATOM     34  C   UNL     1      10.256  -1.614   2.228  0.00  0.00    +0.000 A 
ATOM     35  H   UNL     1       7.671  -3.603   2.678  0.00  0.00    +0.000 HD
ENDBRANCH  22  25
ENDBRANCH  20  21
ENDBRANCH   4  20
TORSDOF 8
