REMARK  Name = 
REMARK  5 active torsions:
REMARK  status: ('A' for Active; 'I' for Inactive)
REMARK    1  A    between atoms: C_2  and  C_20
REMARK    2  A    between atoms: N_3  and  C_4
REMARK    3  A    between atoms: C_4  and  C_5
REMARK    4  A    between atoms: C_8  and  C_9
REMARK    5  A    between atoms: C_9  and  C_12
REMARK                            x       y       z     vdW  Elec       q    Type
REMARK                         _______ _______ _______ _____ _____    ______ ____
ROOT
ATOM      1  C   UNL     1       2.378   2.268  -0.489  0.00  0.00    +0.000 C 
ENDROOT
BRANCH   1   2
ATOM      2  C   UNL     1       3.330   3.411  -0.753  0.00  0.00    +0.000 A 
ATOM      3  C   UNL     1       2.820   4.714  -0.802  0.00  0.00    +0.000 A 
ATOM      4  C   UNL     1       3.660   5.816  -0.997  0.00  0.00    +0.000 A 
ATOM      5  C   UNL     1       5.048   5.640  -1.121  0.00  0.00    +0.000 A 
ATOM      6  C   UNL     1       5.554   4.331  -1.101  0.00  0.00    +0.000 A 
ATOM      7  C   UNL     1       4.706   3.227  -0.940  0.00  0.00    +0.000 A 
BRANCH   5   8
ATOM      8  C   UNL     1       6.020   6.816  -1.250  0.00  0.00    +0.000 C 
ATOM      9  F   UNL     1       5.521   7.925  -0.607  0.00  0.00    +0.000 F 
ATOM     10  F   UNL     1       7.175   6.546  -0.556  0.00  0.00    +0.000 F 
BRANCH   8  11
ATOM     11  C   UNL     1       6.330   7.138  -2.714  0.00  0.00    +0.000 A 
ATOM     12  C   UNL     1       5.551   8.083  -3.375  0.00  0.00    +0.000 A 
ATOM     13  N   UNL     1       5.695   8.373  -4.691  0.00  0.00    +0.000 NA
ATOM     14  C   UNL     1       6.669   7.692  -5.333  0.00  0.00    +0.000 A 
ATOM     15  C   UNL     1       7.483   6.781  -4.684  0.00  0.00    +0.000 A 
ATOM     16  N   UNL     1       7.333   6.478  -3.372  0.00  0.00    +0.000 NA
ENDBRANCH   8  11
ENDBRANCH   5   8
ENDBRANCH   1   2
BRANCH   1  19
ATOM     17  O   UNL     1      -0.022   3.083  -1.779  0.00  0.00    +0.000 OA
ATOM     18  C   UNL     1       0.661   2.187  -2.260  0.00  0.00    +0.000 C 
ATOM     19  N   UNL     1       1.808   1.715  -1.684  0.00  0.00    +0.000 N 
ATOM     20  H   UNL     1       2.417   1.106  -2.209  0.00  0.00    +0.000 HD
BRANCH  18  21
ATOM     21  C   UNL     1       0.276   1.501  -3.496  0.00  0.00    +0.000 A 
ATOM     22  C   UNL     1      -1.050   1.388  -3.890  0.00  0.00    +0.000 A 
ATOM     23  S   UNL     1      -1.233   0.542  -5.364  0.00  0.00    +0.000 S 
ATOM     24  C   UNL     1       0.451   0.330  -5.520  0.00  0.00    +0.000 A 
ATOM     25  N   UNL     1       0.993  -0.311  -6.584  0.00  0.00    +0.000 NA
ATOM     26  C   UNL     1       2.280  -0.370  -6.576  0.00  0.00    +0.000 A 
ATOM     27  N   UNL     1       3.088   0.153  -5.589  0.00  0.00    +0.000 N 
ATOM     28  C   UNL     1       2.585   0.729  -4.475  0.00  0.00    +0.000 A 
ATOM     29  O   UNL     1       3.334   1.024  -3.547  0.00  0.00    +0.000 OA
ATOM     30  C   UNL     1       1.143   0.872  -4.455  0.00  0.00    +0.000 A 
ATOM     31  H   UNL     1       4.086   0.017  -5.608  0.00  0.00    +0.000 HD
ENDBRANCH  18  21
ENDBRANCH   1  19
TORSDOF 5
