REMARK  Name = 
REMARK  6 active torsions:
REMARK  status: ('A' for Active; 'I' for Inactive)
REMARK    1  A    between atoms: C_1  and  O_2
REMARK    2  A    between atoms: O_2  and  C_3
REMARK    3  A    between atoms: N_6  and  C_7
REMARK    4  A    between atoms: C_7  and  C_8
REMARK    5  A    between atoms: C_12  and  C_13
REMARK    6  A    between atoms: C_22  and  C_23
REMARK                            x       y       z     vdW  Elec       q    Type
REMARK                         _______ _______ _______ _____ _____    ______ ____
ROOT
ATOM      1  C   UNL     1       4.144   0.768   0.552  0.00  0.00    +0.000 A 
ATOM      2  N   UNL     1       4.645   1.036  -0.678  0.00  0.00    +0.000 NA
ATOM      3  C   UNL     1       5.338   2.165  -0.833  0.00  0.00    +0.000 A 
ATOM      4  N   UNL     1       6.011   2.287  -2.022  0.00  0.00    +0.000 N 
ATOM      5  N   UNL     1       5.471   3.083   0.128  0.00  0.00    +0.000 NA
ATOM      6  C   UNL     1       4.923   2.798   1.333  0.00  0.00    +0.000 A 
ATOM      7  C   UNL     1       4.264   1.626   1.624  0.00  0.00    +0.000 A 
ATOM      8  H   UNL     1       5.578   1.751  -2.761  0.00  0.00    +0.000 HD
ENDROOT
BRANCH   7   9
ATOM      9  C   UNL     1       3.819   1.395   3.015  0.00  0.00    +0.000 C 
ATOM     10  N   UNL     1       3.148   0.245   3.313  0.00  0.00    +0.000 N 
ATOM     11  O   UNL     1       4.062   2.213   3.895  0.00  0.00    +0.000 OA
ATOM     12  H   UNL     1       2.948  -0.468   2.621  0.00  0.00    +0.000 HD
ATOM     13  H   UNL     1       2.894   0.077   4.277  0.00  0.00    +0.000 HD
ENDBRANCH   7   9
BRANCH   1  15
ATOM     14  C   UNL     1       3.582  -1.291  -0.424  0.00  0.00    +0.000 C 
ATOM     15  O   UNL     1       3.507  -0.448   0.728  0.00  0.00    +0.000 OA
ENDBRANCH   1  15
BRANCH   4  16
ATOM     16  C   UNL     1       6.678   3.520  -2.351  0.00  0.00    +0.000 C 
BRANCH  16  17
ATOM     17  C   UNL     1       7.807   3.242  -3.312  0.00  0.00    +0.000 A 
ATOM     18  C   UNL     1       7.919   3.927  -4.512  0.00  0.00    +0.000 A 
ATOM     19  N   UNL     1       8.946   3.767  -5.375  0.00  0.00    +0.000 NA
ATOM     20  C   UNL     1       9.909   2.879  -5.024  0.00  0.00    +0.000 A 
ATOM     21  C   UNL     1       9.914   2.111  -3.857  0.00  0.00    +0.000 A 
ATOM     22  C   UNL     1       8.825   2.325  -2.996  0.00  0.00    +0.000 A 
BRANCH  21  23
ATOM     23  C   UNL     1      10.982   1.138  -3.551  0.00  0.00    +0.000 A 
ATOM     24  C   UNL     1      11.386   0.850  -2.237  0.00  0.00    +0.000 A 
ATOM     25  C   UNL     1      12.378  -0.098  -1.985  0.00  0.00    +0.000 A 
ATOM     26  C   UNL     1      12.964  -0.738  -3.061  0.00  0.00    +0.000 A 
ATOM     27  N   UNL     1      12.627  -0.495  -4.342  0.00  0.00    +0.000 NA
ATOM     28  C   UNL     1      11.651   0.425  -4.551  0.00  0.00    +0.000 A 
ENDBRANCH  21  23
ENDBRANCH  16  17
ENDBRANCH   4  16
TORSDOF 5
