REMARK  Name = 
REMARK  10 active torsions:
REMARK  status: ('A' for Active; 'I' for Inactive)
REMARK    1  A    between atoms: C_1  and  C_2
REMARK    2  A    between atoms: C_2  and  O_3
REMARK    3  A    between atoms: O_3  and  C_4
REMARK    4  A    between atoms: C_6  and  C_7
REMARK    5  A    between atoms: C_7  and  C_8
REMARK    6  A    between atoms: C_8  and  N_9
REMARK    7  A    between atoms: C_13  and  C_14
REMARK    8  A    between atoms: C_20  and  C_21
REMARK    9  A    between atoms: C_21  and  C_22
REMARK   10  A    between atoms: C_28  and  O_29
REMARK                            x       y       z     vdW  Elec       q    Type
REMARK                         _______ _______ _______ _____ _____    ______ ____
ROOT
ATOM      1  C   UNL     1       3.976  -0.056  -2.100  0.00  0.00    +0.000 A 
ATOM      2  C   UNL     1       4.757  -1.182  -1.795  0.00  0.00    +0.000 A 
ATOM      3  C   UNL     1       6.060  -1.317  -2.321  0.00  0.00    +0.000 A 
ATOM      4  C   UNL     1       6.528  -0.321  -3.194  0.00  0.00    +0.000 A 
ATOM      5  C   UNL     1       5.733   0.762  -3.559  0.00  0.00    +0.000 A 
ATOM      6  C   UNL     1       4.475   0.897  -2.974  0.00  0.00    +0.000 A 
ENDROOT
BRANCH   1   7
ATOM      7  O   UNL     1       2.716   0.048  -1.555  0.00  0.00    +0.000 OA
BRANCH   7   9
ATOM      8  C   UNL     1       3.197   1.853   0.061  0.00  0.00    +0.000 C 
ATOM      9  C   UNL     1       2.263   1.351  -1.045  0.00  0.00    +0.000 C 
ATOM     10  C   UNL     1       1.805   2.447  -2.063  0.00  0.00    +0.000 C 
ATOM     11  C   UNL     1       0.344   2.070  -1.816  0.00  0.00    +0.000 C 
ATOM     12  C   UNL     1       0.781   1.337  -0.540  0.00  0.00    +0.000 C 
BRANCH  11  13
ATOM     13  O   UNL     1      -0.295   1.277  -2.835  0.00  0.00    +0.000 OA
ATOM     14  H   UNL     1       0.106   0.390  -2.771  0.00  0.00    +0.000 HD
ENDBRANCH  11  13
ENDBRANCH   7   9
ENDBRANCH   1   7
BRANCH   3  15
ATOM     15  C   UNL     1       6.930  -2.530  -1.963  0.00  0.00    +0.000 C 
BRANCH  15  16
ATOM     16  C   UNL     1       8.354  -2.469  -2.556  0.00  0.00    +0.000 C 
BRANCH  16  17
ATOM     17  N   UNL     1       9.202  -3.628  -2.234  0.00  0.00    +0.000 N 
ATOM     18  C   UNL     1      10.483  -3.496  -2.813  0.00  0.00    +0.000 A 
ATOM     19  C   UNL     1      11.452  -4.492  -2.640  0.00  0.00    +0.000 A 
ATOM     20  N   UNL     1      12.717  -4.442  -3.156  0.00  0.00    +0.000 NA
ATOM     21  C   UNL     1      12.986  -3.313  -3.868  0.00  0.00    +0.000 A 
ATOM     22  C   UNL     1      12.050  -2.311  -4.052  0.00  0.00    +0.000 A 
ATOM     23  N   UNL     1      10.794  -2.387  -3.530  0.00  0.00    +0.000 NA
ATOM     24  H   UNL     1       8.786  -4.498  -2.545  0.00  0.00    +0.000 HD
BRANCH  21  25
ATOM     25  C   UNL     1      14.346  -3.143  -4.472  0.00  0.00    +0.000 C 
ATOM     26  N   UNL     1      15.232  -4.164  -4.230  0.00  0.00    +0.000 N 
ATOM     27  O   UNL     1      14.648  -2.160  -5.136  0.00  0.00    +0.000 OA
ATOM     28  H   UNL     1      14.962  -4.959  -3.665  0.00  0.00    +0.000 HD
ATOM     29  H   UNL     1      16.166  -4.091  -4.597  0.00  0.00    +0.000 HD
ENDBRANCH  21  25
ENDBRANCH  16  17
ENDBRANCH  15  16
ENDBRANCH   3  15
BRANCH   5  30
ATOM     30  C   UNL     1       6.186   1.734  -4.623  0.00  0.00    +0.000 C 
BRANCH  30  31
ATOM     31  C   UNL     1       6.281   3.199  -4.219  0.00  0.00    +0.000 C 
ATOM     32  F   UNL     1       6.057   3.415  -2.906  0.00  0.00    +0.000 F 
ATOM     33  F   UNL     1       7.507   3.692  -4.510  0.00  0.00    +0.000 F 
ATOM     34  F   UNL     1       5.376   3.934  -4.908  0.00  0.00    +0.000 F 
ENDBRANCH  30  31
ENDBRANCH   5  30
TORSDOF 9
