REMARK  Name = 
REMARK  5 active torsions:
REMARK  status: ('A' for Active; 'I' for Inactive)
REMARK    1  A    between atoms: N_1  and  C_2
REMARK    2  A    between atoms: C_2  and  C_3
REMARK    3  A    between atoms: C_5  and  C_6
REMARK    4  A    between atoms: C_6  and  N_7
REMARK    5  A    between atoms: C_9  and  C_10
REMARK                            x       y       z     vdW  Elec       q    Type
REMARK                         _______ _______ _______ _____ _____    ______ ____
ROOT
ATOM      1  N   UNL     1       3.859   4.567  -1.789  0.00  0.00    +0.000 N 
ATOM      2  C   UNL     1       4.121   5.367  -0.710  0.00  0.00    +0.000 A 
ATOM      3  C   UNL     1       5.384   5.927  -0.863  0.00  0.00    +0.000 A 
ATOM      4  C   UNL     1       5.980   5.255  -1.988  0.00  0.00    +0.000 A 
ATOM      5  C   UNL     1       7.230   5.245  -2.640  0.00  0.00    +0.000 A 
ATOM      6  C   UNL     1       7.401   4.425  -3.749  0.00  0.00    +0.000 A 
ATOM      7  C   UNL     1       6.327   3.661  -4.193  0.00  0.00    +0.000 A 
ATOM      8  N   UNL     1       5.102   3.650  -3.632  0.00  0.00    +0.000 NA
ATOM      9  C   UNL     1       4.994   4.434  -2.541  0.00  0.00    +0.000 A 
ENDROOT
BRANCH   3  10
ATOM     10  C   UNL     1       5.851   6.992   0.016  0.00  0.00    +0.000 C 
ATOM     11  N   UNL     1       6.992   7.649  -0.347  0.00  0.00    +0.000 N 
ATOM     12  O   UNL     1       5.234   7.365   1.010  0.00  0.00    +0.000 OA
ATOM     13  H   UNL     1       7.397   7.545  -1.262  0.00  0.00    +0.000 HD
ATOM     14  H   UNL     1       7.188   8.498   0.168  0.00  0.00    +0.000 HD
ENDBRANCH   3  10
BRANCH   1  15
ATOM     15  C   UNL     1       2.535   4.121  -2.179  0.00  0.00    +0.000 C 
BRANCH  15  18
ATOM     16  C   UNL     1       0.888   0.777  -2.285  0.00  0.00    +0.000 C 
ATOM     17  C   UNL     1       0.807   2.293  -2.312  0.00  0.00    +0.000 C 
ATOM     18  C   UNL     1       2.245   2.646  -1.971  0.00  0.00    +0.000 C 
ATOM     19  C   UNL     1       2.970   1.657  -2.871  0.00  0.00    +0.000 C 
ATOM     20  O   UNL     1       2.183   0.445  -2.839  0.00  0.00    +0.000 OA
BRANCH  16  21
ATOM     21  C   UNL     1      -0.228   0.045  -3.037  0.00  0.00    +0.000 C 
BRANCH  21  22
ATOM     22  N   UNL     1      -0.193   0.300  -4.480  0.00  0.00    +0.000 NA
ATOM     23  H   UNL     1      -0.731  -0.423  -4.956  0.00  0.00    +0.000 HD
ATOM     24  H   UNL     1       0.778   0.168  -4.781  0.00  0.00    +0.000 HD
ENDBRANCH  21  22
ENDBRANCH  16  21
ENDBRANCH  15  18
ENDBRANCH   1  15
TORSDOF 5
