REMARK  Name = 
REMARK  6 active torsions:
REMARK  status: ('A' for Active; 'I' for Inactive)
REMARK    1  A    between atoms: C_2  and  C_21
REMARK    2  A    between atoms: N_3  and  C_4
REMARK    3  A    between atoms: C_4  and  C_5
REMARK    4  A    between atoms: C_8  and  C_9
REMARK    5  A    between atoms: C_9  and  N_10
REMARK    6  A    between atoms: C_11  and  C_13
REMARK                            x       y       z     vdW  Elec       q    Type
REMARK                         _______ _______ _______ _____ _____    ______ ____
ROOT
ATOM      1  C   UNL     1       3.168  -3.499   0.888  0.00  0.00    +0.000 A 
ATOM      2  C   UNL     1       4.445  -3.227   1.397  0.00  0.00    +0.000 A 
ATOM      3  C   UNL     1       5.333  -4.268   1.696  0.00  0.00    +0.000 A 
ATOM      4  C   UNL     1       4.972  -5.603   1.474  0.00  0.00    +0.000 A 
ATOM      5  C   UNL     1       3.695  -5.875   0.964  0.00  0.00    +0.000 A 
ATOM      6  C   UNL     1       2.808  -4.834   0.664  0.00  0.00    +0.000 A 
ENDROOT
BRANCH   1   7
ATOM      7  C   UNL     1       2.207  -2.379   0.577  0.00  0.00    +0.000 C 
BRANCH   7  10
ATOM      8  O   UNL     1       0.549  -0.515  -0.650  0.00  0.00    +0.000 OA
ATOM      9  C   UNL     1       1.549  -0.890  -1.253  0.00  0.00    +0.000 C 
ATOM     10  N   UNL     1       2.397  -1.852  -0.752  0.00  0.00    +0.000 N 
ATOM     11  H   UNL     1       3.290  -2.022  -1.201  0.00  0.00    +0.000 HD
BRANCH   9  12
ATOM     12  C   UNL     1       1.897  -0.350  -2.558  0.00  0.00    +0.000 A 
ATOM     13  C   UNL     1       0.993   0.302  -3.381  0.00  0.00    +0.000 A 
ATOM     14  O   UNL     1       1.577   0.707  -4.538  0.00  0.00    +0.000 OA
ATOM     15  C   UNL     1       2.889   0.345  -4.476  0.00  0.00    +0.000 A 
ATOM     16  N   UNL     1       3.791   0.614  -5.452  0.00  0.00    +0.000 NA
ATOM     17  C   UNL     1       4.988   0.219  -5.166  0.00  0.00    +0.000 A 
ATOM     18  N   UNL     1       5.354  -0.425  -4.005  0.00  0.00    +0.000 N 
ATOM     19  C   UNL     1       4.459  -0.747  -3.010  0.00  0.00    +0.000 A 
ATOM     20  O   UNL     1       4.783  -1.363  -2.002  0.00  0.00    +0.000 OA
ATOM     21  C   UNL     1       3.119  -0.306  -3.279  0.00  0.00    +0.000 A 
ATOM     22  H   UNL     1       6.310  -0.711  -3.853  0.00  0.00    +0.000 HD
ENDBRANCH   9  12
ENDBRANCH   7  10
ENDBRANCH   1   7
BRANCH   4  23
ATOM     23  C   UNL     1       5.940  -6.725   1.750  0.00  0.00    +0.000 C 
BRANCH  23  24
ATOM     24  N   UNL     1       5.876  -7.208   3.108  0.00  0.00    +0.000 N 
ATOM     25  C   UNL     1       6.722  -8.212   3.533  0.00  0.00    +0.000 C 
ATOM     26  O   UNL     1       7.569  -8.721   2.800  0.00  0.00    +0.000 OA
ATOM     27  H   UNL     1       5.049  -7.049   3.676  0.00  0.00    +0.000 HD
BRANCH  25  28
ATOM     28  C   UNL     1       6.557  -8.640   5.008  0.00  0.00    +0.000 C 
ATOM     29  C   UNL     1       6.101 -10.101   5.094  0.00  0.00    +0.000 C 
ATOM     30  C   UNL     1       5.927 -10.539   6.546  0.00  0.00    +0.000 C 
ATOM     31  C   UNL     1       5.026  -9.565   7.298  0.00  0.00    +0.000 C 
ATOM     32  C   UNL     1       5.506  -8.125   7.134  0.00  0.00    +0.000 C 
ATOM     33  N   UNL     1       5.609  -7.743   5.721  0.00  0.00    +0.000 NA
ATOM     34  H   UNL     1       5.988  -6.794   5.675  0.00  0.00    +0.000 HD
ENDBRANCH  25  28
ENDBRANCH  23  24
ENDBRANCH   4  23
TORSDOF 6
