REMARK  Name = 
REMARK  8 active torsions:
REMARK  status: ('A' for Active; 'I' for Inactive)
REMARK    1  A    between atoms: C_2  and  C_21
REMARK    2  A    between atoms: N_3  and  C_4
REMARK    3  A    between atoms: C_4  and  C_5
REMARK    4  A    between atoms: C_8  and  C_9
REMARK    5  A    between atoms: C_9  and  N_10
REMARK    6  A    between atoms: N_10  and  C_11
REMARK    7  A    between atoms: C_11  and  C_12
REMARK    8  A    between atoms: C_15  and  O_16
REMARK                            x       y       z     vdW  Elec       q    Type
REMARK                         _______ _______ _______ _____ _____    ______ ____
ROOT
ATOM      1  C   UNL     1       1.479   6.830  -0.358  0.00  0.00    +0.000 A 
ATOM      2  C   UNL     1       1.599   6.709   1.033  0.00  0.00    +0.000 A 
ATOM      3  C   UNL     1       2.701   7.247   1.699  0.00  0.00    +0.000 A 
ATOM      4  C   UNL     1       3.697   7.928   0.990  0.00  0.00    +0.000 A 
ATOM      5  C   UNL     1       3.544   8.103  -0.393  0.00  0.00    +0.000 A 
ATOM      6  C   UNL     1       2.442   7.563  -1.061  0.00  0.00    +0.000 A 
ENDROOT
BRANCH   1   7
ATOM      7  C   UNL     1       0.337   6.171  -1.081  0.00  0.00    +0.000 C 
BRANCH   7  10
ATOM      8  O   UNL     1      -1.966   5.523  -2.436  0.00  0.00    +0.000 OA
ATOM      9  C   UNL     1      -1.943   6.584  -1.818  0.00  0.00    +0.000 C 
ATOM     10  N   UNL     1      -0.815   7.027  -1.173  0.00  0.00    +0.000 N 
ATOM     11  H   UNL     1      -0.886   7.784  -0.500  0.00  0.00    +0.000 HD
BRANCH   9  12
ATOM     12  C   UNL     1      -3.118   7.459  -1.767  0.00  0.00    +0.000 A 
ATOM     13  C   UNL     1      -4.070   7.389  -2.774  0.00  0.00    +0.000 A 
ATOM     14  S   UNL     1      -5.376   8.462  -2.553  0.00  0.00    +0.000 S 
ATOM     15  C   UNL     1      -4.736   9.023  -1.079  0.00  0.00    +0.000 A 
ATOM     16  N   UNL     1      -5.403   9.943  -0.332  0.00  0.00    +0.000 NA
ATOM     17  C   UNL     1      -4.817  10.249   0.776  0.00  0.00    +0.000 A 
ATOM     18  N   UNL     1      -3.622   9.734   1.201  0.00  0.00    +0.000 N 
ATOM     19  C   UNL     1      -2.891   8.834   0.459  0.00  0.00    +0.000 A 
ATOM     20  O   UNL     1      -1.790   8.448   0.838  0.00  0.00    +0.000 OA
ATOM     21  C   UNL     1      -3.523   8.427  -0.779  0.00  0.00    +0.000 A 
ATOM     22  H   UNL     1      -3.210  10.038   2.071  0.00  0.00    +0.000 HD
ENDBRANCH   9  12
ENDBRANCH   7  10
ENDBRANCH   1   7
BRANCH   4  23
ATOM     23  C   UNL     1       4.880   8.524   1.708  0.00  0.00    +0.000 C 
BRANCH  23  24
ATOM     24  N   UNL     1       5.698   7.527   2.422  0.00  0.00    +0.000 NA
ATOM     25  H   UNL     1       6.040   6.844   1.745  0.00  0.00    +0.000 HD
BRANCH  24  26
ATOM     26  C   UNL     1       6.820   8.232   3.040  0.00  0.00    +0.000 C 
BRANCH  26  27
ATOM     27  C   UNL     1       7.875   7.378   3.773  0.00  0.00    +0.000 C 
ATOM     28  C   UNL     1       8.930   8.366   4.310  0.00  0.00    +0.000 C 
ATOM     29  C   UNL     1      10.019   7.701   5.138  0.00  0.00    +0.000 C 
ATOM     30  C   UNL     1       9.443   6.854   6.268  0.00  0.00    +0.000 C 
ATOM     31  C   UNL     1       8.413   5.853   5.744  0.00  0.00    +0.000 C 
ATOM     32  C   UNL     1       7.305   6.511   4.907  0.00  0.00    +0.000 C 
BRANCH  30  33
ATOM     33  O   UNL     1       8.862   7.693   7.265  0.00  0.00    +0.000 OA
ATOM     34  H   UNL     1       8.069   8.113   6.898  0.00  0.00    +0.000 HD
ENDBRANCH  30  33
ENDBRANCH  26  27
ENDBRANCH  24  26
ENDBRANCH  23  24
ENDBRANCH   4  23
TORSDOF 8
