REMARK  Name = 
REMARK  6 active torsions:
REMARK  status: ('A' for Active; 'I' for Inactive)
REMARK    1  A    between atoms: N_1  and  C_2
REMARK    2  A    between atoms: C_2  and  C_3
REMARK    3  A    between atoms: C_3  and  C_4
REMARK    4  A    between atoms: C_4  and  C_5
REMARK    5  A    between atoms: C_8  and  C_9
REMARK    6  A    between atoms: C_9  and  N_10
REMARK                            x       y       z     vdW  Elec       q    Type
REMARK                         _______ _______ _______ _____ _____    ______ ____
ROOT
ATOM      1  C   UNL     1       4.763  -1.624   2.387  0.00  0.00    +0.000 C 
ATOM      2  C   UNL     1       4.538  -3.082   1.967  0.00  0.00    +0.000 C 
ATOM      3  C   UNL     1       4.922  -4.069   3.064  0.00  0.00    +0.000 C 
ATOM      4  C   UNL     1       4.208  -3.789   4.395  0.00  0.00    +0.000 C 
ATOM      5  C   UNL     1       4.437  -2.329   4.813  0.00  0.00    +0.000 C 
ATOM      6  C   UNL     1       4.050  -1.337   3.716  0.00  0.00    +0.000 C 
ENDROOT
BRANCH   1   7
ATOM      7  C   UNL     1       4.298  -0.692   1.248  0.00  0.00    +0.000 C 
BRANCH   7   8
ATOM      8  C   UNL     1       4.515   0.794   1.547  0.00  0.00    +0.000 C 
BRANCH   8   9
ATOM      9  C   UNL     1       4.084   1.671   0.373  0.00  0.00    +0.000 C 
BRANCH   9  10
ATOM     10  N   UNL     1       4.267   3.076   0.717  0.00  0.00    +0.000 NA
ATOM     11  H   UNL     1       4.046   3.656  -0.090  0.00  0.00    +0.000 HD
ATOM     12  H   UNL     1       5.245   3.251   0.940  0.00  0.00    +0.000 HD
ENDBRANCH   9  10
ENDBRANCH   8   9
ENDBRANCH   7   8
ENDBRANCH   1   7
BRANCH   4  13
ATOM     13  C   UNL     1       4.679  -4.729   5.526  0.00  0.00    +0.000 C 
BRANCH  13  14
ATOM     14  N   UNL     1       4.396  -6.139   5.287  0.00  0.00    +0.000 N 
ATOM     15  C   UNL     1       3.235  -6.762   5.667  0.00  0.00    +0.000 A 
ATOM     16  C   UNL     1       3.274  -8.055   5.197  0.00  0.00    +0.000 A 
ATOM     17  C   UNL     1       4.507  -8.230   4.514  0.00  0.00    +0.000 A 
ATOM     18  C   UNL     1       5.080  -9.302   3.802  0.00  0.00    +0.000 A 
ATOM     19  C   UNL     1       6.343  -9.133   3.236  0.00  0.00    +0.000 A 
ATOM     20  F   UNL     1       6.878 -10.135   2.525  0.00  0.00    +0.000 F 
ATOM     21  C   UNL     1       7.057  -7.953   3.384  0.00  0.00    +0.000 A 
ATOM     22  C   UNL     1       6.515  -6.883   4.101  0.00  0.00    +0.000 A 
ATOM     23  C   UNL     1       5.221  -7.033   4.632  0.00  0.00    +0.000 A 
ENDBRANCH  13  14
ENDBRANCH   4  13
TORSDOF 6
