REMARK  Name = 
REMARK  8 active torsions:
REMARK  status: ('A' for Active; 'I' for Inactive)
REMARK    1  A    between atoms: C_1  and  C_2
REMARK    2  A    between atoms: C_2  and  C_3
REMARK    3  A    between atoms: C_2  and  C_18
REMARK    4  A    between atoms: C_3  and  C_4
REMARK    5  A    between atoms: C_7  and  C_8
REMARK    6  A    between atoms: C_8  and  N_9
REMARK    7  A    between atoms: N_9  and  C_10
REMARK    8  A    between atoms: C_10  and  C_11
REMARK                            x       y       z     vdW  Elec       q    Type
REMARK                         _______ _______ _______ _____ _____    ______ ____
ROOT
ATOM      1  C   UNL     1       3.693  -5.282   1.340  0.00  0.00    +0.000 A 
ATOM      2  C   UNL     1       2.773  -5.694   2.306  0.00  0.00    +0.000 A 
ATOM      3  C   UNL     1       2.609  -4.949   3.468  0.00  0.00    +0.000 A 
ATOM      4  C   UNL     1       3.403  -3.822   3.668  0.00  0.00    +0.000 A 
ATOM      5  N   UNL     1       4.327  -3.415   2.760  0.00  0.00    +0.000 NA
ATOM      6  C   UNL     1       4.449  -4.146   1.628  0.00  0.00    +0.000 A 
ENDROOT
BRANCH   1   7
ATOM      7  C   UNL     1       3.848  -6.014   0.033  0.00  0.00    +0.000 C 
BRANCH   7   9
ATOM      8  C   UNL     1       1.968  -4.692  -1.105  0.00  0.00    +0.000 C 
ATOM      9  C   UNL     1       2.555  -6.086  -0.826  0.00  0.00    +0.000 C 
BRANCH   9  10
ATOM     10  C   UNL     1       2.809  -6.866  -2.112  0.00  0.00    +0.000 A 
ATOM     11  C   UNL     1       3.259  -6.310  -3.301  0.00  0.00    +0.000 A 
ATOM     12  S   UNL     1       3.490  -7.458  -4.544  0.00  0.00    +0.000 S 
ATOM     13  C   UNL     1       3.009  -8.738  -3.532  0.00  0.00    +0.000 A 
ATOM     14  N   UNL     1       3.013 -10.025  -3.974  0.00  0.00    +0.000 NA
ATOM     15  C   UNL     1       2.633 -10.889  -3.097  0.00  0.00    +0.000 A 
ATOM     16  N   UNL     1       2.228 -10.586  -1.818  0.00  0.00    +0.000 N 
ATOM     17  C   UNL     1       2.183  -9.300  -1.331  0.00  0.00    +0.000 A 
ATOM     18  O   UNL     1       1.782  -9.060  -0.197  0.00  0.00    +0.000 OA
ATOM     19  C   UNL     1       2.642  -8.292  -2.274  0.00  0.00    +0.000 A 
ATOM     20  H   UNL     1       1.924 -11.313  -1.189  0.00  0.00    +0.000 HD
ENDBRANCH   9  10
ENDBRANCH   7   9
ENDBRANCH   1   7
BRANCH   4  21
ATOM     21  C   UNL     1       3.231  -2.996   4.928  0.00  0.00    +0.000 C 
BRANCH  21  22
ATOM     22  N   UNL     1       2.904  -1.583   4.696  0.00  0.00    +0.000 NA
ATOM     23  H   UNL     1       3.646  -1.208   4.100  0.00  0.00    +0.000 HD
BRANCH  22  24
ATOM     24  C   UNL     1       1.623  -1.397   3.995  0.00  0.00    +0.000 C 
BRANCH  24  25
ATOM     25  C   UNL     1       1.376   0.121   3.778  0.00  0.00    +0.000 C 
ATOM     26  C   UNL     1       0.072   0.439   3.067  0.00  0.00    +0.000 C 
ATOM     27  C   UNL     1      -0.954   0.357   4.178  0.00  0.00    +0.000 C 
ATOM     28  C   UNL     1      -0.191   0.800   5.421  0.00  0.00    +0.000 C 
ATOM     29  N   UNL     1       1.227   0.848   5.053  0.00  0.00    +0.000 NA
ATOM     30  H   UNL     1       1.806   0.382   5.757  0.00  0.00    +0.000 HD
ENDBRANCH  24  25
ENDBRANCH  22  24
ENDBRANCH  21  22
ENDBRANCH   4  21
TORSDOF 7
