REMARK  Name = 
REMARK  8 active torsions:
REMARK  status: ('A' for Active; 'I' for Inactive)
REMARK    1  A    between atoms: C_2  and  C_21
REMARK    2  A    between atoms: N_3  and  C_4
REMARK    3  A    between atoms: C_4  and  C_5
REMARK    4  A    between atoms: C_8  and  C_9
REMARK    5  A    between atoms: C_9  and  O_10
REMARK    6  A    between atoms: C_9  and  C_11
REMARK    7  A    between atoms: C_11  and  C_12
REMARK    8  A    between atoms: C_12  and  N_13
REMARK                            x       y       z     vdW  Elec       q    Type
REMARK                         _______ _______ _______ _____ _____    ______ ____
ROOT
ATOM      1  C   UNL     1       3.072   0.565   3.500  0.00  0.00    +0.000 A 
ATOM      2  C   UNL     1       3.335   1.868   3.941  0.00  0.00    +0.000 A 
ATOM      3  C   UNL     1       4.123   2.094   5.075  0.00  0.00    +0.000 A 
ATOM      4  C   UNL     1       4.689   1.018   5.772  0.00  0.00    +0.000 A 
ATOM      5  C   UNL     1       4.419  -0.283   5.317  0.00  0.00    +0.000 A 
ATOM      6  C   UNL     1       3.642  -0.508   4.183  0.00  0.00    +0.000 A 
ENDROOT
BRANCH   1   7
ATOM      7  C   UNL     1       2.155   0.333   2.336  0.00  0.00    +0.000 C 
BRANCH   7  10
ATOM      8  O   UNL     1       0.905  -0.091  -0.077  0.00  0.00    +0.000 OA
ATOM      9  C   UNL     1       2.130   0.102  -0.077  0.00  0.00    +0.000 C 
ATOM     10  N   UNL     1       2.839   0.285   1.078  0.00  0.00    +0.000 N 
ATOM     11  H   UNL     1       3.760   0.721   1.031  0.00  0.00    +0.000 HD
BRANCH   9  12
ATOM     12  C   UNL     1       2.887   0.117  -1.320  0.00  0.00    +0.000 A 
ATOM     13  C   UNL     1       2.507  -0.625  -2.424  0.00  0.00    +0.000 A 
ATOM     14  S   UNL     1       3.533  -0.389  -3.772  0.00  0.00    +0.000 S 
ATOM     15  C   UNL     1       4.499   0.723  -2.916  0.00  0.00    +0.000 A 
ATOM     16  N   UNL     1       5.556   1.346  -3.497  0.00  0.00    +0.000 NA
ATOM     17  C   UNL     1       6.177   2.172  -2.722  0.00  0.00    +0.000 A 
ATOM     18  N   UNL     1       5.847   2.436  -1.422  0.00  0.00    +0.000 N 
ATOM     19  C   UNL     1       4.835   1.788  -0.775  0.00  0.00    +0.000 A 
ATOM     20  O   UNL     1       4.647   1.955   0.434  0.00  0.00    +0.000 OA
ATOM     21  C   UNL     1       4.071   0.880  -1.610  0.00  0.00    +0.000 A 
ATOM     22  H   UNL     1       6.399   3.057  -0.854  0.00  0.00    +0.000 HD
ENDBRANCH   9  12
ENDBRANCH   7  10
ENDBRANCH   1   7
BRANCH   4  23
ATOM     23  C   UNL     1       5.572   1.221   6.983  0.00  0.00    +0.000 C 
BRANCH  23  24
ATOM     24  O   UNL     1       4.737   1.249   8.148  0.00  0.00    +0.000 OA
ATOM     25  H   UNL     1       4.056   0.564   8.034  0.00  0.00    +0.000 HD
ENDBRANCH  23  24
BRANCH  23  26
ATOM     26  C   UNL     1       6.636   0.118   7.206  0.00  0.00    +0.000 C 
BRANCH  26  27
ATOM     27  C   UNL     1       7.624  -0.077   6.036  0.00  0.00    +0.000 C 
BRANCH  27  28
ATOM     28  N   UNL     1       8.584  -1.185   6.219  0.00  0.00    +0.000 NA
ATOM     29  C   UNL     1       9.505  -1.055   7.366  0.00  0.00    +0.000 C 
ATOM     30  C   UNL     1      10.736  -0.130   7.186  0.00  0.00    +0.000 C 
ATOM     31  N   UNL     1      11.452  -0.262   5.903  0.00  0.00    +0.000 NA
ATOM     32  C   UNL     1      10.523  -0.380   4.768  0.00  0.00    +0.000 C 
ATOM     33  C   UNL     1       9.389  -1.404   4.998  0.00  0.00    +0.000 C 
ATOM     34  H   UNL     1      12.003  -1.122   5.942  0.00  0.00    +0.000 HD
ENDBRANCH  27  28
ENDBRANCH  26  27
ENDBRANCH  23  26
ENDBRANCH   4  23
TORSDOF 8
