REMARK  Name = 
REMARK  4 active torsions:
REMARK  status: ('A' for Active; 'I' for Inactive)
REMARK    1  A    between atoms: C_9  and  C_10
REMARK    2  A    between atoms: C_10  and  O_11
REMARK    3  A    between atoms: C_12  and  C_13
REMARK    4  A    between atoms: C_13  and  O_14
REMARK                            x       y       z     vdW  Elec       q    Type
REMARK                         _______ _______ _______ _____ _____    ______ ____
ROOT
ATOM      1  N   UNL     1       1.073   0.297   0.319  0.00  0.00    +0.000 NA
ATOM      2  C   UNL     1       2.321   0.060   0.088  0.00  0.00    +0.000 C 
ATOM      3  N   UNL     1       2.948  -0.919   0.792  0.00  0.00    +0.000 N 
ATOM      4  N   UNL     1       3.119   0.716  -0.808  0.00  0.00    +0.000 N 
ATOM      5  C   UNL     1       4.243   0.092  -1.529  0.00  0.00    +0.000 C 
ATOM      6  C   UNL     1       4.849   1.143  -2.473  0.00  0.00    +0.000 C 
ATOM      7  C   UNL     1       3.724   2.111  -2.582  0.00  0.00    +0.000 A 
ATOM      8  C   UNL     1       3.604   3.182  -3.451  0.00  0.00    +0.000 A 
ATOM      9  C   UNL     1       2.484   4.035  -3.358  0.00  0.00    +0.000 A 
ATOM     10  C   UNL     1       1.504   3.778  -2.365  0.00  0.00    +0.000 A 
ATOM     11  C   UNL     1       1.670   2.673  -1.493  0.00  0.00    +0.000 A 
ATOM     12  C   UNL     1       2.771   1.838  -1.605  0.00  0.00    +0.000 A 
ATOM     13  H   UNL     1       0.713  -0.355   1.015  0.00  0.00    +0.000 HD
ATOM     14  H   UNL     1       2.444  -1.236   1.608  0.00  0.00    +0.000 HD
ATOM     15  H   UNL     1       3.896  -0.665   1.045  0.00  0.00    +0.000 HD
ENDROOT
BRANCH   9  16
ATOM     16  C   UNL     1       2.419   5.176  -4.347  0.00  0.00    +0.000 C 
BRANCH  16  17
ATOM     17  O   UNL     1       3.558   6.022  -4.213  0.00  0.00    +0.000 OA
ATOM     18  H   UNL     1       3.856   5.963  -3.289  0.00  0.00    +0.000 HD
ENDBRANCH  16  17
ENDBRANCH   9  16
BRANCH  10  19
ATOM     19  C   UNL     1       0.277   4.634  -2.142  0.00  0.00    +0.000 C 
BRANCH  19  20
ATOM     20  O   UNL     1      -0.923   3.896  -2.341  0.00  0.00    +0.000 OA
ATOM     21  H   UNL     1      -0.690   3.048  -2.756  0.00  0.00    +0.000 HD
ENDBRANCH  19  20
ENDBRANCH  10  19
TORSDOF 4
