REMARK  Name = 
REMARK  5 active torsions:
REMARK  status: ('A' for Active; 'I' for Inactive)
REMARK    1  A    between atoms: N_1  and  C_2
REMARK    2  A    between atoms: C_2  and  C_3
REMARK    3  A    between atoms: C_6  and  C_7
REMARK    4  A    between atoms: C_7  and  N_8
REMARK    5  A    between atoms: C_13  and  C_14
REMARK                            x       y       z     vdW  Elec       q    Type
REMARK                         _______ _______ _______ _____ _____    ______ ____
ROOT
ATOM      1  N   UNL     1       3.613   4.484   3.431  0.00  0.00    +0.000 N 
ATOM      2  C   UNL     1       4.439   5.578   3.545  0.00  0.00    +0.000 A 
ATOM      3  C   UNL     1       5.199   5.421   4.683  0.00  0.00    +0.000 A 
ATOM      4  C   UNL     1       4.748   4.246   5.334  0.00  0.00    +0.000 A 
ATOM      5  C   UNL     1       5.082   3.598   6.534  0.00  0.00    +0.000 A 
ATOM      6  C   UNL     1       4.352   2.461   6.888  0.00  0.00    +0.000 A 
ATOM      7  C   UNL     1       3.358   2.017   6.016  0.00  0.00    +0.000 A 
ATOM      8  N   UNL     1       3.021   2.585   4.826  0.00  0.00    +0.000 NA
ATOM      9  C   UNL     1       3.738   3.694   4.548  0.00  0.00    +0.000 A 
ENDROOT
BRANCH   6  10
ATOM     10  C   UNL     1       4.574   1.729   8.160  0.00  0.00    +0.000 C 
ATOM     11  N   UNL     1       5.534   2.180   9.018  0.00  0.00    +0.000 N 
ATOM     12  O   UNL     1       3.904   0.742   8.447  0.00  0.00    +0.000 OA
ATOM     13  H   UNL     1       6.119   2.989   8.874  0.00  0.00    +0.000 HD
ATOM     14  H   UNL     1       5.649   1.673   9.888  0.00  0.00    +0.000 HD
ENDBRANCH   6  10
BRANCH   1  15
ATOM     15  C   UNL     1       2.739   4.221   2.299  0.00  0.00    +0.000 C 
BRANCH  15  19
ATOM     16  C   UNL     1       2.953   1.488  -0.446  0.00  0.00    +0.000 C 
ATOM     17  C   UNL     1       3.890   1.584   0.771  0.00  0.00    +0.000 C 
ATOM     18  C   UNL     1       4.520   2.968   0.917  0.00  0.00    +0.000 C 
ATOM     19  C   UNL     1       3.485   4.110   0.948  0.00  0.00    +0.000 C 
ATOM     20  C   UNL     1       2.486   3.984  -0.216  0.00  0.00    +0.000 C 
ATOM     21  C   UNL     1       1.879   2.584  -0.339  0.00  0.00    +0.000 C 
BRANCH  16  22
ATOM     22  C   UNL     1       3.689   1.582  -1.801  0.00  0.00    +0.000 C 
BRANCH  22  23
ATOM     23  N   UNL     1       4.676   0.523  -1.980  0.00  0.00    +0.000 NA
ATOM     24  H   UNL     1       5.156   0.659  -2.867  0.00  0.00    +0.000 HD
ATOM     25  H   UNL     1       4.203  -0.378  -2.045  0.00  0.00    +0.000 HD
ENDBRANCH  22  23
ENDBRANCH  16  22
ENDBRANCH  15  19
ENDBRANCH   1  15
TORSDOF 5
