REMARK  Name = 
REMARK  4 active torsions:
REMARK  status: ('A' for Active; 'I' for Inactive)
REMARK    1  A    between atoms: C_2  and  C_4
REMARK    2  A    between atoms: N_8  and  C_9
REMARK    3  A    between atoms: C_9  and  C_10
REMARK    4  A    between atoms: C_15  and  C_16
REMARK                            x       y       z     vdW  Elec       q    Type
REMARK                         _______ _______ _______ _____ _____    ______ ____
ROOT
ATOM      1  C   UNL     1       4.984  -3.891  -4.566  0.00  0.00    +0.000 C 
ATOM      2  C   UNL     1       5.151  -2.991  -5.786  0.00  0.00    +0.000 C 
ATOM      3  C   UNL     1       3.813  -3.572  -5.476  0.00  0.00    +0.000 C 
ENDROOT
BRANCH   1   8
ATOM      4  C   UNL     1       3.045  -3.584   0.252  0.00  0.00    +0.000 A 
ATOM      5  C   UNL     1       2.349  -3.630  -0.954  0.00  0.00    +0.000 A 
ATOM      6  C   UNL     1       3.057  -3.544  -2.156  0.00  0.00    +0.000 A 
ATOM      7  C   UNL     1       4.439  -3.405  -2.130  0.00  0.00    +0.000 A 
ATOM      8  N   UNL     1       5.213  -3.215  -3.278  0.00  0.00    +0.000 N 
ATOM      9  N   UNL     1       5.122  -3.351  -0.967  0.00  0.00    +0.000 NA
ATOM     10  C   UNL     1       4.420  -3.434   0.193  0.00  0.00    +0.000 A 
ATOM     11  H   UNL     1       6.178  -3.201  -2.950  0.00  0.00    +0.000 HD
BRANCH   4  13
ATOM     12  N   UNL     1       1.177  -4.296   1.628  0.00  0.00    +0.000 N 
ATOM     13  C   UNL     1       2.381  -3.652   1.568  0.00  0.00    +0.000 C 
ATOM     14  O   UNL     1       2.900  -3.180   2.574  0.00  0.00    +0.000 OA
ATOM     15  H   UNL     1       0.780  -4.424   2.551  0.00  0.00    +0.000 HD
ATOM     16  H   UNL     1       0.851  -4.907   0.894  0.00  0.00    +0.000 HD
ENDBRANCH   4  13
ENDBRANCH   1   8
BRANCH   1  17
ATOM     17  C   UNL     1       5.568  -5.303  -4.623  0.00  0.00    +0.000 A 
ATOM     18  C   UNL     1       6.884  -5.538  -5.052  0.00  0.00    +0.000 A 
ATOM     19  C   UNL     1       7.423  -6.822  -5.053  0.00  0.00    +0.000 A 
ATOM     20  C   UNL     1       6.653  -7.898  -4.617  0.00  0.00    +0.000 A 
ATOM     21  F   UNL     1       7.219  -9.112  -4.638  0.00  0.00    +0.000 F 
ATOM     22  C   UNL     1       5.331  -7.734  -4.177  0.00  0.00    +0.000 A 
ATOM     23  C   UNL     1       4.817  -6.419  -4.196  0.00  0.00    +0.000 A 
BRANCH  22  24
ATOM     24  C   UNL     1       4.517  -8.868  -3.700  0.00  0.00    +0.000 A 
ATOM     25  C   UNL     1       5.034  -9.951  -3.004  0.00  0.00    +0.000 A 
ATOM     26  N   UNL     1       4.309 -10.997  -2.543  0.00  0.00    +0.000 NA
ATOM     27  C   UNL     1       2.996 -10.950  -2.798  0.00  0.00    +0.000 A 
ATOM     28  N   UNL     1       2.361  -9.970  -3.453  0.00  0.00    +0.000 NA
ATOM     29  C   UNL     1       3.145  -8.958  -3.891  0.00  0.00    +0.000 A 
ENDBRANCH  22  24
ENDBRANCH   1  17
TORSDOF 4
