REMARK  Name = 
REMARK  6 active torsions:
REMARK  status: ('A' for Active; 'I' for Inactive)
REMARK    1  A    between atoms: C_1  and  C_2
REMARK    2  A    between atoms: C_2  and  N_3
REMARK    3  A    between atoms: C_2  and  C_14
REMARK    4  A    between atoms: C_4  and  C_6
REMARK    5  A    between atoms: C_17  and  C_18
REMARK    6  A    between atoms: C_18  and  C_19
REMARK                            x       y       z     vdW  Elec       q    Type
REMARK                         _______ _______ _______ _____ _____    ______ ____
ROOT
ATOM      1  C   UNL     1       1.187  -0.902  -0.770  0.00  0.00    +0.000 C 
ATOM      2  C   UNL     1       2.382  -0.251  -0.067  0.00  0.00    +0.000 C 
ENDROOT
BRANCH   2   3
ATOM      3  C   UNL     1       2.903   0.922  -0.886  0.00  0.00    +0.000 A 
ATOM      4  C   UNL     1       2.332   2.188  -0.671  0.00  0.00    +0.000 A 
ATOM      5  C   UNL     1       2.686   3.288  -1.457  0.00  0.00    +0.000 A 
ATOM      6  C   UNL     1       3.641   3.161  -2.473  0.00  0.00    +0.000 A 
ATOM      7  C   UNL     1       4.240   1.911  -2.672  0.00  0.00    +0.000 A 
ATOM      8  C   UNL     1       3.865   0.800  -1.899  0.00  0.00    +0.000 A 
BRANCH   6   9
ATOM      9  C   UNL     1       3.977   4.337  -3.366  0.00  0.00    +0.000 C 
BRANCH   9  10
ATOM     10  C   UNL     1       5.100   5.240  -2.903  0.00  0.00    +0.000 A 
ATOM     11  C   UNL     1       5.015   5.934  -1.696  0.00  0.00    +0.000 A 
ATOM     12  C   UNL     1       6.004   6.859  -1.372  0.00  0.00    +0.000 A 
ATOM     13  C   UNL     1       7.056   7.070  -2.254  0.00  0.00    +0.000 A 
ATOM     14  C   UNL     1       7.080   6.334  -3.424  0.00  0.00    +0.000 A 
ATOM     15  N   UNL     1       6.130   5.433  -3.768  0.00  0.00    +0.000 NA
ENDBRANCH   9  10
ENDBRANCH   6   9
ENDBRANCH   2   3
BRANCH   2  16
ATOM     16  N   UNL     1       3.399  -1.243   0.249  0.00  0.00    +0.000 N 
ATOM     17  C   UNL     1       3.365  -1.957   1.422  0.00  0.00    +0.000 C 
ATOM     18  O   UNL     1       2.534  -1.776   2.306  0.00  0.00    +0.000 OA
ATOM     19  H   UNL     1       4.053  -1.516  -0.478  0.00  0.00    +0.000 HD
BRANCH  17  20
ATOM     20  C   UNL     1       4.409  -2.988   1.573  0.00  0.00    +0.000 A 
ATOM     21  C   UNL     1       4.543  -3.698   2.713  0.00  0.00    +0.000 A 
ATOM     22  S   UNL     1       5.865  -4.875   2.653  0.00  0.00    +0.000 S 
ATOM     23  C   UNL     1       6.195  -4.355   1.035  0.00  0.00    +0.000 A 
ATOM     24  N   UNL     1       7.047  -4.684   0.109  0.00  0.00    +0.000 NA
ATOM     25  C   UNL     1       6.673  -3.834  -0.903  0.00  0.00    +0.000 A 
ATOM     26  N   UNL     1       5.643  -3.010  -0.641  0.00  0.00    +0.000 NA
ATOM     27  N   UNL     1       5.344  -3.365   0.633  0.00  0.00    +0.000 N 
ENDBRANCH  17  20
ENDBRANCH   2  16
TORSDOF 5
