REMARK  Name = 
REMARK  9 active torsions:
REMARK  status: ('A' for Active; 'I' for Inactive)
REMARK    1  A    between atoms: C_1  and  C_2
REMARK    2  A    between atoms: C_5  and  C_6
REMARK    3  A    between atoms: C_6  and  O_7
REMARK    4  A    between atoms: O_7  and  C_8
REMARK    5  A    between atoms: C_8  and  C_9
REMARK    6  A    between atoms: C_12  and  C_13
REMARK    7  A    between atoms: C_13  and  N_14
REMARK    8  A    between atoms: C_15  and  C_17
REMARK    9  A    between atoms: N_23  and  C_24
REMARK                            x       y       z     vdW  Elec       q    Type
REMARK                         _______ _______ _______ _____ _____    ______ ____
ROOT
ATOM      1  C   UNL     1      -5.928  -2.354  -0.000  0.00  0.00    +0.000 A 
ATOM      2  C   UNL     1      -5.109  -3.454  -0.262  0.00  0.00    +0.000 A 
ATOM      3  C   UNL     1      -5.620  -4.751  -0.191  0.00  0.00    +0.000 A 
ATOM      4  C   UNL     1      -6.971  -4.981   0.111  0.00  0.00    +0.000 A 
ATOM      5  C   UNL     1      -7.787  -3.867   0.355  0.00  0.00    +0.000 A 
ATOM      6  C   UNL     1      -7.280  -2.566   0.284  0.00  0.00    +0.000 A 
ENDROOT
BRANCH   1   7
ATOM      7  C   UNL     1      -5.370  -0.956  -0.074  0.00  0.00    +0.000 C 
BRANCH   7   8
ATOM      8  O   UNL     1      -4.825  -0.690  -1.368  0.00  0.00    +0.000 OA
BRANCH   8   9
ATOM      9  C   UNL     1      -5.806  -0.795  -2.401  0.00  0.00    +0.000 C 
BRANCH   9  14
ATOM     10  C   UNL     1      -3.584   0.001  -7.647  0.00  0.00    +0.000 C 
ATOM     11  C   UNL     1      -4.126  -0.163  -6.260  0.00  0.00    +0.000 A 
ATOM     12  C   UNL     1      -3.552   0.507  -5.187  0.00  0.00    +0.000 A 
ATOM     13  C   UNL     1      -4.088   0.319  -3.914  0.00  0.00    +0.000 A 
ATOM     14  C   UNL     1      -5.172  -0.541  -3.736  0.00  0.00    +0.000 A 
ATOM     15  C   UNL     1      -5.687  -1.151  -4.873  0.00  0.00    +0.000 A 
ATOM     16  N   UNL     1      -5.190  -0.987  -6.119  0.00  0.00    +0.000 NA
ENDBRANCH   9  14
ENDBRANCH   8   9
ENDBRANCH   7   8
ENDBRANCH   1   7
BRANCH   4  17
ATOM     17  C   UNL     1      -7.568  -6.373   0.131  0.00  0.00    +0.000 C 
BRANCH  17  18
ATOM     18  N   UNL     1      -7.540  -7.022   1.413  0.00  0.00    +0.000 N 
ATOM     19  C   UNL     1      -8.025  -8.277   1.628  0.00  0.00    +0.000 C 
ATOM     20  O   UNL     1      -8.574  -8.950   0.745  0.00  0.00    +0.000 OA
ATOM     21  H   UNL     1      -6.882  -6.658   2.094  0.00  0.00    +0.000 HD
BRANCH  19  22
ATOM     22  C   UNL     1      -7.884  -8.769   2.999  0.00  0.00    +0.000 A 
ATOM     23  C   UNL     1      -8.786  -9.655   3.569  0.00  0.00    +0.000 A 
ATOM     24  S   UNL     1      -8.374 -10.099   5.168  0.00  0.00    +0.000 S 
ATOM     25  C   UNL     1      -6.983  -9.120   5.142  0.00  0.00    +0.000 A 
ATOM     26  N   UNL     1      -6.154  -9.050   6.210  0.00  0.00    +0.000 NA
ATOM     27  C   UNL     1      -5.141  -8.258   6.054  0.00  0.00    +0.000 A 
ATOM     28  N   UNL     1      -4.873  -7.512   4.927  0.00  0.00    +0.000 N 
ATOM     29  C   UNL     1      -3.731  -6.625   4.885  0.00  0.00    +0.000 C 
ATOM     30  C   UNL     1      -5.724  -7.527   3.816  0.00  0.00    +0.000 A 
ATOM     31  O   UNL     1      -5.545  -6.790   2.860  0.00  0.00    +0.000 OA
ATOM     32  C   UNL     1      -6.847  -8.439   3.949  0.00  0.00    +0.000 A 
ENDBRANCH  19  22
ENDBRANCH  17  18
ENDBRANCH   4  17
TORSDOF 7
