REMARK  Name = 
REMARK  8 active torsions:
REMARK  status: ('A' for Active; 'I' for Inactive)
REMARK    1  A    between atoms: C_1  and  O_2
REMARK    2  A    between atoms: O_2  and  C_3
REMARK    3  A    between atoms: C_10  and  C_11
REMARK    4  A    between atoms: N_13  and  C_14
REMARK    5  A    between atoms: C_14  and  C_15
REMARK    6  A    between atoms: C_18  and  N_19
REMARK    7  A    between atoms: N_19  and  C_20
REMARK    8  A    between atoms: C_20  and  C_21
REMARK                            x       y       z     vdW  Elec       q    Type
REMARK                         _______ _______ _______ _____ _____    ______ ____
ROOT
ATOM      1  C   UNL     1       2.993   1.968  -2.620  0.00  0.00    +0.000 C 
ENDROOT
BRANCH   1   2
ATOM      2  C   UNL     1       1.851   1.057  -2.980  0.00  0.00    +0.000 A 
ATOM      3  C   UNL     1       2.036  -0.324  -3.088  0.00  0.00    +0.000 A 
ATOM      4  C   UNL     1       0.968  -1.151  -3.463  0.00  0.00    +0.000 A 
ATOM      5  C   UNL     1      -0.303  -0.628  -3.727  0.00  0.00    +0.000 A 
ATOM      6  C   UNL     1      -0.454   0.759  -3.680  0.00  0.00    +0.000 A 
ATOM      7  C   UNL     1       0.603   1.593  -3.300  0.00  0.00    +0.000 A 
BRANCH   5   8
ATOM      8  N   UNL     1      -1.325  -1.489  -4.108  0.00  0.00    +0.000 N 
ATOM      9  H   UNL     1      -1.094  -2.473  -4.041  0.00  0.00    +0.000 HD
BRANCH   8  10
ATOM     10  C   UNL     1      -2.733  -1.159  -3.883  0.00  0.00    +0.000 C 
BRANCH  10  11
ATOM     11  C   UNL     1      -3.425  -2.197  -2.972  0.00  0.00    +0.000 C 
ATOM     12  C   UNL     1      -3.455  -3.617  -3.559  0.00  0.00    +0.000 C 
ATOM     13  C   UNL     1      -4.342  -3.676  -4.798  0.00  0.00    +0.000 C 
ATOM     14  C   UNL     1      -5.740  -3.137  -4.495  0.00  0.00    +0.000 C 
ATOM     15  N   UNL     1      -5.709  -1.802  -3.892  0.00  0.00    +0.000 NA
ATOM     16  C   UNL     1      -4.875  -1.760  -2.688  0.00  0.00    +0.000 C 
ATOM     17  H   UNL     1      -6.662  -1.525  -3.652  0.00  0.00    +0.000 HD
ENDBRANCH  10  11
ENDBRANCH   8  10
ENDBRANCH   5   8
ENDBRANCH   1   2
BRANCH   1  20
ATOM     18  C   UNL     1       4.805   3.174  -3.763  0.00  0.00    +0.000 C 
ATOM     19  O   UNL     1       5.246   3.594  -2.695  0.00  0.00    +0.000 OA
ATOM     20  N   UNL     1       3.700   2.374  -3.807  0.00  0.00    +0.000 N 
ATOM     21  H   UNL     1       3.310   2.095  -4.697  0.00  0.00    +0.000 HD
BRANCH  18  29
ATOM     22  C   UNL     1       4.199   2.259  -7.029  0.00  0.00    +0.000 A 
ATOM     23  N   UNL     1       4.200   2.062  -8.362  0.00  0.00    +0.000 NA
ATOM     24  C   UNL     1       5.144   2.671  -9.087  0.00  0.00    +0.000 A 
ATOM     25  N   UNL     1       6.108   3.469  -8.638  0.00  0.00    +0.000 NA
ATOM     26  C   UNL     1       6.067   3.644  -7.306  0.00  0.00    +0.000 A 
ATOM     27  S   UNL     1       7.223   4.639  -6.560  0.00  0.00    +0.000 S 
ATOM     28  C   UNL     1       6.551   4.354  -5.027  0.00  0.00    +0.000 A 
ATOM     29  C   UNL     1       5.448   3.508  -5.044  0.00  0.00    +0.000 A 
ATOM     30  C   UNL     1       5.155   3.089  -6.414  0.00  0.00    +0.000 A 
BRANCH  22  32
ATOM     31  C   UNL     1       2.638   0.516  -6.917  0.00  0.00    +0.000 C 
ATOM     32  O   UNL     1       3.200   1.666  -6.287  0.00  0.00    +0.000 OA
ENDBRANCH  22  32
ENDBRANCH  18  29
ENDBRANCH   1  20
TORSDOF 7
