REMARK  Name = 
REMARK  9 active torsions:
REMARK  status: ('A' for Active; 'I' for Inactive)
REMARK    1  A    between atoms: C_1  and  C_2
REMARK    2  A    between atoms: C_2  and  C_3
REMARK    3  A    between atoms: C_2  and  C_4
REMARK    4  A    between atoms: C_2  and  C_5
REMARK    5  A    between atoms: N_7  and  C_8
REMARK    6  A    between atoms: C_8  and  C_9
REMARK    7  A    between atoms: C_12  and  C_13
REMARK    8  A    between atoms: C_13  and  C_14
REMARK    9  A    between atoms: C_14  and  N_15
REMARK                            x       y       z     vdW  Elec       q    Type
REMARK                         _______ _______ _______ _____ _____    ______ ____
ROOT
ATOM      1  C   UNL     1       3.074  -0.410   1.247  0.00  0.00    +0.000 A 
ATOM      2  C   UNL     1       3.648   0.386   2.227  0.00  0.00    +0.000 A 
ATOM      3  N   UNL     1       3.860  -0.363   3.357  0.00  0.00    +0.000 N 
ATOM      4  C   UNL     1       3.538  -1.679   3.112  0.00  0.00    +0.000 A 
ATOM      5  C   UNL     1       3.634  -2.818   3.932  0.00  0.00    +0.000 A 
ATOM      6  C   UNL     1       3.197  -4.043   3.425  0.00  0.00    +0.000 A 
ATOM      7  C   UNL     1       2.677  -4.135   2.144  0.00  0.00    +0.000 A 
ATOM      8  C   UNL     1       2.588  -2.997   1.336  0.00  0.00    +0.000 A 
ATOM      9  C   UNL     1       3.025  -1.740   1.809  0.00  0.00    +0.000 A 
ENDROOT
BRANCH   1  11
ATOM     10  C   UNL     1       2.820   1.577  -0.322  0.00  0.00    +0.000 C 
ATOM     11  C   UNL     1       2.592   0.056  -0.133  0.00  0.00    +0.000 C 
ATOM     12  C   UNL     1       1.082  -0.205  -0.306  0.00  0.00    +0.000 C 
ATOM     13  C   UNL     1       3.352  -0.660  -1.267  0.00  0.00    +0.000 C 
ENDBRANCH   1  11
BRANCH   3  14
ATOM     14  C   UNL     1       4.335   0.188   4.626  0.00  0.00    +0.000 C 
BRANCH  14  15
ATOM     15  C   UNL     1       3.175   0.619   5.482  0.00  0.00    +0.000 A 
ATOM     16  C   UNL     1       2.558  -0.253   6.380  0.00  0.00    +0.000 A 
ATOM     17  C   UNL     1       1.385   0.132   7.030  0.00  0.00    +0.000 A 
ATOM     18  C   UNL     1       0.861   1.396   6.779  0.00  0.00    +0.000 A 
ATOM     19  N   UNL     1       1.479   2.283   5.966  0.00  0.00    +0.000 NA
ATOM     20  C   UNL     1       2.611   1.882   5.339  0.00  0.00    +0.000 A 
BRANCH  18  21
ATOM     21  C   UNL     1      -0.473   1.804   7.352  0.00  0.00    +0.000 C 
BRANCH  21  22
ATOM     22  C   UNL     1      -1.615   1.473   6.385  0.00  0.00    +0.000 C 
BRANCH  22  23
ATOM     23  N   UNL     1      -2.917   1.873   6.929  0.00  0.00    +0.000 NA
ATOM     24  H   UNL     1      -3.118   1.342   7.776  0.00  0.00    +0.000 HD
ATOM     25  H   UNL     1      -3.647   1.632   6.258  0.00  0.00    +0.000 HD
ENDBRANCH  22  23
ENDBRANCH  21  22
ENDBRANCH  18  21
ENDBRANCH  14  15
ENDBRANCH   3  14
TORSDOF 6
