REMARK  Name = 
REMARK  4 active torsions:
REMARK  status: ('A' for Active; 'I' for Inactive)
REMARK    1  A    between atoms: C_2  and  C_4
REMARK    2  A    between atoms: N_8  and  C_9
REMARK    3  A    between atoms: C_9  and  C_10
REMARK    4  A    between atoms: C_14  and  C_15
REMARK                            x       y       z     vdW  Elec       q    Type
REMARK                         _______ _______ _______ _____ _____    ______ ____
ROOT
ATOM      1  C   UNL     1       4.954  -2.679  -5.439  0.00  0.00    +0.000 C 
ATOM      2  C   UNL     1       5.094  -1.511  -6.409  0.00  0.00    +0.000 C 
ATOM      3  C   UNL     1       3.765  -2.162  -6.224  0.00  0.00    +0.000 C 
ENDROOT
BRANCH   1   8
ATOM      4  C   UNL     1       3.090  -3.577  -0.674  0.00  0.00    +0.000 A 
ATOM      5  C   UNL     1       2.382  -3.327  -1.846  0.00  0.00    +0.000 A 
ATOM      6  C   UNL     1       3.077  -2.942  -2.994  0.00  0.00    +0.000 A 
ATOM      7  C   UNL     1       4.459  -2.805  -2.949  0.00  0.00    +0.000 A 
ATOM      8  N   UNL     1       5.212  -2.327  -4.029  0.00  0.00    +0.000 N 
ATOM      9  N   UNL     1       5.156  -3.035  -1.816  0.00  0.00    +0.000 NA
ATOM     10  C   UNL     1       4.465  -3.409  -0.707  0.00  0.00    +0.000 A 
ATOM     11  H   UNL     1       6.184  -2.408  -3.730  0.00  0.00    +0.000 HD
BRANCH   4  13
ATOM     12  N   UNL     1       1.227  -4.597   0.504  0.00  0.00    +0.000 N 
ATOM     13  C   UNL     1       2.435  -3.965   0.590  0.00  0.00    +0.000 C 
ATOM     14  O   UNL     1       2.964  -3.756   1.677  0.00  0.00    +0.000 OA
ATOM     15  H   UNL     1       0.832  -4.942   1.370  0.00  0.00    +0.000 HD
ATOM     16  H   UNL     1       0.886  -5.004  -0.358  0.00  0.00    +0.000 HD
ENDBRANCH   4  13
ENDBRANCH   1   8
BRANCH   1  17
ATOM     17  C   UNL     1       5.544  -4.033  -5.829  0.00  0.00    +0.000 A 
ATOM     18  C   UNL     1       6.834  -4.143  -6.374  0.00  0.00    +0.000 A 
ATOM     19  C   UNL     1       7.413  -5.385  -6.624  0.00  0.00    +0.000 A 
ATOM     20  C   UNL     1       6.726  -6.552  -6.293  0.00  0.00    +0.000 A 
ATOM     21  C   UNL     1       5.445  -6.501  -5.719  0.00  0.00    +0.000 A 
ATOM     22  C   UNL     1       4.858  -5.232  -5.547  0.00  0.00    +0.000 A 
BRANCH  21  23
ATOM     23  C   UNL     1       4.771  -7.716  -5.217  0.00  0.00    +0.000 A 
ATOM     24  C   UNL     1       5.479  -8.736  -4.601  0.00  0.00    +0.000 A 
ATOM     25  C   UNL     1       4.743  -9.785  -4.099  0.00  0.00    +0.000 A 
ATOM     26  N   UNL     1       3.409  -9.864  -4.193  0.00  0.00    +0.000 NA
ATOM     27  C   UNL     1       2.813  -8.832  -4.807  0.00  0.00    +0.000 A 
ATOM     28  N   UNL     1       3.423  -7.751  -5.319  0.00  0.00    +0.000 NA
ENDBRANCH  21  23
ENDBRANCH   1  17
TORSDOF 4
