REMARK  Name = 
REMARK  7 active torsions:
REMARK  status: ('A' for Active; 'I' for Inactive)
REMARK    1  A    between atoms: C_1  and  C_2
REMARK    2  A    between atoms: C_2  and  N_3
REMARK    3  A    between atoms: C_2  and  C_11
REMARK    4  A    between atoms: C_4  and  C_6
REMARK    5  A    between atoms: C_14  and  C_15
REMARK    6  A    between atoms: C_15  and  N_16
REMARK    7  A    between atoms: C_17  and  C_19
REMARK                            x       y       z     vdW  Elec       q    Type
REMARK                         _______ _______ _______ _____ _____    ______ ____
ROOT
ATOM      1  C   UNL     1       2.808   0.231   1.422  0.00  0.00    +0.000 A 
ATOM      2  C   UNL     1       2.925   1.523   1.961  0.00  0.00    +0.000 A 
ATOM      3  C   UNL     1       3.345   1.718   3.283  0.00  0.00    +0.000 A 
ATOM      4  C   UNL     1       3.674   0.625   4.093  0.00  0.00    +0.000 A 
ATOM      5  C   UNL     1       3.554  -0.663   3.562  0.00  0.00    +0.000 A 
ATOM      6  C   UNL     1       3.140  -0.858   2.240  0.00  0.00    +0.000 A 
ENDROOT
BRANCH   1   8
ATOM      7  C   UNL     1       1.563  -1.219  -0.282  0.00  0.00    +0.000 C 
ATOM      8  C   UNL     1       2.360   0.065  -0.023  0.00  0.00    +0.000 C 
BRANCH   8   9
ATOM      9  N   UNL     1       3.516   0.140  -0.903  0.00  0.00    +0.000 N 
ATOM     10  C   UNL     1       3.403   0.532  -2.216  0.00  0.00    +0.000 C 
ATOM     11  O   UNL     1       2.337   0.888  -2.710  0.00  0.00    +0.000 OA
ATOM     12  H   UNL     1       4.403  -0.180  -0.548  0.00  0.00    +0.000 HD
BRANCH  10  13
ATOM     13  C   UNL     1       4.619   0.495  -2.986  0.00  0.00    +0.000 A 
ATOM     14  C   UNL     1       5.923   0.135  -2.706  0.00  0.00    +0.000 A 
ATOM     15  C   UNL     1       6.625   0.323  -3.912  0.00  0.00    +0.000 A 
ATOM     16  N   UNL     1       5.839   0.773  -4.891  0.00  0.00    +0.000 NA
ATOM     17  N   UNL     1       4.634   0.873  -4.305  0.00  0.00    +0.000 N 
ATOM     18  H   UNL     1       3.844   1.204  -4.851  0.00  0.00    +0.000 HD
ENDBRANCH  10  13
ENDBRANCH   8   9
ENDBRANCH   1   8
BRANCH   4  19
ATOM     19  C   UNL     1       4.114   0.816   5.521  0.00  0.00    +0.000 C 
BRANCH  19  20
ATOM     20  N   UNL     1       2.989   0.798   6.422  0.00  0.00    +0.000 N 
ATOM     21  C   UNL     1       3.154   1.029   7.764  0.00  0.00    +0.000 C 
ATOM     22  O   UNL     1       4.250   1.301   8.247  0.00  0.00    +0.000 OA
ATOM     23  H   UNL     1       2.133   0.367   6.087  0.00  0.00    +0.000 HD
BRANCH  21  24
ATOM     24  C   UNL     1       1.941   0.993   8.591  0.00  0.00    +0.000 A 
ATOM     25  C   UNL     1       1.916   1.671   9.802  0.00  0.00    +0.000 A 
ATOM     26  S   UNL     1       0.425   1.562  10.620  0.00  0.00    +0.000 S 
ATOM     27  C   UNL     1      -0.227   0.559   9.411  0.00  0.00    +0.000 A 
ATOM     28  N   UNL     1      -1.491   0.069   9.516  0.00  0.00    +0.000 NA
ATOM     29  C   UNL     1      -1.846  -0.706   8.546  0.00  0.00    +0.000 A 
ATOM     30  N   UNL     1      -1.053  -1.026   7.475  0.00  0.00    +0.000 N 
ATOM     31  C   UNL     1       0.216  -0.525   7.306  0.00  0.00    +0.000 A 
ATOM     32  O   UNL     1       0.878  -0.790   6.309  0.00  0.00    +0.000 OA
ATOM     33  C   UNL     1       0.673   0.333   8.383  0.00  0.00    +0.000 A 
ATOM     34  H   UNL     1      -1.396  -1.629   6.741  0.00  0.00    +0.000 HD
ENDBRANCH  21  24
ENDBRANCH  19  20
ENDBRANCH   4  19
TORSDOF 6
