REMARK  Name = 
REMARK  5 active torsions:
REMARK  status: ('A' for Active; 'I' for Inactive)
REMARK    1  A    between atoms: C_2  and  C_4
REMARK    2  A    between atoms: C_8  and  O_9
REMARK    3  A    between atoms: O_9  and  C_10
REMARK    4  A    between atoms: C_10  and  C_11
REMARK    5  A    between atoms: C_13  and  C_14
REMARK                            x       y       z     vdW  Elec       q    Type
REMARK                         _______ _______ _______ _____ _____    ______ ____
ROOT
ATOM      1  C   UNL     1       7.025  -2.009   3.268  0.00  0.00    +0.000 C 
ENDROOT
BRANCH   1   2
ATOM      2  C   UNL     1       8.162  -1.261   3.921  0.00  0.00    +0.000 A 
ATOM      3  C   UNL     1       8.122   0.130   3.989  0.00  0.00    +0.000 A 
ATOM      4  C   UNL     1       9.160   0.835   4.615  0.00  0.00    +0.000 A 
ATOM      5  C   UNL     1      10.229   0.084   5.116  0.00  0.00    +0.000 A 
ATOM      6  C   UNL     1      10.197  -1.297   5.007  0.00  0.00    +0.000 A 
ATOM      7  N   UNL     1       9.186  -1.982   4.433  0.00  0.00    +0.000 NA
BRANCH   4   8
ATOM      8  C   UNL     1       9.125   2.304   4.731  0.00  0.00    +0.000 A 
ATOM      9  C   UNL     1       7.930   3.015   4.878  0.00  0.00    +0.000 A 
ATOM     10  C   UNL     1       7.954   4.407   4.934  0.00  0.00    +0.000 A 
ATOM     11  C   UNL     1       9.174   5.062   4.850  0.00  0.00    +0.000 A 
ATOM     12 CL   UNL     1       9.250   6.774   4.899  0.00  0.00    +0.000 Cl
ATOM     13  C   UNL     1      10.321   4.295   4.727  0.00  0.00    +0.000 A 
ATOM     14  N   UNL     1      10.324   2.939   4.673  0.00  0.00    +0.000 NA
ENDBRANCH   4   8
ENDBRANCH   1   2
BRANCH   1  15
ATOM     15  O   UNL     1       7.251  -2.116   1.859  0.00  0.00    +0.000 OA
BRANCH  15  20
ATOM     16  C   UNL     1       4.190  -3.864   1.295  0.00  0.00    +0.000 A 
ATOM     17  C   UNL     1       4.230  -4.146  -0.064  0.00  0.00    +0.000 A 
ATOM     18  C   UNL     1       5.338  -3.717  -0.787  0.00  0.00    +0.000 A 
ATOM     19  C   UNL     1       6.360  -3.033  -0.129  0.00  0.00    +0.000 A 
ATOM     20  C   UNL     1       6.230  -2.803   1.234  0.00  0.00    +0.000 A 
ATOM     21  N   UNL     1       5.165  -3.194   1.959  0.00  0.00    +0.000 NA
BRANCH  16  23
ATOM     22  N   UNL     1       3.057  -3.913   3.435  0.00  0.00    +0.000 N 
ATOM     23  C   UNL     1       3.017  -4.286   2.120  0.00  0.00    +0.000 C 
ATOM     24  O   UNL     1       2.071  -4.915   1.656  0.00  0.00    +0.000 OA
ATOM     25  H   UNL     1       2.287  -4.152   4.046  0.00  0.00    +0.000 HD
ATOM     26  H   UNL     1       3.844  -3.379   3.785  0.00  0.00    +0.000 HD
ENDBRANCH  16  23
ENDBRANCH  15  20
ENDBRANCH   1  15
TORSDOF 5
