REMARK  Name = 
REMARK  4 active torsions:
REMARK  status: ('A' for Active; 'I' for Inactive)
REMARK    1  A    between atoms: C_2  and  C_4
REMARK    2  A    between atoms: C_7  and  C_8
REMARK    3  A    between atoms: C_8  and  C_9
REMARK    4  A    between atoms: C_9  and  C_10
REMARK                            x       y       z     vdW  Elec       q    Type
REMARK                         _______ _______ _______ _____ _____    ______ ____
ROOT
ATOM      1  C   UNL     1       9.358  -1.035  -3.707  0.00  0.00    +0.000 A 
ATOM      2  C   UNL     1       9.055   0.047  -4.520  0.00  0.00    +0.000 A 
ATOM      3  C   UNL     1       7.727   0.240  -4.897  0.00  0.00    +0.000 A 
ATOM      4  C   UNL     1       6.741  -0.663  -4.490  0.00  0.00    +0.000 A 
ATOM      5  C   UNL     1       7.157  -1.716  -3.671  0.00  0.00    +0.000 A 
ATOM      6  N   UNL     1       8.432  -1.931  -3.266  0.00  0.00    +0.000 NA
ENDROOT
BRANCH   1   8
ATOM      7  N   UNL     1      10.980  -2.333  -2.450  0.00  0.00    +0.000 N 
ATOM      8  C   UNL     1      10.769  -1.235  -3.240  0.00  0.00    +0.000 C 
ATOM      9  O   UNL     1      11.678  -0.469  -3.533  0.00  0.00    +0.000 OA
ATOM     10  H   UNL     1      11.904  -2.514  -2.086  0.00  0.00    +0.000 HD
ATOM     11  H   UNL     1      10.203  -2.941  -2.218  0.00  0.00    +0.000 HD
ENDBRANCH   1   8
BRANCH   4  12
ATOM     12  C   UNL     1       5.268  -0.485  -4.783  0.00  0.00    +0.000 C 
BRANCH  12  13
ATOM     13  C   UNL     1       4.931   0.099  -6.153  0.00  0.00    +0.000 C 
ATOM     14  C   UNL     1       4.814   1.614  -6.267  0.00  0.00    +0.000 C 
ATOM     15  C   UNL     1       3.570   0.787  -6.289  0.00  0.00    +0.000 C 
BRANCH  13  16
ATOM     16  C   UNL     1       5.357  -0.718  -7.373  0.00  0.00    +0.000 A 
ATOM     17  C   UNL     1       4.596  -1.819  -7.813  0.00  0.00    +0.000 A 
ATOM     18  C   UNL     1       4.940  -2.534  -8.963  0.00  0.00    +0.000 A 
ATOM     19  C   UNL     1       6.065  -2.170  -9.696  0.00  0.00    +0.000 A 
ATOM     20  C   UNL     1       6.845  -1.098  -9.276  0.00  0.00    +0.000 A 
ATOM     21  C   UNL     1       6.489  -0.384  -8.131  0.00  0.00    +0.000 A 
ENDBRANCH  13  16
ENDBRANCH  12  13
ENDBRANCH   4  12
TORSDOF 4
