REMARK  Name = 
REMARK  7 active torsions:
REMARK  status: ('A' for Active; 'I' for Inactive)
REMARK    1  A    between atoms: C_1  and  O_2
REMARK    2  A    between atoms: O_2  and  C_3
REMARK    3  A    between atoms: C_5  and  C_6
REMARK    4  A    between atoms: C_6  and  N_7
REMARK    5  A    between atoms: C_8  and  C_10
REMARK    6  A    between atoms: C_22  and  C_23
REMARK    7  A    between atoms: C_23  and  N_24
REMARK                            x       y       z     vdW  Elec       q    Type
REMARK                         _______ _______ _______ _____ _____    ______ ____
ROOT
ATOM      1  C   UNL     1       3.336   4.196  -3.006  0.00  0.00    +0.000 C 
ENDROOT
BRANCH   1   4
ATOM      2  C   UNL     1       3.126   0.936  -1.063  0.00  0.00    +0.000 A 
ATOM      3  C   UNL     1       2.770   2.177  -1.605  0.00  0.00    +0.000 A 
ATOM      4  C   UNL     1       3.604   2.786  -2.543  0.00  0.00    +0.000 A 
ATOM      5  N   UNL     1       4.715   2.168  -3.007  0.00  0.00    +0.000 NA
ATOM      6  C   UNL     1       4.998   0.938  -2.502  0.00  0.00    +0.000 A 
ATOM      7  C   UNL     1       4.260   0.261  -1.525  0.00  0.00    +0.000 A 
BRANCH   2   9
ATOM      8  C   UNL     1       2.855   0.140   1.142  0.00  0.00    +0.000 C 
ATOM      9  O   UNL     1       2.259   0.482  -0.106  0.00  0.00    +0.000 OA
ENDBRANCH   2   9
BRANCH   7  10
ATOM     10  C   UNL     1       4.792  -1.069  -1.036  0.00  0.00    +0.000 C 
BRANCH  10  11
ATOM     11  N   UNL     1       4.380  -2.318  -1.676  0.00  0.00    +0.000 NA
ATOM     12  C   UNL     1       4.693  -2.463  -3.092  0.00  0.00    +0.000 C 
ATOM     13  C   UNL     1       3.391  -2.160  -3.804  0.00  0.00    +0.000 C 
ATOM     14  C   UNL     1       2.343  -2.736  -2.870  0.00  0.00    +0.000 C 
ATOM     15  C   UNL     1       2.984  -2.709  -1.488  0.00  0.00    +0.000 C 
ENDBRANCH  10  11
ENDBRANCH   7  10
ENDBRANCH   1   4
BRANCH   1  16
ATOM     16  N   UNL     1       2.545   4.276  -4.215  0.00  0.00    +0.000 N 
ATOM     17  C   UNL     1       1.195   4.478  -4.190  0.00  0.00    +0.000 C 
ATOM     18  O   UNL     1       0.572   4.564  -3.132  0.00  0.00    +0.000 OA
ATOM     19  H   UNL     1       3.020   4.046  -5.084  0.00  0.00    +0.000 HD
BRANCH  17  20
ATOM     20  C   UNL     1       0.517   4.660  -5.482  0.00  0.00    +0.000 A 
ATOM     21  C   UNL     1      -0.724   5.282  -5.520  0.00  0.00    +0.000 A 
ATOM     22  S   UNL     1      -1.372   5.434  -7.088  0.00  0.00    +0.000 S 
ATOM     23  C   UNL     1      -0.037   4.634  -7.774  0.00  0.00    +0.000 A 
ATOM     24  N   UNL     1       0.019   4.392  -9.112  0.00  0.00    +0.000 NA
ATOM     25  C   UNL     1       1.071   3.746  -9.492  0.00  0.00    +0.000 A 
ATOM     26  N   UNL     1       2.078   3.336  -8.659  0.00  0.00    +0.000 N 
ATOM     27  C   UNL     1       2.095   3.616  -7.312  0.00  0.00    +0.000 A 
ATOM     28  O   UNL     1       3.064   3.335  -6.617  0.00  0.00    +0.000 OA
ATOM     29  C   UNL     1       0.911   4.293  -6.824  0.00  0.00    +0.000 A 
ATOM     30  H   UNL     1       2.890   2.859  -9.023  0.00  0.00    +0.000 HD
ENDBRANCH  17  20
ENDBRANCH   1  16
TORSDOF 6
