REMARK  Name = 
REMARK  5 active torsions:
REMARK  status: ('A' for Active; 'I' for Inactive)
REMARK    1  A    between atoms: C_2  and  C_4
REMARK    2  A    between atoms: C_7  and  N_8
REMARK    3  A    between atoms: N_8  and  C_9
REMARK    4  A    between atoms: C_9  and  C_10
REMARK    5  A    between atoms: C_10  and  C_11
REMARK                            x       y       z     vdW  Elec       q    Type
REMARK                         _______ _______ _______ _____ _____    ______ ____
ROOT
ATOM      1  C   UNL     1       3.068  -0.398  -1.180  0.00  0.00    +0.000 A 
ATOM      2  C   UNL     1       2.428  -0.881  -2.324  0.00  0.00    +0.000 A 
ATOM      3  C   UNL     1       3.183  -1.265  -3.436  0.00  0.00    +0.000 A 
ATOM      4  C   UNL     1       4.577  -1.135  -3.440  0.00  0.00    +0.000 A 
ATOM      5  C   UNL     1       5.208  -0.702  -2.269  0.00  0.00    +0.000 A 
ATOM      6  C   UNL     1       4.462  -0.310  -1.154  0.00  0.00    +0.000 A 
ENDROOT
BRANCH   1   8
ATOM      7  N   UNL     1       1.082  -0.522   0.219  0.00  0.00    +0.000 N 
ATOM      8  C   UNL     1       2.304   0.052   0.011  0.00  0.00    +0.000 C 
ATOM      9  O   UNL     1       2.758   0.874   0.796  0.00  0.00    +0.000 OA
ATOM     10  H   UNL     1       0.622  -0.289   1.091  0.00  0.00    +0.000 HD
ATOM     11  H   UNL     1       0.793  -1.367  -0.253  0.00  0.00    +0.000 HD
ENDBRANCH   1   8
BRANCH   4  12
ATOM     12  N   UNL     1       5.389  -1.487  -4.529  0.00  0.00    +0.000 N 
ATOM     13  H   UNL     1       5.717  -2.445  -4.403  0.00  0.00    +0.000 HD
BRANCH  12  14
ATOM     14  C   UNL     1       4.840  -1.290  -5.879  0.00  0.00    +0.000 C 
BRANCH  14  15
ATOM     15  C   UNL     1       4.556   0.193  -6.147  0.00  0.00    +0.000 C 
BRANCH  15  16
ATOM     16  C   UNL     1       4.034   0.418  -7.534  0.00  0.00    +0.000 A 
ATOM     17  C   UNL     1       4.676   1.298  -8.401  0.00  0.00    +0.000 A 
ATOM     18  N   UNL     1       4.218   1.563  -9.647  0.00  0.00    +0.000 NA
ATOM     19  C   UNL     1       3.080   0.925  -9.992  0.00  0.00    +0.000 A 
ATOM     20  C   UNL     1       2.428   0.056  -9.134  0.00  0.00    +0.000 A 
ATOM     21  N   UNL     1       2.889  -0.219  -7.893  0.00  0.00    +0.000 NA
ENDBRANCH  15  16
ENDBRANCH  14  15
ENDBRANCH  12  14
ENDBRANCH   4  12
TORSDOF 5
