REMARK  Name = 
REMARK  7 active torsions:
REMARK  status: ('A' for Active; 'I' for Inactive)
REMARK    1  A    between atoms: C_2  and  C_19
REMARK    2  A    between atoms: N_3  and  C_4
REMARK    3  A    between atoms: C_4  and  C_5
REMARK    4  A    between atoms: C_8  and  C_9
REMARK    5  A    between atoms: C_9  and  N_10
REMARK    6  A    between atoms: N_10  and  C_11
REMARK    7  A    between atoms: C_11  and  C_12
REMARK                            x       y       z     vdW  Elec       q    Type
REMARK                         _______ _______ _______ _____ _____    ______ ____
ROOT
ATOM      1  C   UNL     1       2.289   1.898   1.461  0.00  0.00    +0.000 C 
ENDROOT
BRANCH   1   2
ATOM      2  C   UNL     1       3.213   2.851   2.155  0.00  0.00    +0.000 A 
ATOM      3  C   UNL     1       3.032   4.232   2.054  0.00  0.00    +0.000 A 
ATOM      4  C   UNL     1       3.871   5.094   2.752  0.00  0.00    +0.000 A 
ATOM      5  C   UNL     1       4.888   4.553   3.530  0.00  0.00    +0.000 A 
ATOM      6  N   UNL     1       5.090   3.211   3.640  0.00  0.00    +0.000 NA
ATOM      7  C   UNL     1       4.269   2.400   2.937  0.00  0.00    +0.000 A 
BRANCH   5   8
ATOM      8  C   UNL     1       5.805   5.478   4.312  0.00  0.00    +0.000 C 
BRANCH   8   9
ATOM      9  N   UNL     1       7.144   4.927   4.568  0.00  0.00    +0.000 NA
ATOM     10  H   UNL     1       6.993   4.006   4.986  0.00  0.00    +0.000 HD
BRANCH   9  11
ATOM     11  C   UNL     1       7.903   4.732   3.322  0.00  0.00    +0.000 C 
BRANCH  11  12
ATOM     12  C   UNL     1       9.283   4.134   3.639  0.00  0.00    +0.000 C 
ATOM     13  C   UNL     1      10.141   5.034   4.514  0.00  0.00    +0.000 C 
ATOM     14  C   UNL     1      11.518   4.433   4.333  0.00  0.00    +0.000 C 
ATOM     15  C   UNL     1      11.509   3.887   2.911  0.00  0.00    +0.000 C 
ATOM     16  N   UNL     1      10.122   3.951   2.444  0.00  0.00    +0.000 NA
ATOM     17  H   UNL     1       9.861   3.095   1.960  0.00  0.00    +0.000 HD
ENDBRANCH  11  12
ENDBRANCH   9  11
ENDBRANCH   8   9
ENDBRANCH   5   8
ENDBRANCH   1   2
BRANCH   1  20
ATOM     18  O   UNL     1       1.364   3.242  -0.830  0.00  0.00    +0.000 OA
ATOM     19  C   UNL     1       2.201   2.352  -0.958  0.00  0.00    +0.000 C 
ATOM     20  N   UNL     1       2.689   1.639   0.105  0.00  0.00    +0.000 N 
ATOM     21  H   UNL     1       3.497   1.040  -0.028  0.00  0.00    +0.000 HD
BRANCH  19  22
ATOM     22  C   UNL     1       2.688   1.954  -2.280  0.00  0.00    +0.000 A 
ATOM     23  C   UNL     1       1.909   2.165  -3.406  0.00  0.00    +0.000 A 
ATOM     24  S   UNL     1       2.648   1.650  -4.855  0.00  0.00    +0.000 S 
ATOM     25  C   UNL     1       4.051   1.153  -4.027  0.00  0.00    +0.000 A 
ATOM     26  N   UNL     1       5.118   0.641  -4.700  0.00  0.00    +0.000 NA
ATOM     27  C   UNL     1       6.124   0.341  -3.947  0.00  0.00    +0.000 A 
ATOM     28  N   UNL     1       6.157   0.489  -2.585  0.00  0.00    +0.000 N 
ATOM     29  C   UNL     1       5.078   0.924  -1.860  0.00  0.00    +0.000 A 
ATOM     30  O   UNL     1       5.081   0.900  -0.634  0.00  0.00    +0.000 OA
ATOM     31  C   UNL     1       3.939   1.341  -2.664  0.00  0.00    +0.000 A 
ATOM     32  H   UNL     1       6.962   0.198  -2.052  0.00  0.00    +0.000 HD
ENDBRANCH  19  22
ENDBRANCH   1  20
TORSDOF 7
