REMARK  Name = 
REMARK  4 active torsions:
REMARK  status: ('A' for Active; 'I' for Inactive)
REMARK    1  A    between atoms: C_2  and  C_4
REMARK    2  A    between atoms: C_7  and  C_8
REMARK    3  A    between atoms: C_8  and  C_9
REMARK    4  A    between atoms: C_9  and  C_10
REMARK                            x       y       z     vdW  Elec       q    Type
REMARK                         _______ _______ _______ _____ _____    ______ ____
ROOT
ATOM      1  C   UNL     1       3.462  -0.151  -0.883  0.00  0.00    +0.000 A 
ATOM      2  C   UNL     1       2.707  -0.309  -2.048  0.00  0.00    +0.000 A 
ATOM      3  C   UNL     1       3.343  -0.436  -3.288  0.00  0.00    +0.000 A 
ATOM      4  C   UNL     1       4.739  -0.367  -3.396  0.00  0.00    +0.000 A 
ATOM      5  C   UNL     1       5.483  -0.173  -2.220  0.00  0.00    +0.000 A 
ATOM      6  C   UNL     1       4.853  -0.060  -0.975  0.00  0.00    +0.000 A 
ENDROOT
BRANCH   1   8
ATOM      7  N   UNL     1       1.625  -0.740   0.600  0.00  0.00    +0.000 N 
ATOM      8  C   UNL     1       2.825  -0.095   0.461  0.00  0.00    +0.000 C 
ATOM      9  O   UNL     1       3.362   0.452   1.410  0.00  0.00    +0.000 OA
ATOM     10  H   UNL     1       1.248  -0.794   1.538  0.00  0.00    +0.000 HD
ATOM     11  H   UNL     1       1.290  -1.411  -0.076  0.00  0.00    +0.000 HD
ENDBRANCH   1   8
BRANCH   4  12
ATOM     12  C   UNL     1       5.477  -0.611  -4.702  0.00  0.00    +0.000 C 
BRANCH  12  13
ATOM     13  C   UNL     1       4.787  -0.091  -5.962  0.00  0.00    +0.000 C 
ATOM     14  C   UNL     1       3.826  -1.035  -6.673  0.00  0.00    +0.000 C 
ATOM     15  C   UNL     1       5.157  -0.756  -7.291  0.00  0.00    +0.000 C 
BRANCH  13  16
ATOM     16  C   UNL     1       4.577   1.418  -6.048  0.00  0.00    +0.000 A 
ATOM     17  C   UNL     1       5.601   2.288  -6.452  0.00  0.00    +0.000 A 
ATOM     18  C   UNL     1       5.367   3.657  -6.568  0.00  0.00    +0.000 A 
ATOM     19  C   UNL     1       4.106   4.136  -6.263  0.00  0.00    +0.000 A 
ATOM     20  N   UNL     1       3.088   3.351  -5.863  0.00  0.00    +0.000 NA
ATOM     21  C   UNL     1       3.351   2.025  -5.769  0.00  0.00    +0.000 A 
ENDBRANCH  13  16
ENDBRANCH  12  13
ENDBRANCH   4  12
TORSDOF 4
