REMARK  Name = 
REMARK  6 active torsions:
REMARK  status: ('A' for Active; 'I' for Inactive)
REMARK    1  A    between atoms: C_2  and  C_20
REMARK    2  A    between atoms: N_3  and  C_4
REMARK    3  A    between atoms: C_4  and  C_5
REMARK    4  A    between atoms: C_8  and  C_9
REMARK    5  A    between atoms: C_9  and  N_10
REMARK    6  A    between atoms: C_11  and  C_13
REMARK                            x       y       z     vdW  Elec       q    Type
REMARK                         _______ _______ _______ _____ _____    ______ ____
ROOT
ATOM      1  C   UNL     1       2.151   1.365   2.308  0.00  0.00    +0.000 C 
ENDROOT
BRANCH   1   2
ATOM      2  C   UNL     1       3.085   1.956   3.359  0.00  0.00    +0.000 A 
ATOM      3  N   UNL     1       3.115   3.300   3.483  0.00  0.00    +0.000 NA
ATOM      4  C   UNL     1       3.992   3.805   4.383  0.00  0.00    +0.000 A 
ATOM      5  C   UNL     1       4.854   3.034   5.131  0.00  0.00    +0.000 A 
ATOM      6  C   UNL     1       4.769   1.680   4.898  0.00  0.00    +0.000 A 
ATOM      7  N   UNL     1       3.900   1.121   4.029  0.00  0.00    +0.000 NA
BRANCH   5   8
ATOM      8  C   UNL     1       5.765   3.621   6.162  0.00  0.00    +0.000 C 
BRANCH   8   9
ATOM      9  N   UNL     1       5.122   3.628   7.457  0.00  0.00    +0.000 N 
ATOM     10  C   UNL     1       5.440   4.557   8.428  0.00  0.00    +0.000 C 
ATOM     11  O   UNL     1       6.239   5.463   8.257  0.00  0.00    +0.000 OA
ATOM     12  H   UNL     1       4.600   2.806   7.734  0.00  0.00    +0.000 HD
BRANCH  10  13
ATOM     13  C   UNL     1       4.714   4.297   9.744  0.00  0.00    +0.000 C 
ATOM     14  C   UNL     1       3.195   4.344   9.595  0.00  0.00    +0.000 C 
ATOM     15  C   UNL     1       2.668   4.550  11.011  0.00  0.00    +0.000 C 
ATOM     16  C   UNL     1       3.841   5.094  11.826  0.00  0.00    +0.000 C 
ATOM     17  C   UNL     1       4.960   5.348  10.822  0.00  0.00    +0.000 C 
ENDBRANCH  10  13
ENDBRANCH   8   9
ENDBRANCH   5   8
ENDBRANCH   1   2
BRANCH   1  20
ATOM     18  O   UNL     1       3.358  -0.920   1.063  0.00  0.00    +0.000 OA
ATOM     19  C   UNL     1       3.501   0.202   0.601  0.00  0.00    +0.000 C 
ATOM     20  N   UNL     1       2.806   1.320   1.016  0.00  0.00    +0.000 N 
ATOM     21  H   UNL     1       3.140   2.217   0.703  0.00  0.00    +0.000 HD
BRANCH  19  22
ATOM     22  C   UNL     1       4.575   0.557  -0.319  0.00  0.00    +0.000 A 
ATOM     23  C   UNL     1       5.860   0.056  -0.192  0.00  0.00    +0.000 A 
ATOM     24  S   UNL     1       7.004   1.045  -1.006  0.00  0.00    +0.000 S 
ATOM     25  C   UNL     1       5.774   2.047  -1.635  0.00  0.00    +0.000 A 
ATOM     26  N   UNL     1       6.040   3.200  -2.306  0.00  0.00    +0.000 NA
ATOM     27  C   UNL     1       4.986   3.799  -2.759  0.00  0.00    +0.000 A 
ATOM     28  N   UNL     1       3.700   3.326  -2.652  0.00  0.00    +0.000 N 
ATOM     29  C   UNL     1       3.390   2.160  -1.996  0.00  0.00    +0.000 A 
ATOM     30  O   UNL     1       2.250   1.712  -1.975  0.00  0.00    +0.000 OA
ATOM     31  C   UNL     1       4.526   1.537  -1.358  0.00  0.00    +0.000 A 
ATOM     32  H   UNL     1       2.933   3.798  -3.108  0.00  0.00    +0.000 HD
ENDBRANCH  19  22
ENDBRANCH   1  20
TORSDOF 6
