REMARK  Name = 
REMARK  8 active torsions:
REMARK  status: ('A' for Active; 'I' for Inactive)
REMARK    1  A    between atoms: C_1  and  C_2
REMARK    2  A    between atoms: C_2  and  N_3
REMARK    3  A    between atoms: N_3  and  C_4
REMARK    4  A    between atoms: C_4  and  C_5
REMARK    5  A    between atoms: C_8  and  C_9
REMARK    6  A    between atoms: C_9  and  N_10
REMARK    7  A    between atoms: C_11  and  C_13
REMARK    8  A    between atoms: C_20  and  C_22
REMARK                            x       y       z     vdW  Elec       q    Type
REMARK                         _______ _______ _______ _____ _____    ______ ____
ROOT
ATOM      1  C   UNL     1       1.949   2.114   1.299  0.00  0.00    +0.000 C 
ENDROOT
BRANCH   1   2
ATOM      2  C   UNL     1       0.517   1.658   1.443  0.00  0.00    +0.000 A 
ATOM      3  C   UNL     1       0.052   1.130   2.657  0.00  0.00    +0.000 A 
ATOM      4  C   UNL     1      -1.165   0.449   2.707  0.00  0.00    +0.000 A 
ATOM      5  C   UNL     1      -1.927   0.291   1.545  0.00  0.00    +0.000 A 
ATOM      6  C   UNL     1      -1.543   0.966   0.379  0.00  0.00    +0.000 A 
ATOM      7  C   UNL     1      -0.326   1.644   0.327  0.00  0.00    +0.000 A 
BRANCH   5   8
ATOM      8  C   UNL     1      -3.078  -0.676   1.509  0.00  0.00    +0.000 C 
BRANCH   8   9
ATOM      9  N   UNL     1      -4.335  -0.066   1.839  0.00  0.00    +0.000 N 
ATOM     10  C   UNL     1      -5.506  -0.785   1.716  0.00  0.00    +0.000 C 
ATOM     11  O   UNL     1      -5.507  -1.947   1.321  0.00  0.00    +0.000 OA
ATOM     12  H   UNL     1      -4.353   0.856   2.250  0.00  0.00    +0.000 HD
BRANCH  10  13
ATOM     13  C   UNL     1      -6.720  -0.081   2.084  0.00  0.00    +0.000 A 
ATOM     14  C   UNL     1      -8.005  -0.583   2.085  0.00  0.00    +0.000 A 
ATOM     15  N   UNL     1      -8.997   0.302   2.463  0.00  0.00    +0.000 NA
ATOM     16  C   UNL     1      -8.451   1.465   2.740  0.00  0.00    +0.000 A 
ATOM     17  S   UNL     1      -6.748   1.559   2.580  0.00  0.00    +0.000 S 
ENDBRANCH  10  13
ENDBRANCH   8   9
ENDBRANCH   5   8
ENDBRANCH   1   2
BRANCH   1  18
ATOM     18  N   UNL     1       2.889   1.122   0.736  0.00  0.00    +0.000 N 
ATOM     19  C   UNL     1       4.143   1.450   0.191  0.00  0.00    +0.000 C 
ATOM     20  O   UNL     1       4.873   0.593  -0.304  0.00  0.00    +0.000 OA
BRANCH  19  21
ATOM     21  C   UNL     1       4.627   2.829   0.260  0.00  0.00    +0.000 A 
ATOM     22  C   UNL     1       4.652   3.595   1.413  0.00  0.00    +0.000 A 
ATOM     23  S   UNL     1       5.412   5.111   1.201  0.00  0.00    +0.000 S 
ATOM     24  C   UNL     1       5.831   4.737  -0.405  0.00  0.00    +0.000 A 
ATOM     25  N   UNL     1       6.599   5.578  -1.148  0.00  0.00    +0.000 NA
ATOM     26  C   UNL     1       6.897   5.123  -2.321  0.00  0.00    +0.000 A 
ATOM     27  N   UNL     1       6.463   3.925  -2.832  0.00  0.00    +0.000 N 
ATOM     28  C   UNL     1       5.571   3.109  -2.170  0.00  0.00    +0.000 A 
ATOM     29  O   UNL     1       5.011   2.182  -2.744  0.00  0.00    +0.000 OA
ATOM     30  C   UNL     1       5.315   3.518  -0.801  0.00  0.00    +0.000 A 
ATOM     31  H   UNL     1       6.673   3.664  -3.783  0.00  0.00    +0.000 HD
ENDBRANCH  19  21
BRANCH  18  33
ATOM     32  C   UNL     1       2.102  -0.826  -0.612  0.00  0.00    +0.000 C 
ATOM     33  C   UNL     1       2.563  -0.313   0.748  0.00  0.00    +0.000 C 
ENDBRANCH  18  33
ENDBRANCH   1  18
TORSDOF 7
