REMARK  Name = 
REMARK  9 active torsions:
REMARK  status: ('A' for Active; 'I' for Inactive)
REMARK    1  A    between atoms: C_1  and  N_2
REMARK    2  A    between atoms: N_2  and  C_3
REMARK    3  A    between atoms: C_3  and  C_4
REMARK    4  A    between atoms: C_7  and  C_8
REMARK    5  A    between atoms: C_8  and  N_9
REMARK    6  A    between atoms: N_9  and  C_10
REMARK    7  A    between atoms: C_10  and  C_11
REMARK    8  A    between atoms: C_11  and  O_12
REMARK    9  A    between atoms: C_19  and  C_21
REMARK                            x       y       z     vdW  Elec       q    Type
REMARK                         _______ _______ _______ _____ _____    ______ ____
ROOT
ATOM      1  C   UNL     1       2.235  -1.216   2.051  0.00  0.00    +0.000 A 
ATOM      2  C   UNL     1       2.251  -2.611   2.072  0.00  0.00    +0.000 A 
ATOM      3  C   UNL     1       1.405  -3.288   2.941  0.00  0.00    +0.000 A 
ATOM      4  C   UNL     1       0.569  -2.549   3.775  0.00  0.00    +0.000 A 
ATOM      5  N   UNL     1       0.557  -1.193   3.788  0.00  0.00    +0.000 NA
ATOM      6  C   UNL     1       1.379  -0.561   2.930  0.00  0.00    +0.000 A 
ENDROOT
BRANCH   1   7
ATOM      7  C   UNL     1       3.101  -0.436   1.113  0.00  0.00    +0.000 C 
BRANCH   7   9
ATOM      8  C   UNL     1       4.878  -0.459   2.915  0.00  0.00    +0.000 C 
ATOM      9  N   UNL     1       4.464  -0.124   1.558  0.00  0.00    +0.000 N 
ATOM     10  C   UNL     1       5.483   0.265   0.671  0.00  0.00    +0.000 C 
ATOM     11  O   UNL     1       6.655   0.328   1.032  0.00  0.00    +0.000 OA
BRANCH  10  12
ATOM     12  C   UNL     1       5.127   0.645  -0.705  0.00  0.00    +0.000 A 
ATOM     13  C   UNL     1       4.082   1.489  -1.039  0.00  0.00    +0.000 A 
ATOM     14  S   UNL     1       3.960   1.795  -2.714  0.00  0.00    +0.000 S 
ATOM     15  C   UNL     1       5.389   0.926  -3.028  0.00  0.00    +0.000 A 
ATOM     16  N   UNL     1       5.923   0.882  -4.277  0.00  0.00    +0.000 NA
ATOM     17  C   UNL     1       7.043   0.244  -4.347  0.00  0.00    +0.000 A 
ATOM     18  N   UNL     1       7.657  -0.387  -3.295  0.00  0.00    +0.000 N 
ATOM     19  C   UNL     1       7.085  -0.483  -2.042  0.00  0.00    +0.000 A 
ATOM     20  O   UNL     1       7.535  -1.247  -1.200  0.00  0.00    +0.000 OA
ATOM     21  C   UNL     1       5.890   0.328  -1.886  0.00  0.00    +0.000 A 
ATOM     22  H   UNL     1       8.494  -0.929  -3.435  0.00  0.00    +0.000 HD
ENDBRANCH  10  12
ENDBRANCH   7   9
ENDBRANCH   1   7
BRANCH   4  23
ATOM     23  C   UNL     1      -0.425  -3.237   4.678  0.00  0.00    +0.000 C 
BRANCH  23  24
ATOM     24  N   UNL     1       0.210  -4.157   5.641  0.00  0.00    +0.000 NA
ATOM     25  H   UNL     1       0.924  -3.619   6.139  0.00  0.00    +0.000 HD
BRANCH  24  26
ATOM     26  C   UNL     1      -0.754  -4.688   6.632  0.00  0.00    +0.000 C 
ATOM     27  C   UNL     1      -1.439  -3.589   7.464  0.00  0.00    +0.000 C 
ATOM     28  C   UNL     1      -1.859  -4.260   8.765  0.00  0.00    +0.000 C 
ATOM     29  C   UNL     1      -0.944  -5.474   8.928  0.00  0.00    +0.000 C 
ATOM     30  C   UNL     1       0.013  -5.448   7.734  0.00  0.00    +0.000 C 
BRANCH  26  31
ATOM     31  C   UNL     1      -1.795  -5.617   5.943  0.00  0.00    +0.000 C 
BRANCH  31  32
ATOM     32  O   UNL     1      -1.150  -6.594   5.125  0.00  0.00    +0.000 OA
ATOM     33  H   UNL     1      -0.444  -6.109   4.656  0.00  0.00    +0.000 HD
ENDBRANCH  31  32
ENDBRANCH  26  31
ENDBRANCH  24  26
ENDBRANCH  23  24
ENDBRANCH   4  23
TORSDOF 8
