REMARK  Name = 
REMARK  8 active torsions:
REMARK  status: ('A' for Active; 'I' for Inactive)
REMARK    1  A    between atoms: C_1  and  C_2
REMARK    2  A    between atoms: C_6  and  C_7
REMARK    3  A    between atoms: C_7  and  O_8
REMARK    4  A    between atoms: O_8  and  C_9
REMARK    5  A    between atoms: C_9  and  C_10
REMARK    6  A    between atoms: C_13  and  C_14
REMARK    7  A    between atoms: C_14  and  N_15
REMARK    8  A    between atoms: C_16  and  C_18
REMARK                            x       y       z     vdW  Elec       q    Type
REMARK                         _______ _______ _______ _____ _____    ______ ____
ROOT
ATOM      1  C   UNL     1      -5.467  -3.220   0.005  0.00  0.00    +0.000 A 
ATOM      2  C   UNL     1      -6.336  -4.306  -0.004  0.00  0.00    +0.000 A 
ATOM      3  C   UNL     1      -7.711  -4.079  -0.028  0.00  0.00    +0.000 A 
ATOM      4  C   UNL     1      -8.201  -2.771  -0.048  0.00  0.00    +0.000 A 
ATOM      5  C   UNL     1      -7.254  -1.750  -0.015  0.00  0.00    +0.000 A 
ATOM      6  N   UNL     1      -5.914  -1.939   0.010  0.00  0.00    +0.000 NA
ENDROOT
BRANCH   1   7
ATOM      7  C   UNL     1      -3.976  -3.470   0.026  0.00  0.00    +0.000 C 
BRANCH   7   8
ATOM      8  O   UNL     1      -3.599  -4.225  -1.125  0.00  0.00    +0.000 OA
BRANCH   8   9
ATOM      9  C   UNL     1      -2.200  -4.489  -1.147  0.00  0.00    +0.000 C 
BRANCH   9  15
ATOM     10  C   UNL     1       0.757  -7.850  -3.424  0.00  0.00    +0.000 C 
ATOM     11  C   UNL     1      -0.400  -6.900  -3.488  0.00  0.00    +0.000 A 
ATOM     12  C   UNL     1      -1.140  -6.746  -4.665  0.00  0.00    +0.000 A 
ATOM     13  C   UNL     1      -2.218  -5.863  -4.709  0.00  0.00    +0.000 A 
ATOM     14  C   UNL     1      -2.564  -5.128  -3.577  0.00  0.00    +0.000 A 
ATOM     15  C   UNL     1      -1.849  -5.280  -2.381  0.00  0.00    +0.000 A 
ATOM     16  C   UNL     1      -0.757  -6.161  -2.353  0.00  0.00    +0.000 A 
ENDBRANCH   9  15
ENDBRANCH   8   9
ENDBRANCH   7   8
ENDBRANCH   1   7
BRANCH   4  17
ATOM     17  C   UNL     1      -9.673  -2.451  -0.103  0.00  0.00    +0.000 C 
BRANCH  17  18
ATOM     18  N   UNL     1     -10.267  -2.321   1.200  0.00  0.00    +0.000 N 
ATOM     19  C   UNL     1     -11.597  -2.028   1.377  0.00  0.00    +0.000 C 
ATOM     20  O   UNL     1     -12.377  -1.873   0.440  0.00  0.00    +0.000 OA
ATOM     21  H   UNL     1      -9.635  -2.122   1.967  0.00  0.00    +0.000 HD
BRANCH  19  22
ATOM     22  C   UNL     1     -12.044  -1.970   2.775  0.00  0.00    +0.000 A 
ATOM     23  C   UNL     1     -13.350  -2.292   3.113  0.00  0.00    +0.000 A 
ATOM     24  S   UNL     1     -13.667  -2.175   4.788  0.00  0.00    +0.000 S 
ATOM     25  C   UNL     1     -12.076  -1.666   5.113  0.00  0.00    +0.000 A 
ATOM     26  N   UNL     1     -11.676  -1.358   6.376  0.00  0.00    +0.000 NA
ATOM     27  C   UNL     1     -10.441  -0.983   6.470  0.00  0.00    +0.000 A 
ATOM     28  N   UNL     1      -9.568  -0.896   5.418  0.00  0.00    +0.000 N 
ATOM     29  C   UNL     1      -9.920  -1.217   4.129  0.00  0.00    +0.000 A 
ATOM     30  O   UNL     1      -9.101  -1.182   3.226  0.00  0.00    +0.000 OA
ATOM     31  C   UNL     1     -11.305  -1.619   3.965  0.00  0.00    +0.000 A 
ATOM     32  H   UNL     1      -8.607  -0.623   5.560  0.00  0.00    +0.000 HD
ENDBRANCH  19  22
ENDBRANCH  17  18
ENDBRANCH   4  17
TORSDOF 7
