REMARK  Name = 
REMARK  4 active torsions:
REMARK  status: ('A' for Active; 'I' for Inactive)
REMARK    1  A    between atoms: C_1  and  C_2
REMARK    2  A    between atoms: C_2  and  N_3
REMARK    3  A    between atoms: C_2  and  C_16
REMARK    4  A    between atoms: C_4  and  C_6
REMARK                            x       y       z     vdW  Elec       q    Type
REMARK                         _______ _______ _______ _____ _____    ______ ____
ROOT
ATOM      1  C   UNL     1       0.863  -0.244  -0.229  0.00  0.00    +0.000 C 
ATOM      2  C   UNL     1       2.362  -0.093   0.067  0.00  0.00    +0.000 C 
ENDROOT
BRANCH   2   3
ATOM      3  C   UNL     1       2.901   1.302  -0.411  0.00  0.00    +0.000 C 
ATOM      4  C   UNL     1       4.423   1.478  -0.199  0.00  0.00    +0.000 C 
ATOM      5  C   UNL     1       4.936   2.788  -0.817  0.00  0.00    +0.000 C 
ATOM      6  C   UNL     1       4.117   3.996  -0.369  0.00  0.00    +0.000 C 
ATOM      7  C   UNL     1       2.632   3.739  -0.602  0.00  0.00    +0.000 C 
ATOM      8  N   UNL     1       2.228   2.530   0.121  0.00  0.00    +0.000 N 
ATOM      9  C   UNL     1       1.721   2.542   1.430  0.00  0.00    +0.000 C 
ATOM     10  O   UNL     1       1.578   1.508   2.074  0.00  0.00    +0.000 OA
ATOM     11  N   UNL     1       1.361   3.765   1.920  0.00  0.00    +0.000 N 
ATOM     12  C   UNL     1       0.741   3.976   3.143  0.00  0.00    +0.000 A 
ATOM     13  N   UNL     1       0.652   3.019   4.075  0.00  0.00    +0.000 NA
ATOM     14  C   UNL     1      -0.067   3.292   5.181  0.00  0.00    +0.000 A 
ATOM     15  C   UNL     1      -0.700   4.492   5.387  0.00  0.00    +0.000 A 
ATOM     16 CL   UNL     1      -1.656   4.799   6.767  0.00  0.00    +0.000 Cl
ATOM     17  C   UNL     1      -0.522   5.426   4.392  0.00  0.00    +0.000 A 
ATOM     18  N   UNL     1       0.201   5.200   3.269  0.00  0.00    +0.000 NA
ATOM     19  H   UNL     1       1.315   4.578   1.343  0.00  0.00    +0.000 HD
ENDBRANCH   2   3
BRANCH   2  20
ATOM     20  N   UNL     1       3.052  -1.223  -0.570  0.00  0.00    +0.000 N 
ATOM     21  C   UNL     1       4.162  -1.822  -0.028  0.00  0.00    +0.000 C 
ATOM     22  O   UNL     1       4.684  -1.434   1.013  0.00  0.00    +0.000 OA
ATOM     23  H   UNL     1       2.739  -1.499  -1.495  0.00  0.00    +0.000 HD
BRANCH  21  24
ATOM     24  C   UNL     1       4.685  -2.991  -0.740  0.00  0.00    +0.000 A 
ATOM     25  C   UNL     1       5.419  -3.942  -0.043  0.00  0.00    +0.000 A 
ATOM     26  S   UNL     1       5.945  -5.240  -1.013  0.00  0.00    +0.000 S 
ATOM     27  C   UNL     1       5.258  -4.551  -2.408  0.00  0.00    +0.000 A 
ATOM     28  N   UNL     1       5.390  -5.145  -3.620  0.00  0.00    +0.000 NA
ATOM     29  C   UNL     1       4.868  -4.486  -4.599  0.00  0.00    +0.000 A 
ATOM     30  N   UNL     1       4.212  -3.289  -4.473  0.00  0.00    +0.000 N 
ATOM     31  C   UNL     1       3.991  -2.683  -3.257  0.00  0.00    +0.000 A 
ATOM     32  O   UNL     1       3.303  -1.675  -3.164  0.00  0.00    +0.000 OA
ATOM     33  C   UNL     1       4.603  -3.361  -2.129  0.00  0.00    +0.000 A 
ATOM     34  H   UNL     1       3.804  -2.835  -5.276  0.00  0.00    +0.000 HD
ENDBRANCH  21  24
ENDBRANCH   2  20
TORSDOF 3
