REMARK  Name = 
REMARK  5 active torsions:
REMARK  status: ('A' for Active; 'I' for Inactive)
REMARK    1  A    between atoms: C_2  and  C_4
REMARK    2  A    between atoms: N_8  and  C_9
REMARK    3  A    between atoms: C_9  and  C_10
REMARK    4  A    between atoms: C_10  and  C_11
REMARK    5  A    between atoms: C_15  and  C_16
REMARK                            x       y       z     vdW  Elec       q    Type
REMARK                         _______ _______ _______ _____ _____    ______ ____
ROOT
ATOM      1  C   UNL     1       7.670  -6.187  -2.510  0.00  0.00    +0.000 C 
ENDROOT
BRANCH   1   6
ATOM      2  C   UNL     1      11.632  -3.744  -0.471  0.00  0.00    +0.000 A 
ATOM      3  C   UNL     1      11.321  -3.966  -1.808  0.00  0.00    +0.000 A 
ATOM      4  C   UNL     1      10.078  -4.508  -2.136  0.00  0.00    +0.000 A 
ATOM      5  C   UNL     1       9.177  -4.839  -1.128  0.00  0.00    +0.000 A 
ATOM      6  N   UNL     1       7.893  -5.297  -1.380  0.00  0.00    +0.000 N 
ATOM      7  N   UNL     1       9.482  -4.662   0.173  0.00  0.00    +0.000 NA
ATOM      8  C   UNL     1      10.695  -4.127   0.478  0.00  0.00    +0.000 A 
ATOM      9  H   UNL     1       7.510  -5.599  -0.486  0.00  0.00    +0.000 HD
BRANCH   2  11
ATOM     10  N   UNL     1      13.505  -2.268  -0.919  0.00  0.00    +0.000 N 
ATOM     11  C   UNL     1      12.896  -3.118  -0.036  0.00  0.00    +0.000 C 
ATOM     12  O   UNL     1      13.361  -3.318   1.077  0.00  0.00    +0.000 OA
ATOM     13  H   UNL     1      14.308  -1.759  -0.571  0.00  0.00    +0.000 HD
ATOM     14  H   UNL     1      13.032  -1.892  -1.727  0.00  0.00    +0.000 HD
ENDBRANCH   2  11
ENDBRANCH   1   6
BRANCH   1  15
ATOM     15  C   UNL     1       6.204  -6.635  -2.565  0.00  0.00    +0.000 C 
BRANCH  15  16
ATOM     16  C   UNL     1       5.934  -7.468  -3.790  0.00  0.00    +0.000 A 
ATOM     17  C   UNL     1       5.504  -6.877  -4.973  0.00  0.00    +0.000 A 
ATOM     18  N   UNL     1       5.297  -7.550  -6.124  0.00  0.00    +0.000 NA
ATOM     19  C   UNL     1       5.545  -8.878  -6.103  0.00  0.00    +0.000 A 
ATOM     20  C   UNL     1       5.996  -9.579  -4.986  0.00  0.00    +0.000 A 
ATOM     21  C   UNL     1       6.174  -8.847  -3.806  0.00  0.00    +0.000 A 
BRANCH  20  22
ATOM     22  C   UNL     1       6.345 -11.047  -5.106  0.00  0.00    +0.000 C 
ATOM     23  C   UNL     1       5.497 -11.956  -4.203  0.00  0.00    +0.000 C 
ATOM     24  C   UNL     1       5.872 -13.426  -4.408  0.00  0.00    +0.000 C 
ATOM     25  C   UNL     1       7.365 -13.669  -4.197  0.00  0.00    +0.000 C 
ATOM     26  C   UNL     1       8.222 -12.742  -5.054  0.00  0.00    +0.000 C 
ATOM     27  C   UNL     1       7.844 -11.278  -4.847  0.00  0.00    +0.000 C 
ENDBRANCH  20  22
ENDBRANCH  15  16
ENDBRANCH   1  15
TORSDOF 5
