REMARK  Name = 
REMARK  4 active torsions:
REMARK  status: ('A' for Active; 'I' for Inactive)
REMARK    1  A    between atoms: C_1  and  C_2
REMARK    2  A    between atoms: C_2  and  C_3
REMARK    3  A    between atoms: C_2  and  C_12
REMARK    4  A    between atoms: C_6  and  C_7
REMARK                            x       y       z     vdW  Elec       q    Type
REMARK                         _______ _______ _______ _____ _____    ______ ____
ROOT
ATOM      1  C   UNL     1       2.922  -0.498   1.544  0.00  0.00    +0.000 A 
ATOM      2  N   UNL     1       2.115  -1.248   2.322  0.00  0.00    +0.000 NA
ATOM      3  C   UNL     1       2.553  -1.519   3.574  0.00  0.00    +0.000 A 
ATOM      4  C   UNL     1       3.773  -1.106   4.060  0.00  0.00    +0.000 A 
ATOM      5  C   UNL     1       4.523  -0.349   3.191  0.00  0.00    +0.000 A 
ATOM      6  N   UNL     1       4.126  -0.031   1.939  0.00  0.00    +0.000 NA
ENDROOT
BRANCH   4   7
ATOM      7  C   UNL     1       4.183  -1.441   5.430  0.00  0.00    +0.000 C 
ATOM      8  N   UNL     1       5.522  -1.466   5.709  0.00  0.00    +0.000 N 
ATOM      9  O   UNL     1       3.355  -1.718   6.288  0.00  0.00    +0.000 OA
ATOM     10  H   UNL     1       6.243  -1.483   5.002  0.00  0.00    +0.000 HD
ATOM     11  H   UNL     1       5.778  -1.790   6.636  0.00  0.00    +0.000 HD
ENDBRANCH   4   7
BRANCH   1  13
ATOM     12  C   UNL     1       0.947   0.059   0.081  0.00  0.00    +0.000 C 
ATOM     13  C   UNL     1       2.468  -0.146   0.137  0.00  0.00    +0.000 C 
BRANCH  13  14
ATOM     14  C   UNL     1       2.964  -1.134  -0.962  0.00  0.00    +0.000 C 
ATOM     15  C   UNL     1       2.403  -2.562  -0.817  0.00  0.00    +0.000 C 
ATOM     16  C   UNL     1       2.931  -3.501  -1.901  0.00  0.00    +0.000 C 
ATOM     17  C   UNL     1       4.454  -3.514  -1.935  0.00  0.00    +0.000 C 
ATOM     18  C   UNL     1       5.004  -2.109  -2.147  0.00  0.00    +0.000 C 
ATOM     19  C   UNL     1       4.503  -1.152  -1.068  0.00  0.00    +0.000 C 
ENDBRANCH  13  14
ENDBRANCH   1  13
TORSDOF 3
