REMARK  Name = 
REMARK  7 active torsions:
REMARK  status: ('A' for Active; 'I' for Inactive)
REMARK    1  A    between atoms: C_2  and  C_3
REMARK    2  A    between atoms: C_3  and  N_4
REMARK    3  A    between atoms: C_3  and  C_18
REMARK    4  A    between atoms: C_5  and  C_7
REMARK    5  A    between atoms: C_21  and  O_22
REMARK    6  A    between atoms: O_22  and  C_23
REMARK    7  A    between atoms: C_23  and  C_24
REMARK                            x       y       z     vdW  Elec       q    Type
REMARK                         _______ _______ _______ _____ _____    ______ ____
ROOT
ATOM      1  C   UNL     1       3.833   0.051   0.069  0.00  0.00    +0.000 C 
ENDROOT
BRANCH   1   2
ATOM      2  C   UNL     1       4.321  -1.309  -0.391  0.00  0.00    +0.000 A 
ATOM      3  C   UNL     1       3.728  -2.491   0.075  0.00  0.00    +0.000 A 
ATOM      4  C   UNL     1       4.160  -3.732  -0.402  0.00  0.00    +0.000 A 
ATOM      5  C   UNL     1       5.174  -3.801  -1.359  0.00  0.00    +0.000 A 
ATOM      6  C   UNL     1       5.816  -2.635  -1.768  0.00  0.00    +0.000 A 
ATOM      7  C   UNL     1       5.386  -1.401  -1.297  0.00  0.00    +0.000 A 
BRANCH   5   8
ATOM      8  O   UNL     1       5.454  -5.045  -1.857  0.00  0.00    +0.000 OA
BRANCH   8   9
ATOM      9  C   UNL     1       6.047  -5.018  -3.164  0.00  0.00    +0.000 C 
BRANCH   9  10
ATOM     10  C   UNL     1       5.821  -6.330  -3.870  0.00  0.00    +0.000 A 
ATOM     11  C   UNL     1       4.522  -6.800  -4.053  0.00  0.00    +0.000 A 
ATOM     12  C   UNL     1       4.333  -7.967  -4.790  0.00  0.00    +0.000 A 
ATOM     13  C   UNL     1       5.436  -8.623  -5.325  0.00  0.00    +0.000 A 
ATOM     14  C   UNL     1       6.693  -8.084  -5.097  0.00  0.00    +0.000 A 
ATOM     15  N   UNL     1       6.910  -6.959  -4.385  0.00  0.00    +0.000 NA
ENDBRANCH   9  10
ENDBRANCH   8   9
ENDBRANCH   5   8
ENDBRANCH   1   2
BRANCH   1  16
ATOM     16  N   UNL     1       3.286   0.821  -1.025  0.00  0.00    +0.000 N 
ATOM     17  C   UNL     1       1.993   0.681  -1.445  0.00  0.00    +0.000 C 
ATOM     18  O   UNL     1       1.160   0.051  -0.798  0.00  0.00    +0.000 OA
ATOM     19  H   UNL     1       3.963   1.162  -1.706  0.00  0.00    +0.000 HD
BRANCH  17  20
ATOM     20  C   UNL     1       1.640   1.412  -2.667  0.00  0.00    +0.000 A 
ATOM     21  C   UNL     1       0.346   1.872  -2.857  0.00  0.00    +0.000 A 
ATOM     22  S   UNL     1       0.146   2.753  -4.304  0.00  0.00    +0.000 S 
ATOM     23  C   UNL     1       1.773   2.508  -4.753  0.00  0.00    +0.000 A 
ATOM     24  N   UNL     1       2.253   3.014  -5.920  0.00  0.00    +0.000 NA
ATOM     25  C   UNL     1       3.499   2.723  -6.147  0.00  0.00    +0.000 A 
ATOM     26  N   UNL     1       4.291   1.973  -5.304  0.00  0.00    +0.000 N 
ATOM     27  O   UNL     1       5.614   1.773  -5.698  0.00  0.00    +0.000 OA
ATOM     28  C   UNL     1       3.866   1.467  -4.079  0.00  0.00    +0.000 A 
ATOM     29  O   UNL     1       4.544   0.864  -3.250  0.00  0.00    +0.000 OA
ATOM     30  C   UNL     1       2.460   1.770  -3.805  0.00  0.00    +0.000 A 
ENDBRANCH  17  20
ENDBRANCH   1  16
BRANCH   1  32
ATOM     31  N   UNL     1       5.913   1.449   1.274  0.00  0.00    +0.000 NA
ATOM     32  C   UNL     1       4.970   0.815   0.728  0.00  0.00    +0.000 C 
ENDBRANCH   1  32
TORSDOF 7
