REMARK  Name = 
REMARK  3 active torsions:
REMARK  status: ('A' for Active; 'I' for Inactive)
REMARK    1  A    between atoms: C_2  and  C_4
REMARK    2  A    between atoms: N_8  and  C_9
REMARK    3  A    between atoms: C_9  and  C_10
REMARK                            x       y       z     vdW  Elec       q    Type
REMARK                         _______ _______ _______ _____ _____    ______ ____
ROOT
ATOM      1  C   UNL     1       3.567   3.683   0.281  0.00  0.00    +0.000 A 
ATOM      2  C   UNL     1       2.807   3.707   1.448  0.00  0.00    +0.000 A 
ATOM      3  C   UNL     1       3.397   3.326   2.656  0.00  0.00    +0.000 A 
ATOM      4  C   UNL     1       4.727   2.920   2.680  0.00  0.00    +0.000 A 
ATOM      5  N   UNL     1       5.354   2.421   3.822  0.00  0.00    +0.000 N 
ATOM      6  N   UNL     1       5.471   2.895   1.552  0.00  0.00    +0.000 NA
ATOM      7  C   UNL     1       4.883   3.265   0.385  0.00  0.00    +0.000 A 
ATOM      8  H   UNL     1       6.334   2.277   3.591  0.00  0.00    +0.000 HD
ENDROOT
BRANCH   1  10
ATOM      9  N   UNL     1       1.933   4.860  -1.082  0.00  0.00    +0.000 N 
ATOM     10  C   UNL     1       3.021   4.032  -1.046  0.00  0.00    +0.000 C 
ATOM     11  O   UNL     1       3.535   3.621  -2.078  0.00  0.00    +0.000 OA
ATOM     12  H   UNL     1       1.620   5.155  -1.999  0.00  0.00    +0.000 HD
ATOM     13  H   UNL     1       1.628   5.403  -0.287  0.00  0.00    +0.000 HD
ENDBRANCH   1  10
BRANCH   5  14
ATOM     14  C   UNL     1       5.072   2.831   5.210  0.00  0.00    +0.000 C 
ATOM     15  C   UNL     1       4.948   1.667   6.193  0.00  0.00    +0.000 C 
ATOM     16  C   UNL     1       3.763   2.530   5.923  0.00  0.00    +0.000 C 
BRANCH  14  17
ATOM     17  C   UNL     1       5.863   4.059   5.696  0.00  0.00    +0.000 A 
ATOM     18  C   UNL     1       5.342   5.347   5.544  0.00  0.00    +0.000 A 
ATOM     19  C   UNL     1       6.020   6.439   6.081  0.00  0.00    +0.000 A 
ATOM     20  C   UNL     1       7.218   6.231   6.749  0.00  0.00    +0.000 A 
ATOM     21  C   UNL     1       7.696   4.936   6.836  0.00  0.00    +0.000 A 
ATOM     22  N   UNL     1       7.053   3.862   6.327  0.00  0.00    +0.000 NA
ENDBRANCH  14  17
ENDBRANCH   5  14
TORSDOF 3
