REMARK  Name = 
REMARK  10 active torsions:
REMARK  status: ('A' for Active; 'I' for Inactive)
REMARK    1  A    between atoms: C_1  and  O_2
REMARK    2  A    between atoms: O_2  and  C_3
REMARK    3  A    between atoms: C_10  and  C_11
REMARK    4  A    between atoms: N_13  and  C_14
REMARK    5  A    between atoms: C_14  and  C_15
REMARK    6  A    between atoms: C_18  and  O_19
REMARK    7  A    between atoms: O_19  and  C_20
REMARK    8  A    between atoms: C_20  and  C_21
REMARK    9  A    between atoms: C_21  and  N_22
REMARK   10  A    between atoms: C_26  and  C_27
REMARK                            x       y       z     vdW  Elec       q    Type
REMARK                         _______ _______ _______ _____ _____    ______ ____
ROOT
ATOM      1  C   UNL     1       1.877  -3.421  -0.524  0.00  0.00    +0.000 A 
ATOM      2  C   UNL     1       1.733  -4.718  -0.009  0.00  0.00    +0.000 A 
ATOM      3  C   UNL     1       0.800  -4.988   1.003  0.00  0.00    +0.000 A 
ATOM      4  C   UNL     1       0.011  -3.961   1.520  0.00  0.00    +0.000 A 
ATOM      5  C   UNL     1       0.075  -2.695   0.936  0.00  0.00    +0.000 A 
ATOM      6  C   UNL     1       0.994  -2.427  -0.084  0.00  0.00    +0.000 A 
ENDROOT
BRANCH   1   7
ATOM      7  C   UNL     1       2.981  -3.081  -1.492  0.00  0.00    +0.000 C 
BRANCH   7  10
ATOM      8  C   UNL     1       3.483  -2.972  -3.880  0.00  0.00    +0.000 C 
ATOM      9  O   UNL     1       4.624  -2.599  -3.635  0.00  0.00    +0.000 OA
ATOM     10  N   UNL     1       2.594  -3.239  -2.870  0.00  0.00    +0.000 N 
ATOM     11  H   UNL     1       1.652  -3.540  -3.074  0.00  0.00    +0.000 HD
BRANCH   8  19
ATOM     12  C   UNL     1       0.526  -4.054  -5.298  0.00  0.00    +0.000 A 
ATOM     13  N   UNL     1      -0.482  -4.441  -6.109  0.00  0.00    +0.000 NA
ATOM     14  C   UNL     1      -0.292  -4.374  -7.429  0.00  0.00    +0.000 A 
ATOM     15  N   UNL     1       0.800  -3.957  -8.056  0.00  0.00    +0.000 NA
ATOM     16  C   UNL     1       1.784  -3.593  -7.215  0.00  0.00    +0.000 A 
ATOM     17  S   UNL     1       3.255  -3.036  -7.851  0.00  0.00    +0.000 S 
ATOM     18  C   UNL     1       3.895  -2.810  -6.297  0.00  0.00    +0.000 A 
ATOM     19  C   UNL     1       3.014  -3.136  -5.267  0.00  0.00    +0.000 A 
ATOM     20  C   UNL     1       1.750  -3.608  -5.824  0.00  0.00    +0.000 A 
BRANCH  12  22
ATOM     21  C   UNL     1      -1.071  -4.045  -3.601  0.00  0.00    +0.000 C 
ATOM     22  O   UNL     1       0.316  -4.125  -3.935  0.00  0.00    +0.000 OA
ENDBRANCH  12  22
ENDBRANCH   8  19
ENDBRANCH   7  10
ENDBRANCH   1   7
BRANCH   4  23
ATOM     23  O   UNL     1      -0.855  -4.080   2.574  0.00  0.00    +0.000 OA
BRANCH  23  24
ATOM     24  C   UNL     1      -0.528  -5.078   3.557  0.00  0.00    +0.000 C 
BRANCH  24  25
ATOM     25  C   UNL     1      -1.088  -4.621   4.923  0.00  0.00    +0.000 C 
BRANCH  25  26
ATOM     26  N   UNL     1      -0.750  -5.491   6.064  0.00  0.00    +0.000 NA
ATOM     27  C   UNL     1      -1.349  -6.843   6.017  0.00  0.00    +0.000 C 
ATOM     28  C   UNL     1      -2.835  -6.961   6.423  0.00  0.00    +0.000 C 
ATOM     29  N   UNL     1      -3.153  -6.219   7.649  0.00  0.00    +0.000 N 
ATOM     30  C   UNL     1      -4.072  -6.756   8.534  0.00  0.00    +0.000 C 
ATOM     31  C   UNL     1      -4.441  -5.993   9.785  0.00  0.00    +0.000 C 
ATOM     32  O   UNL     1      -4.572  -7.870   8.357  0.00  0.00    +0.000 OA
ATOM     33  C   UNL     1      -2.609  -4.860   7.685  0.00  0.00    +0.000 C 
ATOM     34  C   UNL     1      -1.105  -4.856   7.353  0.00  0.00    +0.000 C 
ENDBRANCH  25  26
ENDBRANCH  24  25
ENDBRANCH  23  24
ENDBRANCH   4  23
TORSDOF 8
