REMARK  Name = 
REMARK  4 active torsions:
REMARK  status: ('A' for Active; 'I' for Inactive)
REMARK    1  A    between atoms: C_2  and  C_4
REMARK    2  A    between atoms: N_8  and  C_9
REMARK    3  A    between atoms: C_9  and  C_10
REMARK    4  A    between atoms: C_14  and  C_15
REMARK                            x       y       z     vdW  Elec       q    Type
REMARK                         _______ _______ _______ _____ _____    ______ ____
ROOT
ATOM      1  C   UNL     1       4.944   0.229  -5.869  0.00  0.00    +0.000 C 
ENDROOT
BRANCH   1   6
ATOM      2  C   UNL     1       7.217  -1.004  -1.436  0.00  0.00    +0.000 A 
ATOM      3  C   UNL     1       6.264  -1.711  -2.159  0.00  0.00    +0.000 A 
ATOM      4  C   UNL     1       5.662  -1.111  -3.264  0.00  0.00    +0.000 A 
ATOM      5  C   UNL     1       6.027   0.177  -3.638  0.00  0.00    +0.000 A 
ATOM      6  N   UNL     1       5.420   0.880  -4.656  0.00  0.00    +0.000 N 
ATOM      7  N   UNL     1       6.946   0.875  -2.940  0.00  0.00    +0.000 NA
ATOM      8  C   UNL     1       7.513   0.282  -1.854  0.00  0.00    +0.000 A 
ATOM      9  H   UNL     1       5.942   1.741  -4.789  0.00  0.00    +0.000 HD
BRANCH   2  11
ATOM     10  N   UNL     1       7.968  -2.914  -0.135  0.00  0.00    +0.000 N 
ATOM     11  C   UNL     1       7.878  -1.552  -0.233  0.00  0.00    +0.000 C 
ATOM     12  O   UNL     1       8.348  -0.823   0.630  0.00  0.00    +0.000 OA
ATOM     13  H   UNL     1       8.498  -3.277   0.647  0.00  0.00    +0.000 HD
ATOM     14  H   UNL     1       7.814  -3.527  -0.923  0.00  0.00    +0.000 HD
ENDBRANCH   2  11
ENDBRANCH   1   6
BRANCH   1  15
ATOM     15  C   UNL     1       6.010   0.033  -6.929  0.00  0.00    +0.000 A 
ATOM     16  C   UNL     1       6.683   1.128  -7.460  0.00  0.00    +0.000 A 
ATOM     17  C   UNL     1       7.594   0.920  -8.486  0.00  0.00    +0.000 A 
ATOM     18  C   UNL     1       7.813  -0.373  -8.952  0.00  0.00    +0.000 A 
ATOM     19  C   UNL     1       7.121  -1.438  -8.374  0.00  0.00    +0.000 A 
ATOM     20  N   UNL     1       6.206  -1.232  -7.391  0.00  0.00    +0.000 NA
BRANCH  19  21
ATOM     21  C   UNL     1       7.325  -2.859  -8.901  0.00  0.00    +0.000 C 
ATOM     22  C   UNL     1       6.522  -3.938  -8.150  0.00  0.00    +0.000 C 
ATOM     23  C   UNL     1       7.118  -4.237  -6.774  0.00  0.00    +0.000 C 
ATOM     24  C   UNL     1       8.623  -4.503  -6.831  0.00  0.00    +0.000 C 
ATOM     25  N   UNL     1       9.365  -3.496  -7.588  0.00  0.00    +0.000 NA
ATOM     26  C   UNL     1       8.804  -3.302  -8.927  0.00  0.00    +0.000 C 
ATOM     27  H   UNL     1      10.342  -3.778  -7.661  0.00  0.00    +0.000 HD
ENDBRANCH  19  21
ENDBRANCH   1  15
TORSDOF 4
