REMARK  Name = 
REMARK  6 active torsions:
REMARK  status: ('A' for Active; 'I' for Inactive)
REMARK    1  A    between atoms: C_1  and  C_2
REMARK    2  A    between atoms: C_2  and  C_3
REMARK    3  A    between atoms: C_6  and  O_7
REMARK    4  A    between atoms: O_7  and  C_8
REMARK    5  A    between atoms: C_15  and  N_16
REMARK    6  A    between atoms: C_20  and  C_21
REMARK                            x       y       z     vdW  Elec       q    Type
REMARK                         _______ _______ _______ _____ _____    ______ ____
ROOT
ATOM      1  C   UNL     1       3.042   0.140  -1.618  0.00  0.00    +0.000 C 
ATOM      2  C   UNL     1       2.546  -0.013  -0.172  0.00  0.00    +0.000 C 
ATOM      3  C   UNL     1       3.059  -1.313   0.459  0.00  0.00    +0.000 C 
ATOM      4  C   UNL     1       4.315  -0.931   1.226  0.00  0.00    +0.000 C 
ATOM      5  C   UNL     1       4.382   0.591   1.126  0.00  0.00    +0.000 C 
ATOM      6  O   UNL     1       3.144   1.053   0.589  0.00  0.00    +0.000 OA
ENDROOT
BRANCH   4   7
ATOM      7  N   UNL     1       5.502  -1.590   0.682  0.00  0.00    +0.000 N 
ATOM      8  C   UNL     1       6.664  -1.314   1.398  0.00  0.00    +0.000 A 
ATOM      9  N   UNL     1       6.587  -1.035   2.708  0.00  0.00    +0.000 NA
ATOM     10  C   UNL     1       7.728  -0.682   3.337  0.00  0.00    +0.000 A 
ATOM     11  C   UNL     1       8.950  -0.615   2.712  0.00  0.00    +0.000 A 
ATOM     12  C   UNL     1       8.926  -0.913   1.369  0.00  0.00    +0.000 A 
ATOM     13  N   UNL     1       7.803  -1.261   0.693  0.00  0.00    +0.000 NA
ATOM     14  H   UNL     1       5.716  -1.409  -0.295  0.00  0.00    +0.000 HD
BRANCH  11  15
ATOM     15  C   UNL     1      10.140  -0.203   3.463  0.00  0.00    +0.000 C 
ATOM     16  N   UNL     1      11.364  -0.591   2.999  0.00  0.00    +0.000 N 
ATOM     17  O   UNL     1      10.034   0.443   4.498  0.00  0.00    +0.000 OA
ATOM     18  H   UNL     1      11.498  -1.312   2.305  0.00  0.00    +0.000 HD
ATOM     19  H   UNL     1      12.155  -0.375   3.596  0.00  0.00    +0.000 HD
ENDBRANCH  11  15
ENDBRANCH   4   7
BRANCH   2  20
ATOM     20  C   UNL     1       1.024   0.096  -0.098  0.00  0.00    +0.000 A 
ATOM     21  C   UNL     1       0.398   1.134   0.615  0.00  0.00    +0.000 A 
ATOM     22  C   UNL     1      -0.996   1.235   0.697  0.00  0.00    +0.000 A 
ATOM     23  C   UNL     1      -1.802   0.318   0.029  0.00  0.00    +0.000 A 
ATOM     24  C   UNL     1      -1.196  -0.740  -0.653  0.00  0.00    +0.000 A 
ATOM     25  C   UNL     1       0.197  -0.850  -0.722  0.00  0.00    +0.000 A 
BRANCH  23  26
ATOM     26  O   UNL     1      -3.162   0.309   0.002  0.00  0.00    +0.000 OA
BRANCH  26  27
ATOM     27  C   UNL     1      -3.880   1.526   0.139  0.00  0.00    +0.000 C 
ATOM     28  F   UNL     1      -3.125   2.638   0.019  0.00  0.00    +0.000 F 
ATOM     29  F   UNL     1      -4.827   1.570  -0.826  0.00  0.00    +0.000 F 
ATOM     30  F   UNL     1      -4.505   1.549   1.337  0.00  0.00    +0.000 F 
ENDBRANCH  26  27
ENDBRANCH  23  26
ENDBRANCH   2  20
TORSDOF 5
