REMARK  Name = 
REMARK  7 active torsions:
REMARK  status: ('A' for Active; 'I' for Inactive)
REMARK    1  A    between atoms: C_1  and  O_2
REMARK    2  A    between atoms: O_2  and  C_3
REMARK    3  A    between atoms: N_10  and  C_11
REMARK    4  A    between atoms: C_11  and  C_12
REMARK    5  A    between atoms: C_15  and  C_16
REMARK    6  A    between atoms: C_16  and  N_17
REMARK    7  A    between atoms: C_18  and  C_20
REMARK                            x       y       z     vdW  Elec       q    Type
REMARK                         _______ _______ _______ _____ _____    ______ ____
ROOT
ATOM      1  C   UNL     1       4.317  -4.177   0.491  0.00  0.00    +0.000 A 
ATOM      2  C   UNL     1       4.566  -5.541   0.501  0.00  0.00    +0.000 A 
ATOM      3  C   UNL     1       4.139  -6.290   1.580  0.00  0.00    +0.000 A 
ATOM      4  C   UNL     1       3.483  -5.674   2.659  0.00  0.00    +0.000 A 
ATOM      5  C   UNL     1       3.295  -4.280   2.579  0.00  0.00    +0.000 A 
ATOM      6  N   UNL     1       3.687  -3.533   1.514  0.00  0.00    +0.000 NA
ENDROOT
BRANCH   1   7
ATOM      7  C   UNL     1       4.880  -3.363  -0.648  0.00  0.00    +0.000 C 
BRANCH   7  15
ATOM      8  C   UNL     1       2.995  -2.891  -4.731  0.00  0.00    +0.000 A 
ATOM      9  C   UNL     1       1.981  -3.178  -5.630  0.00  0.00    +0.000 A 
ATOM     10  C   UNL     1       1.456  -4.441  -5.317  0.00  0.00    +0.000 A 
ATOM     11  C   UNL     1       2.173  -4.918  -4.247  0.00  0.00    +0.000 A 
ATOM     12  N   UNL     1       3.149  -3.989  -3.876  0.00  0.00    +0.000 N 
ATOM     13  C   UNL     1       4.053  -4.186  -2.795  0.00  0.00    +0.000 C 
ATOM     14  O   UNL     1       4.823  -5.139  -2.808  0.00  0.00    +0.000 OA
ATOM     15  N   UNL     1       3.993  -3.253  -1.789  0.00  0.00    +0.000 N 
ATOM     16  H   UNL     1       3.396  -2.432  -1.849  0.00  0.00    +0.000 HD
BRANCH   8  18
ATOM     17  C   UNL     1       3.450  -0.770  -5.553  0.00  0.00    +0.000 C 
ATOM     18  O   UNL     1       3.750  -1.795  -4.604  0.00  0.00    +0.000 OA
ENDBRANCH   8  18
ENDBRANCH   7  15
ENDBRANCH   1   7
BRANCH   4  19
ATOM     19  C   UNL     1       2.988  -6.486   3.846  0.00  0.00    +0.000 C 
BRANCH  19  20
ATOM     20  N   UNL     1       3.958  -6.651   4.967  0.00  0.00    +0.000 N 
ATOM     21  C   UNL     1       3.654  -7.373   6.135  0.00  0.00    +0.000 C 
ATOM     22  O   UNL     1       2.549  -7.893   6.247  0.00  0.00    +0.000 OA
ATOM     23  H   UNL     1       4.885  -6.273   4.865  0.00  0.00    +0.000 HD
BRANCH  21  24
ATOM     24  C   UNL     1       4.715  -7.373   7.248  0.00  0.00    +0.000 A 
ATOM     25  C   UNL     1       4.447  -8.085   8.434  0.00  0.00    +0.000 A 
ATOM     26  S   UNL     1       5.792  -8.152   9.519  0.00  0.00    +0.000 S 
ATOM     27  C   UNL     1       6.846  -7.279   8.509  0.00  0.00    +0.000 A 
ATOM     28  N   UNL     1       8.235  -7.082   8.716  0.00  0.00    +0.000 NA
ATOM     29  C   UNL     1       8.312  -6.224   7.790  0.00  0.00    +0.000 A 
ATOM     30  N   UNL     1       8.485  -5.281   6.932  0.00  0.00    +0.000 N 
ATOM     31  C   UNL     1       7.198  -5.702   6.468  0.00  0.00    +0.000 A 
ATOM     32  O   UNL     1       6.855  -5.530   5.310  0.00  0.00    +0.000 OA
ATOM     33  C   UNL     1       6.159  -6.728   7.384  0.00  0.00    +0.000 A 
ATOM     34  H   UNL     1       9.568  -5.403   7.155  0.00  0.00    +0.000 HD
ENDBRANCH  21  24
ENDBRANCH  19  20
ENDBRANCH   4  19
TORSDOF 6
