REMARK  Name = 
REMARK  10 active torsions:
REMARK  status: ('A' for Active; 'I' for Inactive)
REMARK    1  A    between atoms: N_1  and  C_2
REMARK    2  A    between atoms: C_2  and  C_3
REMARK    3  A    between atoms: C_3  and  N_4
REMARK    4  A    between atoms: N_4  and  C_5
REMARK    5  A    between atoms: N_4  and  C_26
REMARK    6  A    between atoms: C_5  and  C_6
REMARK    7  A    between atoms: C_9  and  C_10
REMARK    8  A    between atoms: C_10  and  N_11
REMARK    9  A    between atoms: C_12  and  C_14
REMARK   10  A    between atoms: C_26  and  C_27
REMARK                            x       y       z     vdW  Elec       q    Type
REMARK                         _______ _______ _______ _____ _____    ______ ____
ROOT
ATOM      1  C   UNL     1       4.812  -1.356   0.038  0.00  0.00    +0.000 A 
ATOM      2  C   UNL     1       4.693  -2.737  -0.121  0.00  0.00    +0.000 A 
ATOM      3  C   UNL     1       4.394  -3.535   0.983  0.00  0.00    +0.000 A 
ATOM      4  C   UNL     1       4.220  -2.931   2.226  0.00  0.00    +0.000 A 
ATOM      5  N   UNL     1       4.358  -1.595   2.411  0.00  0.00    +0.000 NA
ATOM      6  C   UNL     1       4.656  -0.850   1.326  0.00  0.00    +0.000 A 
ENDROOT
BRANCH   1   7
ATOM      7  C   UNL     1       5.053  -0.428  -1.128  0.00  0.00    +0.000 C 
BRANCH   7   8
ATOM      8  N   UNL     1       3.826   0.014  -1.827  0.00  0.00    +0.000 NA
BRANCH   8   9
ATOM      9  C   UNL     1       4.175   0.805  -3.034  0.00  0.00    +0.000 C 
BRANCH   9  10
ATOM     10  C   UNL     1       4.912   2.147  -2.802  0.00  0.00    +0.000 C 
BRANCH  10  11
ATOM     11  N   UNL     1       5.161   2.871  -4.050  0.00  0.00    +0.000 NA
ATOM     12  H   UNL     1       5.681   3.722  -3.834  0.00  0.00    +0.000 HD
ATOM     13  H   UNL     1       4.267   3.187  -4.427  0.00  0.00    +0.000 HD
ENDBRANCH  10  11
ENDBRANCH   9  10
ENDBRANCH   8   9
BRANCH   8  14
ATOM     14  C   UNL     1       2.924   0.760  -0.918  0.00  0.00    +0.000 C 
BRANCH  14  15
ATOM     15  C   UNL     1       1.606   1.226  -1.511  0.00  0.00    +0.000 A 
ATOM     16  C   UNL     1       0.679   0.297  -1.982  0.00  0.00    +0.000 A 
ATOM     17  C   UNL     1      -0.558   0.752  -2.429  0.00  0.00    +0.000 A 
ATOM     18  C   UNL     1      -0.836   2.113  -2.395  0.00  0.00    +0.000 A 
ATOM     19  C   UNL     1       0.144   2.970  -1.926  0.00  0.00    +0.000 A 
ATOM     20  N   UNL     1       1.355   2.561  -1.488  0.00  0.00    +0.000 NA
ENDBRANCH  14  15
ENDBRANCH   8  14
ENDBRANCH   7   8
ENDBRANCH   1   7
BRANCH   4  21
ATOM     21  C   UNL     1       3.794  -3.745   3.423  0.00  0.00    +0.000 C 
BRANCH  21  22
ATOM     22  N   UNL     1       2.354  -3.820   3.540  0.00  0.00    +0.000 N 
ATOM     23  C   UNL     1       1.635  -4.891   3.080  0.00  0.00    +0.000 C 
ATOM     24  O   UNL     1       2.175  -5.856   2.551  0.00  0.00    +0.000 OA
ATOM     25  H   UNL     1       1.883  -2.943   3.743  0.00  0.00    +0.000 HD
BRANCH  23  26
ATOM     26  C   UNL     1       0.184  -4.860   3.318  0.00  0.00    +0.000 A 
ATOM     27  C   UNL     1      -0.527  -6.052   3.332  0.00  0.00    +0.000 A 
ATOM     28  S   UNL     1      -2.188  -5.859   3.663  0.00  0.00    +0.000 S 
ATOM     29  C   UNL     1      -2.028  -4.169   3.754  0.00  0.00    +0.000 A 
ATOM     30  N   UNL     1      -3.107  -3.377   3.987  0.00  0.00    +0.000 NA
ATOM     31  C   UNL     1      -2.851  -2.110   4.000  0.00  0.00    +0.000 A 
ATOM     32  N   UNL     1      -1.607  -1.567   3.808  0.00  0.00    +0.000 N 
ATOM     33  C   UNL     1      -0.479  -2.330   3.619  0.00  0.00    +0.000 A 
ATOM     34  O   UNL     1       0.631  -1.815   3.536  0.00  0.00    +0.000 OA
ATOM     35  C   UNL     1      -0.718  -3.758   3.562  0.00  0.00    +0.000 A 
ATOM     36  H   UNL     1      -1.464  -0.568   3.852  0.00  0.00    +0.000 HD
ENDBRANCH  23  26
ENDBRANCH  21  22
ENDBRANCH   4  21
TORSDOF 10
