REMARK  Name = 
REMARK  9 active torsions:
REMARK  status: ('A' for Active; 'I' for Inactive)
REMARK    1  A    between atoms: C_1  and  C_2
REMARK    2  A    between atoms: C_2  and  C_3
REMARK    3  A    between atoms: C_6  and  O_7
REMARK    4  A    between atoms: O_7  and  C_8
REMARK    5  A    between atoms: C_10  and  C_11
REMARK    6  A    between atoms: C_11  and  C_14
REMARK    7  A    between atoms: C_14  and  N_15
REMARK    8  A    between atoms: C_19  and  C_20
REMARK    9  A    between atoms: C_27  and  C_28
REMARK                            x       y       z     vdW  Elec       q    Type
REMARK                         _______ _______ _______ _____ _____    ______ ____
ROOT
ATOM      1  C   UNL     1       4.471   2.545  -0.678  0.00  0.00    +0.000 A 
ATOM      2  C   UNL     1       4.973   1.421  -1.361  0.00  0.00    +0.000 A 
ATOM      3  C   UNL     1       5.501   1.521  -2.665  0.00  0.00    +0.000 A 
ATOM      4  C   UNL     1       5.561   2.784  -3.264  0.00  0.00    +0.000 A 
ATOM      5  C   UNL     1       5.135   3.915  -2.562  0.00  0.00    +0.000 A 
ATOM      6  C   UNL     1       4.602   3.815  -1.257  0.00  0.00    +0.000 A 
ENDROOT
BRANCH   6   7
ATOM      7  C   UNL     1       4.219   5.097  -0.555  0.00  0.00    +0.000 C 
ATOM      8  F   UNL     1       3.772   4.970   0.723  0.00  0.00    +0.000 F 
ATOM      9  F   UNL     1       5.273   5.964  -0.484  0.00  0.00    +0.000 F 
ATOM     10  F   UNL     1       3.242   5.775  -1.223  0.00  0.00    +0.000 F 
ENDBRANCH   6   7
BRANCH   3  11
ATOM     11  C   UNL     1       5.951   0.279  -3.430  0.00  0.00    +0.000 C 
ATOM     12  F   UNL     1       6.934   0.563  -4.334  0.00  0.00    +0.000 F 
ATOM     13  F   UNL     1       6.491  -0.663  -2.595  0.00  0.00    +0.000 F 
BRANCH  11  14
ATOM     14  C   UNL     1       4.751  -0.369  -4.170  0.00  0.00    +0.000 C 
BRANCH  14  15
ATOM     15  N   UNL     1       5.073  -1.609  -4.929  0.00  0.00    +0.000 N 
ATOM     16  C   UNL     1       3.934  -2.202  -5.507  0.00  0.00    +0.000 A 
ATOM     17  C   UNL     1       4.032  -3.376  -6.271  0.00  0.00    +0.000 A 
ATOM     18  N   UNL     1       2.973  -3.998  -6.871  0.00  0.00    +0.000 NA
ATOM     19  C   UNL     1       1.780  -3.370  -6.689  0.00  0.00    +0.000 A 
ATOM     20  C   UNL     1       1.668  -2.202  -5.956  0.00  0.00    +0.000 A 
ATOM     21  N   UNL     1       2.732  -1.603  -5.361  0.00  0.00    +0.000 NA
ATOM     22  H   UNL     1       5.579  -2.288  -4.358  0.00  0.00    +0.000 HD
BRANCH  19  23
ATOM     23  C   UNL     1       0.550  -3.971  -7.284  0.00  0.00    +0.000 C 
ATOM     24  N   UNL     1       0.711  -5.120  -7.999  0.00  0.00    +0.000 N 
ATOM     25  O   UNL     1      -0.555  -3.455  -7.142  0.00  0.00    +0.000 OA
ATOM     26  H   UNL     1       1.635  -5.537  -8.098  0.00  0.00    +0.000 HD
ATOM     27  H   UNL     1      -0.097  -5.568  -8.406  0.00  0.00    +0.000 HD
ENDBRANCH  19  23
ENDBRANCH  14  15
ENDBRANCH  11  14
ENDBRANCH   3  11
BRANCH   1  28
ATOM     28  O   UNL     1       3.842   2.456   0.551  0.00  0.00    +0.000 OA
BRANCH  28  34
ATOM     29  C   UNL     1       2.626   0.154   3.199  0.00  0.00    +0.000 C 
ATOM     30  C   UNL     1       2.206   1.133   2.102  0.00  0.00    +0.000 C 
ATOM     31  C   UNL     1       1.593   2.392   2.702  0.00  0.00    +0.000 C 
ATOM     32  O   UNL     1       1.219   0.488   1.244  0.00  0.00    +0.000 OA
ATOM     33  C   UNL     1       2.035   0.713   0.076  0.00  0.00    +0.000 C 
ATOM     34  C   UNL     1       3.226   1.193   0.917  0.00  0.00    +0.000 C 
ENDBRANCH  28  34
ENDBRANCH   1  28
TORSDOF 7
