REMARK  Name = 
REMARK  5 active torsions:
REMARK  status: ('A' for Active; 'I' for Inactive)
REMARK    1  A    between atoms: N_1  and  C_2
REMARK    2  A    between atoms: C_2  and  C_3
REMARK    3  A    between atoms: C_6  and  C_7
REMARK    4  A    between atoms: C_7  and  N_8
REMARK    5  A    between atoms: C_13  and  C_14
REMARK                            x       y       z     vdW  Elec       q    Type
REMARK                         _______ _______ _______ _____ _____    ______ ____
ROOT
ATOM      1  N   UNL     1       2.738  -5.261   2.375  0.00  0.00    +0.000 N 
ATOM      2  N   UNL     1       2.990  -6.544   2.054  0.00  0.00    +0.000 NA
ATOM      3  N   UNL     1       1.956  -7.270   2.460  0.00  0.00    +0.000 NA
ATOM      4  C   UNL     1       1.070  -6.434   3.082  0.00  0.00    +0.000 A 
ATOM      5  C   UNL     1      -0.162  -6.713   3.693  0.00  0.00    +0.000 A 
ATOM      6  C   UNL     1      -0.861  -5.662   4.308  0.00  0.00    +0.000 A 
ATOM      7  C   UNL     1      -0.337  -4.357   4.277  0.00  0.00    +0.000 A 
ATOM      8  C   UNL     1       0.879  -4.060   3.644  0.00  0.00    +0.000 A 
ATOM      9  C   UNL     1       1.558  -5.131   3.062  0.00  0.00    +0.000 A 
ENDROOT
BRANCH   6  10
ATOM     10  C   UNL     1      -2.153  -5.871   5.023  0.00  0.00    +0.000 C 
ATOM     11  N   UNL     1      -2.665  -7.135   5.096  0.00  0.00    +0.000 N 
ATOM     12  O   UNL     1      -2.751  -4.939   5.550  0.00  0.00    +0.000 OA
ATOM     13  H   UNL     1      -2.241  -7.965   4.716  0.00  0.00    +0.000 HD
ATOM     14  H   UNL     1      -3.534  -7.244   5.607  0.00  0.00    +0.000 HD
ENDBRANCH   6  10
BRANCH   1  15
ATOM     15  C   UNL     1       3.675  -4.223   2.003  0.00  0.00    +0.000 C 
BRANCH  15  19
ATOM     16  C   UNL     1       3.083  -1.320  -0.287  0.00  0.00    +0.000 C 
ATOM     17  C   UNL     1       2.071  -2.451  -0.022  0.00  0.00    +0.000 C 
ATOM     18  C   UNL     1       2.647  -3.834  -0.320  0.00  0.00    +0.000 C 
ATOM     19  C   UNL     1       3.926  -4.111   0.483  0.00  0.00    +0.000 C 
ATOM     20  C   UNL     1       4.964  -3.018   0.177  0.00  0.00    +0.000 C 
ATOM     21  C   UNL     1       4.429  -1.603   0.408  0.00  0.00    +0.000 C 
BRANCH  16  22
ATOM     22  C   UNL     1       3.264  -1.052  -1.795  0.00  0.00    +0.000 C 
BRANCH  22  23
ATOM     23  N   UNL     1       1.997  -0.644  -2.395  0.00  0.00    +0.000 NA
ATOM     24  H   UNL     1       2.124  -0.455  -3.388  0.00  0.00    +0.000 HD
ATOM     25  H   UNL     1       1.674   0.222  -1.968  0.00  0.00    +0.000 HD
ENDBRANCH  22  23
ENDBRANCH  16  22
ENDBRANCH  15  19
ENDBRANCH   1  15
TORSDOF 5
