REMARK  Name = 
REMARK  4 active torsions:
REMARK  status: ('A' for Active; 'I' for Inactive)
REMARK    1  A    between atoms: C_2  and  C_4
REMARK    2  A    between atoms: C_7  and  N_8
REMARK    3  A    between atoms: N_8  and  C_9
REMARK    4  A    between atoms: C_9  and  C_10
REMARK                            x       y       z     vdW  Elec       q    Type
REMARK                         _______ _______ _______ _____ _____    ______ ____
ROOT
ATOM      1  C   UNL     1       4.410   1.559  -6.940  0.00  0.00    +0.000 A 
ATOM      2  C   UNL     1       4.143   0.913  -5.745  0.00  0.00    +0.000 A 
ATOM      3  N   UNL     1       4.138   1.558  -4.547  0.00  0.00    +0.000 NA
ATOM      4  C   UNL     1       4.470   2.868  -4.565  0.00  0.00    +0.000 A 
ATOM      5  C   UNL     1       4.765   3.494  -5.791  0.00  0.00    +0.000 A 
ATOM      6  N   UNL     1       4.734   2.879  -6.997  0.00  0.00    +0.000 NA
ENDROOT
BRANCH   1   8
ATOM      7  N   UNL     1       4.487   1.623  -9.349  0.00  0.00    +0.000 N 
ATOM      8  C   UNL     1       4.275   0.853  -8.239  0.00  0.00    +0.000 C 
ATOM      9  O   UNL     1       3.962  -0.332  -8.316  0.00  0.00    +0.000 OA
ATOM     10  H   UNL     1       4.309   1.244 -10.266  0.00  0.00    +0.000 HD
ATOM     11  H   UNL     1       4.688   2.616  -9.236  0.00  0.00    +0.000 HD
ENDBRANCH   1   8
BRANCH   4  12
ATOM     12  N   UNL     1       4.423   3.573  -3.339  0.00  0.00    +0.000 N 
ATOM     13  H   UNL     1       3.449   3.807  -3.170  0.00  0.00    +0.000 HD
BRANCH  12  14
ATOM     14  C   UNL     1       5.379   4.706  -3.161  0.00  0.00    +0.000 C 
ATOM     15  C   UNL     1       5.079   5.866  -2.234  0.00  0.00    +0.000 C 
ATOM     16  C   UNL     1       4.944   6.054  -3.709  0.00  0.00    +0.000 C 
BRANCH  14  17
ATOM     17  C   UNL     1       6.822   4.212  -3.259  0.00  0.00    +0.000 A 
ATOM     18  C   UNL     1       7.309   3.325  -2.288  0.00  0.00    +0.000 A 
ATOM     19  N   UNL     1       8.369   2.504  -2.478  0.00  0.00    +0.000 NA
ATOM     20  C   UNL     1       8.926   2.575  -3.703  0.00  0.00    +0.000 A 
ATOM     21  C   UNL     1       8.514   3.498  -4.649  0.00  0.00    +0.000 A 
ATOM     22  N   UNL     1       7.482   4.347  -4.443  0.00  0.00    +0.000 NA
ENDBRANCH  14  17
ENDBRANCH  12  14
ENDBRANCH   4  12
TORSDOF 4
