REMARK  Name = 
REMARK  9 active torsions:
REMARK  status: ('A' for Active; 'I' for Inactive)
REMARK    1  A    between atoms: C_1  and  O_2
REMARK    2  A    between atoms: O_2  and  C_3
REMARK    3  A    between atoms: C_10  and  C_11
REMARK    4  A    between atoms: N_13  and  C_14
REMARK    5  A    between atoms: C_14  and  C_15
REMARK    6  A    between atoms: C_18  and  C_19
REMARK    7  A    between atoms: C_19  and  N_20
REMARK    8  A    between atoms: N_20  and  C_21
REMARK    9  A    between atoms: C_21  and  C_22
REMARK                            x       y       z     vdW  Elec       q    Type
REMARK                         _______ _______ _______ _____ _____    ______ ____
ROOT
ATOM      1  C   UNL     1       3.382  -3.263   0.153  0.00  0.00    +0.000 C 
ENDROOT
BRANCH   1   2
ATOM      2  C   UNL     1       2.371  -3.151   1.267  0.00  0.00    +0.000 A 
ATOM      3  C   UNL     1       1.645  -4.275   1.685  0.00  0.00    +0.000 A 
ATOM      4  C   UNL     1       0.665  -4.162   2.676  0.00  0.00    +0.000 A 
ATOM      5  C   UNL     1       0.380  -2.922   3.266  0.00  0.00    +0.000 A 
ATOM      6  C   UNL     1       1.105  -1.799   2.848  0.00  0.00    +0.000 A 
ATOM      7  C   UNL     1       2.087  -1.911   1.856  0.00  0.00    +0.000 A 
BRANCH   5   8
ATOM      8  C   UNL     1      -0.698  -2.803   4.322  0.00  0.00    +0.000 C 
BRANCH   8   9
ATOM      9  N   UNL     1      -0.371  -3.612   5.494  0.00  0.00    +0.000 NA
ATOM     10  H   UNL     1       0.532  -3.310   5.858  0.00  0.00    +0.000 HD
BRANCH   9  11
ATOM     11  C   UNL     1      -1.382  -3.491   6.542  0.00  0.00    +0.000 C 
BRANCH  11  12
ATOM     12  C   UNL     1      -1.026  -4.358   7.717  0.00  0.00    +0.000 A 
ATOM     13  C   UNL     1      -0.869  -5.737   7.580  0.00  0.00    +0.000 A 
ATOM     14  C   UNL     1      -0.524  -6.477   8.694  0.00  0.00    +0.000 A 
ATOM     15  N   UNL     1      -0.345  -5.920   9.909  0.00  0.00    +0.000 NA
ATOM     16  N   UNL     1      -0.507  -4.578  10.057  0.00  0.00    +0.000 NA
ATOM     17  C   UNL     1      -0.837  -3.827   8.984  0.00  0.00    +0.000 A 
ENDBRANCH  11  12
ENDBRANCH   9  11
ENDBRANCH   8   9
ENDBRANCH   5   8
ENDBRANCH   1   2
BRANCH   1  20
ATOM     18  C   UNL     1       3.437  -3.094  -2.308  0.00  0.00    +0.000 C 
ATOM     19  O   UNL     1       4.643  -3.333  -2.336  0.00  0.00    +0.000 OA
ATOM     20  N   UNL     1       2.751  -3.052  -1.127  0.00  0.00    +0.000 N 
ATOM     21  H   UNL     1       1.751  -2.905  -1.130  0.00  0.00    +0.000 HD
BRANCH  18  29
ATOM     22  C   UNL     1       0.126  -2.389  -2.954  0.00  0.00    +0.000 A 
ATOM     23  N   UNL     1      -1.063  -2.020  -3.471  0.00  0.00    +0.000 NA
ATOM     24  C   UNL     1      -1.131  -1.780  -4.783  0.00  0.00    +0.000 A 
ATOM     25  N   UNL     1      -0.143  -1.878  -5.668  0.00  0.00    +0.000 NA
ATOM     26  C   UNL     1       1.025  -2.240  -5.112  0.00  0.00    +0.000 A 
ATOM     27  S   UNL     1       2.397  -2.427  -6.095  0.00  0.00    +0.000 S 
ATOM     28  C   UNL     1       3.363  -2.826  -4.755  0.00  0.00    +0.000 A 
ATOM     29  C   UNL     1       2.680  -2.819  -3.544  0.00  0.00    +0.000 A 
ATOM     30  C   UNL     1       1.270  -2.501  -3.767  0.00  0.00    +0.000 A 
BRANCH  22  32
ATOM     31  C   UNL     1      -1.021  -2.466  -0.900  0.00  0.00    +0.000 C 
ATOM     32  O   UNL     1       0.196  -2.681  -1.608  0.00  0.00    +0.000 OA
ENDBRANCH  22  32
ENDBRANCH  18  29
ENDBRANCH   1  20
TORSDOF 8
