REMARK  Name = 
REMARK  10 active torsions:
REMARK  status: ('A' for Active; 'I' for Inactive)
REMARK    1  A    between atoms: C_1  and  C_2
REMARK    2  A    between atoms: C_2  and  C_3
REMARK    3  A    between atoms: C_2  and  C_4
REMARK    4  A    between atoms: C_2  and  C_21
REMARK    5  A    between atoms: C_4  and  N_5
REMARK    6  A    between atoms: N_5  and  C_6
REMARK    7  A    between atoms: C_10  and  C_11
REMARK    8  A    between atoms: C_15  and  C_16
REMARK    9  A    between atoms: C_16  and  O_18
REMARK   10  A    between atoms: C_25  and  C_26
REMARK                            x       y       z     vdW  Elec       q    Type
REMARK                         _______ _______ _______ _____ _____    ______ ____
ROOT
ATOM      1  N   UNL     1       2.462   2.593  -0.151  0.00  0.00    +0.000 N 
ATOM      2  H   UNL     1       2.096   2.472  -1.090  0.00  0.00    +0.000 HD
ENDROOT
BRANCH   1   3
ATOM      3  C   UNL     1       2.815   3.885   0.192  0.00  0.00    +0.000 A 
ATOM      4  C   UNL     1       3.647   4.204   1.263  0.00  0.00    +0.000 A 
ATOM      5  C   UNL     1       3.910   5.534   1.591  0.00  0.00    +0.000 A 
ATOM      6  C   UNL     1       3.330   6.566   0.851  0.00  0.00    +0.000 A 
ATOM      7  C   UNL     1       2.480   6.294  -0.232  0.00  0.00    +0.000 A 
ATOM      8  C   UNL     1       2.221   4.941  -0.517  0.00  0.00    +0.000 A 
BRANCH   7   9
ATOM      9  C   UNL     1       1.929   7.369  -1.091  0.00  0.00    +0.000 A 
ATOM     10  C   UNL     1       2.691   8.517  -1.383  0.00  0.00    +0.000 A 
ATOM     11  C   UNL     1       2.224   9.509  -2.249  0.00  0.00    +0.000 A 
ATOM     12  C   UNL     1       0.985   9.369  -2.864  0.00  0.00    +0.000 A 
ATOM     13  C   UNL     1       0.213   8.232  -2.609  0.00  0.00    +0.000 A 
ATOM     14  C   UNL     1       0.669   7.259  -1.706  0.00  0.00    +0.000 A 
BRANCH  13  15
ATOM     15  C   UNL     1      -1.096   8.016  -3.271  0.00  0.00    +0.000 C 
ATOM     16  O   UNL     1      -2.031   7.448  -2.733  0.00  0.00    +0.000 OA
BRANCH  15  17
ATOM     17  O   UNL     1      -1.130   8.446  -4.550  0.00  0.00    +0.000 OA
ATOM     18  H   UNL     1      -0.267   8.703  -4.924  0.00  0.00    +0.000 HD
ENDBRANCH  15  17
ENDBRANCH  13  15
ENDBRANCH   7   9
ENDBRANCH   1   3
BRANCH   1  19
ATOM     19  C   UNL     1       3.010   1.408   0.496  0.00  0.00    +0.000 C 
BRANCH  19  21
ATOM     20  C   UNL     1       2.874  -0.035  -1.570  0.00  0.00    +0.000 C 
ATOM     21  C   UNL     1       2.423   0.080  -0.090  0.00  0.00    +0.000 C 
ATOM     22  C   UNL     1       3.081  -1.073   0.703  0.00  0.00    +0.000 C 
BRANCH  21  23
ATOM     23  C   UNL     1       0.886  -0.051  -0.013  0.00  0.00    +0.000 A 
ATOM     24  C   UNL     1       0.069   0.909   0.607  0.00  0.00    +0.000 A 
ATOM     25  C   UNL     1      -1.326   0.838   0.536  0.00  0.00    +0.000 A 
ATOM     26  C   UNL     1      -1.941  -0.210  -0.138  0.00  0.00    +0.000 A 
ATOM     27  C   UNL     1      -1.165  -1.213  -0.727  0.00  0.00    +0.000 A 
ATOM     28  C   UNL     1       0.237  -1.135  -0.636  0.00  0.00    +0.000 A 
BRANCH  27  29
ATOM     29  C   UNL     1      -1.801  -2.352  -1.484  0.00  0.00    +0.000 C 
ATOM     30  F   UNL     1      -3.154  -2.249  -1.597  0.00  0.00    +0.000 F 
ATOM     31  F   UNL     1      -1.328  -2.451  -2.759  0.00  0.00    +0.000 F 
ATOM     32  F   UNL     1      -1.564  -3.561  -0.905  0.00  0.00    +0.000 F 
ENDBRANCH  27  29
ENDBRANCH  21  23
ENDBRANCH  19  21
ENDBRANCH   1  19
TORSDOF 8
