REMARK  Name = 
REMARK  4 active torsions:
REMARK  status: ('A' for Active; 'I' for Inactive)
REMARK    1  A    between atoms: C_2  and  C_4
REMARK    2  A    between atoms: N_8  and  C_9
REMARK    3  A    between atoms: C_9  and  C_10
REMARK    4  A    between atoms: C_9  and  C_12
REMARK                            x       y       z     vdW  Elec       q    Type
REMARK                         _______ _______ _______ _____ _____    ______ ____
ROOT
ATOM      1  C   UNL     1       2.256   0.513   2.949  0.00  0.00    +0.000 A 
ATOM      2  C   UNL     1       3.518   0.657   2.384  0.00  0.00    +0.000 A 
ATOM      3  C   UNL     1       4.585  -0.077   2.911  0.00  0.00    +0.000 A 
ATOM      4  C   UNL     1       4.370  -0.976   3.958  0.00  0.00    +0.000 A 
ATOM      5  N   UNL     1       5.481  -1.603   4.536  0.00  0.00    +0.000 N 
ATOM      6  N   UNL     1       3.144  -1.133   4.493  0.00  0.00    +0.000 NA
ATOM      7  C   UNL     1       2.125  -0.375   4.005  0.00  0.00    +0.000 A 
ATOM      8  H   UNL     1       6.215  -1.766   3.854  0.00  0.00    +0.000 HD
ENDROOT
BRANCH   1  10
ATOM      9  N   UNL     1       1.056   1.741   1.223  0.00  0.00    +0.000 N 
ATOM     10  C   UNL     1       1.077   1.291   2.514  0.00  0.00    +0.000 C 
ATOM     11  O   UNL     1       0.134   1.500   3.268  0.00  0.00    +0.000 OA
ATOM     12  H   UNL     1       0.204   2.191   0.916  0.00  0.00    +0.000 HD
ATOM     13  H   UNL     1       1.687   1.401   0.510  0.00  0.00    +0.000 HD
ENDBRANCH   1  10
BRANCH   5  14
ATOM     14  C   UNL     1       5.209  -2.844   5.281  0.00  0.00    +0.000 C 
BRANCH  14  15
ATOM     15  C   UNL     1       6.210  -2.975   6.424  0.00  0.00    +0.000 A 
ATOM     16  C   UNL     1       5.743  -3.090   7.745  0.00  0.00    +0.000 A 
ATOM     17  C   UNL     1       6.635  -3.234   8.812  0.00  0.00    +0.000 A 
ATOM     18  C   UNL     1       8.003  -3.268   8.573  0.00  0.00    +0.000 A 
ATOM     19  C   UNL     1       8.488  -3.144   7.272  0.00  0.00    +0.000 A 
ATOM     20  C   UNL     1       7.597  -3.001   6.204  0.00  0.00    +0.000 A 
ENDBRANCH  14  15
BRANCH  14  21
ATOM     21  C   UNL     1       5.283  -4.056   4.331  0.00  0.00    +0.000 C 
ATOM     22  F   UNL     1       6.462  -4.039   3.639  0.00  0.00    +0.000 F 
ENDBRANCH  14  21
ENDBRANCH   5  14
TORSDOF 4
