REMARK  Name = 
REMARK  9 active torsions:
REMARK  status: ('A' for Active; 'I' for Inactive)
REMARK    1  A    between atoms: C_2  and  C_22
REMARK    2  A    between atoms: N_3  and  CA_4
REMARK    3  A    between atoms: CA_4  and  C_5
REMARK    4  A    between atoms: CA_4  and  C_7
REMARK    5  A    between atoms: C_5  and  O_6
REMARK    6  A    between atoms: C_10  and  C_11
REMARK    7  A    between atoms: C_11  and  N_12
REMARK    8  A    between atoms: N_12  and  C_13
REMARK    9  A    between atoms: C_13  and  C_14
REMARK                            x       y       z     vdW  Elec       q    Type
REMARK                         _______ _______ _______ _____ _____    ______ ____
ROOT
ATOM      1  CA  UNL     1       2.352  -2.676   0.030  0.00  0.00    +0.000 C 
ENDROOT
BRANCH   1   2
ATOM      2  C   UNL     1       3.362  -3.795  -0.176  0.00  0.00    +0.000 A 
ATOM      3  C   UNL     1       4.707  -3.547  -0.441  0.00  0.00    +0.000 A 
ATOM      4  C   UNL     1       5.575  -4.612  -0.651  0.00  0.00    +0.000 A 
ATOM      5  C   UNL     1       5.111  -5.920  -0.536  0.00  0.00    +0.000 A 
ATOM      6  C   UNL     1       3.762  -6.085  -0.250  0.00  0.00    +0.000 A 
ATOM      7  N   UNL     1       2.888  -5.065  -0.073  0.00  0.00    +0.000 NA
BRANCH   5   8
ATOM      8  C   UNL     1       6.041  -7.089  -0.696  0.00  0.00    +0.000 C 
BRANCH   8   9
ATOM      9  N   UNL     1       7.136  -6.993   0.272  0.00  0.00    +0.000 NA
ATOM     10  H   UNL     1       6.744  -6.958   1.212  0.00  0.00    +0.000 HD
BRANCH   9  11
ATOM     11  C   UNL     1       8.058  -8.117   0.161  0.00  0.00    +0.000 C 
BRANCH  11  12
ATOM     12  C   UNL     1       9.150  -8.008   1.177  0.00  0.00    +0.000 A 
ATOM     13  C   UNL     1       9.352  -8.959   2.156  0.00  0.00    +0.000 A 
ATOM     14  N   UNL     1      10.326  -8.890   3.086  0.00  0.00    +0.000 NA
ATOM     15  C   UNL     1      11.122  -7.812   3.011  0.00  0.00    +0.000 A 
ATOM     16  N   UNL     1      11.032  -6.825   2.109  0.00  0.00    +0.000 NA
ATOM     17  C   UNL     1      10.037  -6.948   1.207  0.00  0.00    +0.000 A 
ENDBRANCH  11  12
ENDBRANCH   9  11
ENDBRANCH   8   9
ENDBRANCH   5   8
ENDBRANCH   1   2
BRANCH   1  20
ATOM     18  O   UNL     1       3.974  -1.170  -1.854  0.00  0.00    +0.000 OA
ATOM     19  C   UNL     1       2.752  -1.172  -1.939  0.00  0.00    +0.000 C 
ATOM     20  N   UNL     1       1.939  -1.985  -1.196  0.00  0.00    +0.000 N 
ATOM     21  H   UNL     1       0.940  -1.806  -1.230  0.00  0.00    +0.000 HD
BRANCH  19  22
ATOM     22  C   UNL     1       2.098  -0.205  -2.817  0.00  0.00    +0.000 A 
ATOM     23  C   UNL     1       2.744   0.269  -3.950  0.00  0.00    +0.000 A 
ATOM     24  S   UNL     1       2.010   1.671  -4.592  0.00  0.00    +0.000 S 
ATOM     25  C   UNL     1       0.803   1.649  -3.390  0.00  0.00    +0.000 A 
ATOM     26  N   UNL     1      -0.080   2.674  -3.245  0.00  0.00    +0.000 NA
ATOM     27  C   UNL     1      -0.941   2.499  -2.297  0.00  0.00    +0.000 A 
ATOM     28  N   UNL     1      -1.038   1.371  -1.520  0.00  0.00    +0.000 N 
ATOM     29  C   UNL     1      -0.216   0.284  -1.687  0.00  0.00    +0.000 A 
ATOM     30  O   UNL     1      -0.437  -0.789  -1.138  0.00  0.00    +0.000 OA
ATOM     31  C   UNL     1       0.864   0.502  -2.626  0.00  0.00    +0.000 A 
ATOM     32  H   UNL     1      -1.805   1.249  -0.876  0.00  0.00    +0.000 HD
ENDBRANCH  19  22
ENDBRANCH   1  20
BRANCH   1  33
ATOM     33  C   UNL     1       2.735  -1.700   1.165  0.00  0.00    +0.000 C 
BRANCH  33  34
ATOM     34  O   UNL     1       1.685  -0.749   1.393  0.00  0.00    +0.000 OA
ATOM     35  H   UNL     1       1.973  -0.183   2.130  0.00  0.00    +0.000 HD
ENDBRANCH  33  34
ENDBRANCH   1  33
TORSDOF 9
