REMARK  Name = 
REMARK  7 active torsions:
REMARK  status: ('A' for Active; 'I' for Inactive)
REMARK    1  A    between atoms: C_2  and  C_19
REMARK    2  A    between atoms: N_3  and  C_4
REMARK    3  A    between atoms: C_4  and  C_5
REMARK    4  A    between atoms: C_8  and  C_9
REMARK    5  A    between atoms: C_9  and  N_10
REMARK    6  A    between atoms: N_10  and  C_11
REMARK    7  A    between atoms: C_11  and  C_12
REMARK                            x       y       z     vdW  Elec       q    Type
REMARK                         _______ _______ _______ _____ _____    ______ ____
ROOT
ATOM      1  C   UNL     1       2.182   1.935   1.526  0.00  0.00    +0.000 C 
ENDROOT
BRANCH   1   2
ATOM      2  C   UNL     1       3.098   2.925   2.194  0.00  0.00    +0.000 A 
ATOM      3  C   UNL     1       2.915   4.296   1.983  0.00  0.00    +0.000 A 
ATOM      4  C   UNL     1       3.715   5.230   2.643  0.00  0.00    +0.000 A 
ATOM      5  C   UNL     1       4.714   4.818   3.540  0.00  0.00    +0.000 A 
ATOM      6  C   UNL     1       4.932   3.443   3.705  0.00  0.00    +0.000 A 
ATOM      7  C   UNL     1       4.136   2.506   3.036  0.00  0.00    +0.000 A 
BRANCH   5   8
ATOM      8  C   UNL     1       5.587   5.819   4.270  0.00  0.00    +0.000 C 
BRANCH   8   9
ATOM      9  N   UNL     1       4.870   7.059   4.561  0.00  0.00    +0.000 NA
ATOM     10  H   UNL     1       4.079   6.842   5.167  0.00  0.00    +0.000 HD
BRANCH   9  11
ATOM     11  C   UNL     1       5.711   8.040   5.258  0.00  0.00    +0.000 C 
BRANCH  11  12
ATOM     12  C   UNL     1       4.883   9.313   5.513  0.00  0.00    +0.000 C 
ATOM     13  C   UNL     1       5.639  10.399   6.258  0.00  0.00    +0.000 C 
ATOM     14  C   UNL     1       4.516  11.294   6.749  0.00  0.00    +0.000 C 
ATOM     15  C   UNL     1       3.343  10.348   6.975  0.00  0.00    +0.000 C 
ATOM     16  N   UNL     1       3.722   9.061   6.390  0.00  0.00    +0.000 NA
ATOM     17  H   UNL     1       2.957   8.682   5.832  0.00  0.00    +0.000 HD
ENDBRANCH  11  12
ENDBRANCH   9  11
ENDBRANCH   8   9
ENDBRANCH   5   8
ENDBRANCH   1   2
BRANCH   1  20
ATOM     18  O   UNL     1       1.322   3.135  -0.870  0.00  0.00    +0.000 OA
ATOM     19  C   UNL     1       2.169   2.248  -0.921  0.00  0.00    +0.000 C 
ATOM     20  N   UNL     1       2.621   1.595   0.196  0.00  0.00    +0.000 N 
ATOM     21  H   UNL     1       3.441   1.002   0.131  0.00  0.00    +0.000 HD
BRANCH  19  22
ATOM     22  C   UNL     1       2.707   1.783  -2.201  0.00  0.00    +0.000 A 
ATOM     23  C   UNL     1       1.967   1.946  -3.366  0.00  0.00    +0.000 A 
ATOM     24  S   UNL     1       2.756   1.365  -4.761  0.00  0.00    +0.000 S 
ATOM     25  C   UNL     1       4.124   0.904  -3.863  0.00  0.00    +0.000 A 
ATOM     26  N   UNL     1       5.213   0.363  -4.473  0.00  0.00    +0.000 NA
ATOM     27  C   UNL     1       6.195   0.098  -3.674  0.00  0.00    +0.000 A 
ATOM     28  N   UNL     1       6.178   0.310  -2.320  0.00  0.00    +0.000 N 
ATOM     29  C   UNL     1       5.068   0.771  -1.650  0.00  0.00    +0.000 A 
ATOM     30  O   UNL     1       5.034   0.792  -0.428  0.00  0.00    +0.000 OA
ATOM     31  C   UNL     1       3.966   1.150  -2.513  0.00  0.00    +0.000 A 
ATOM     32  H   UNL     1       6.963   0.037  -1.744  0.00  0.00    +0.000 HD
ENDBRANCH  19  22
ENDBRANCH   1  20
TORSDOF 7
