REMARK  Name = 
REMARK  7 active torsions:
REMARK  status: ('A' for Active; 'I' for Inactive)
REMARK    1  A    between atoms: C_2  and  C_3
REMARK    2  A    between atoms: C_6  and  C_7
REMARK    3  A    between atoms: N_9  and  C_10
REMARK    4  A    between atoms: C_10  and  C_11
REMARK    5  A    between atoms: C_14  and  C_15
REMARK    6  A    between atoms: C_15  and  N_16
REMARK    7  A    between atoms: C_17  and  C_19
REMARK                            x       y       z     vdW  Elec       q    Type
REMARK                         _______ _______ _______ _____ _____    ______ ____
ROOT
ATOM      1  C   UNL     1       4.867   2.702   5.682  0.00  0.00    +0.000 A 
ATOM      2  C   UNL     1       4.535   4.044   5.868  0.00  0.00    +0.000 A 
ATOM      3  C   UNL     1       3.504   4.379   6.749  0.00  0.00    +0.000 A 
ATOM      4  C   UNL     1       2.822   3.370   7.438  0.00  0.00    +0.000 A 
ATOM      5  C   UNL     1       3.220   2.063   7.179  0.00  0.00    +0.000 A 
ATOM      6  N   UNL     1       4.223   1.705   6.338  0.00  0.00    +0.000 NA
ENDROOT
BRANCH   1   7
ATOM      7  C   UNL     1       6.002   2.323   4.751  0.00  0.00    +0.000 C 
BRANCH   7  10
ATOM      8  C   UNL     1       8.076   3.396   5.513  0.00  0.00    +0.000 C 
ATOM      9  O   UNL     1       7.756   4.461   4.997  0.00  0.00    +0.000 OA
ATOM     10  N   UNL     1       7.287   2.268   5.430  0.00  0.00    +0.000 N 
ATOM     11  H   UNL     1       7.427   1.502   6.074  0.00  0.00    +0.000 HD
BRANCH   8  15
ATOM     12  C   UNL     1      11.600   4.024   6.753  0.00  0.00    +0.000 C 
ATOM     13  C   UNL     1      11.744   2.709   5.984  0.00  0.00    +0.000 C 
ATOM     14  C   UNL     1      10.325   2.210   5.691  0.00  0.00    +0.000 C 
ATOM     15  C   UNL     1       9.367   3.228   6.308  0.00  0.00    +0.000 C 
ATOM     16  C   UNL     1      10.198   4.513   6.393  0.00  0.00    +0.000 C 
BRANCH  12  18
ATOM     17  N   UNL     1      13.521   5.872   5.962  0.00  0.00    +0.000 NA
ATOM     18  C   UNL     1      12.650   5.034   6.321  0.00  0.00    +0.000 C 
ENDBRANCH  12  18
ENDBRANCH   8  15
ENDBRANCH   7  10
ENDBRANCH   1   7
BRANCH   4  19
ATOM     19  C   UNL     1       1.713   3.646   8.419  0.00  0.00    +0.000 C 
BRANCH  19  20
ATOM     20  N   UNL     1       0.411   3.673   7.796  0.00  0.00    +0.000 N 
ATOM     21  C   UNL     1      -0.731   3.911   8.516  0.00  0.00    +0.000 C 
ATOM     22  O   UNL     1      -0.729   4.132   9.724  0.00  0.00    +0.000 OA
ATOM     23  H   UNL     1       0.318   3.143   6.936  0.00  0.00    +0.000 HD
BRANCH  21  24
ATOM     24  C   UNL     1      -1.978   3.937   7.728  0.00  0.00    +0.000 A 
ATOM     25  C   UNL     1      -3.052   4.715   8.135  0.00  0.00    +0.000 A 
ATOM     26  S   UNL     1      -4.380   4.655   7.065  0.00  0.00    +0.000 S 
ATOM     27  C   UNL     1      -3.586   3.546   6.047  0.00  0.00    +0.000 A 
ATOM     28  N   UNL     1      -4.194   3.046   4.937  0.00  0.00    +0.000 NA
ATOM     29  C   UNL     1      -3.486   2.186   4.282  0.00  0.00    +0.000 A 
ATOM     30  N   UNL     1      -2.221   1.790   4.627  0.00  0.00    +0.000 N 
ATOM     31  C   UNL     1      -1.545   2.312   5.707  0.00  0.00    +0.000 A 
ATOM     32  O   UNL     1      -0.385   2.003   5.938  0.00  0.00    +0.000 OA
ATOM     33  C   UNL     1      -2.312   3.251   6.499  0.00  0.00    +0.000 A 
ATOM     34  H   UNL     1      -1.710   1.131   4.058  0.00  0.00    +0.000 HD
ENDBRANCH  21  24
ENDBRANCH  19  20
ENDBRANCH   4  19
TORSDOF 7
