REMARK  Name = 
REMARK  10 active torsions:
REMARK  status: ('A' for Active; 'I' for Inactive)
REMARK    1  A    between atoms: C_1  and  C_2
REMARK    2  A    between atoms: C_2  and  C_3
REMARK    3  A    between atoms: C_3  and  N_4
REMARK    4  A    between atoms: C_3  and  C_20
REMARK    5  A    between atoms: N_4  and  C_5
REMARK    6  A    between atoms: C_5  and  C_6
REMARK    7  A    between atoms: C_9  and  C_10
REMARK    8  A    between atoms: C_10  and  O_11
REMARK    9  A    between atoms: O_11  and  C_12
REMARK   10  A    between atoms: C_12  and  C_13
REMARK                            x       y       z     vdW  Elec       q    Type
REMARK                         _______ _______ _______ _____ _____    ______ ____
ROOT
ATOM      1  N   UNL     1       2.593   2.276  -0.565  0.00  0.00    +0.000 NA
ATOM      2  H   UNL     1       3.073   2.953  -1.158  0.00  0.00    +0.000 HD
ENDROOT
BRANCH   1   3
ATOM      3  C   UNL     1       3.026   0.935  -0.995  0.00  0.00    +0.000 C 
BRANCH   3   4
ATOM      4  C   UNL     1       4.556   0.939  -0.904  0.00  0.00    +0.000 A 
ATOM      5  C   UNL     1       5.292   1.596   0.075  0.00  0.00    +0.000 A 
ATOM      6  S   UNL     1       6.979   1.391  -0.086  0.00  0.00    +0.000 S 
ATOM      7  C   UNL     1       6.784   0.390  -1.450  0.00  0.00    +0.000 A 
ATOM      8  N   UNL     1       7.856  -0.156  -2.079  0.00  0.00    +0.000 NA
ATOM      9  C   UNL     1       7.553  -0.913  -3.088  0.00  0.00    +0.000 A 
ATOM     10  N   UNL     1       6.278  -1.167  -3.518  0.00  0.00    +0.000 N 
ATOM     11  C   UNL     1       5.158  -0.633  -2.914  0.00  0.00    +0.000 A 
ATOM     12  O   UNL     1       4.029  -0.885  -3.316  0.00  0.00    +0.000 OA
ATOM     13  C   UNL     1       5.454   0.225  -1.780  0.00  0.00    +0.000 A 
ATOM     14  H   UNL     1       6.110  -1.769  -4.307  0.00  0.00    +0.000 HD
ENDBRANCH   3   4
BRANCH   3  16
ATOM     15  C   UNL     1       0.979  -0.513  -0.183  0.00  0.00    +0.000 C 
ATOM     16  C   UNL     1       2.484  -0.274  -0.183  0.00  0.00    +0.000 C 
ENDBRANCH   3  16
ENDBRANCH   1   3
BRANCH   1  17
ATOM     17  C   UNL     1       1.162   2.504  -0.681  0.00  0.00    +0.000 C 
BRANCH  17  18
ATOM     18  C   UNL     1       0.766   3.896  -0.292  0.00  0.00    +0.000 A 
ATOM     19  C   UNL     1       1.202   5.015  -0.996  0.00  0.00    +0.000 A 
ATOM     20  C   UNL     1       0.745   6.272  -0.620  0.00  0.00    +0.000 A 
ATOM     21  C   UNL     1      -0.146   6.376   0.448  0.00  0.00    +0.000 A 
ATOM     22  N   UNL     1      -0.576   5.302   1.154  0.00  0.00    +0.000 NA
ATOM     23  C   UNL     1      -0.112   4.098   0.771  0.00  0.00    +0.000 A 
BRANCH  21  24
ATOM     24  C   UNL     1      -0.690   7.719   0.852  0.00  0.00    +0.000 C 
BRANCH  24  25
ATOM     25  O   UNL     1      -1.408   8.281  -0.247  0.00  0.00    +0.000 OA
BRANCH  25  26
ATOM     26  C   UNL     1      -1.963   9.541   0.104  0.00  0.00    +0.000 C 
BRANCH  26  27
ATOM     27  C   UNL     1      -2.685  10.023  -1.089  0.00  0.00    +0.000 A 
ATOM     28  C   UNL     1      -2.942  11.290  -1.567  0.00  0.00    +0.000 A 
ATOM     29  N   UNL     1      -3.665  11.237  -2.731  0.00  0.00    +0.000 NA
ATOM     30  C   UNL     1      -3.845   9.959  -2.970  0.00  0.00    +0.000 A 
ATOM     31  N   UNL     1      -3.275   9.185  -2.002  0.00  0.00    +0.000 N 
ATOM     32  H   UNL     1      -3.253   8.174  -1.964  0.00  0.00    +0.000 HD
ENDBRANCH  26  27
ENDBRANCH  25  26
ENDBRANCH  24  25
ENDBRANCH  21  24
ENDBRANCH  17  18
ENDBRANCH   1  17
TORSDOF 9
