REMARK  Name = 
REMARK  7 active torsions:
REMARK  status: ('A' for Active; 'I' for Inactive)
REMARK    1  A    between atoms: C_2  and  C_3
REMARK    2  A    between atoms: C_3  and  N_4
REMARK    3  A    between atoms: C_3  and  C_22
REMARK    4  A    between atoms: C_5  and  C_7
REMARK    5  A    between atoms: C_10  and  C_11
REMARK    6  A    between atoms: C_11  and  N_12
REMARK    7  A    between atoms: C_13  and  C_15
REMARK                            x       y       z     vdW  Elec       q    Type
REMARK                         _______ _______ _______ _____ _____    ______ ____
ROOT
ATOM      1  N   UNL     1       2.040  -1.099   2.316  0.00  0.00    +0.000 N 
ATOM      2  C   UNL     1       1.545  -0.946   1.036  0.00  0.00    +0.000 C 
ATOM      3  O   UNL     1       2.265  -0.792   0.057  0.00  0.00    +0.000 OA
ATOM      4  H   UNL     1       1.382  -1.294   3.070  0.00  0.00    +0.000 HD
ENDROOT
BRANCH   2   5
ATOM      5  C   UNL     1       0.048  -0.965   0.909  0.00  0.00    +0.000 A 
ATOM      6  C   UNL     1      -0.552  -0.793  -0.336  0.00  0.00    +0.000 A 
ATOM      7  C   UNL     1      -1.948  -0.803  -0.412  0.00  0.00    +0.000 A 
ATOM      8  C   UNL     1      -2.704  -0.993   0.749  0.00  0.00    +0.000 A 
ATOM      9  C   UNL     1      -2.004  -1.156   1.944  0.00  0.00    +0.000 A 
ATOM     10  N   UNL     1      -0.654  -1.147   2.057  0.00  0.00    +0.000 NA
BRANCH   8  11
ATOM     11  C   UNL     1      -4.205  -1.050   0.737  0.00  0.00    +0.000 C 
BRANCH  11  12
ATOM     12  N   UNL     1      -4.832   0.227   0.964  0.00  0.00    +0.000 N 
ATOM     13  C   UNL     1      -6.204   0.329   1.055  0.00  0.00    +0.000 C 
ATOM     14  O   UNL     1      -6.961  -0.628   0.926  0.00  0.00    +0.000 OA
ATOM     15  H   UNL     1      -4.293   1.083   1.061  0.00  0.00    +0.000 HD
BRANCH  13  16
ATOM     16  C   UNL     1      -6.678   1.678   1.325  0.00  0.00    +0.000 A 
ATOM     17  C   UNL     1      -7.992   2.071   1.445  0.00  0.00    +0.000 A 
ATOM     18  O   UNL     1      -8.017   3.410   1.689  0.00  0.00    +0.000 OA
ATOM     19  C   UNL     1      -6.702   3.764   1.708  0.00  0.00    +0.000 A 
ATOM     20  N   UNL     1      -5.853   2.780   1.502  0.00  0.00    +0.000 NA
ENDBRANCH  13  16
ENDBRANCH  11  12
ENDBRANCH   8  11
ENDBRANCH   2   5
BRANCH   1  21
ATOM     21  C   UNL     1       3.465  -1.116   2.589  0.00  0.00    +0.000 C 
BRANCH  21  22
ATOM     22  C   UNL     1       3.977  -2.543   2.531  0.00  0.00    +0.000 A 
ATOM     23  C   UNL     1       4.980  -2.957   1.666  0.00  0.00    +0.000 A 
ATOM     24  S   UNL     1       5.383  -4.609   1.831  0.00  0.00    +0.000 S 
ATOM     25  C   UNL     1       4.205  -4.838   3.037  0.00  0.00    +0.000 A 
ATOM     26  N   UNL     1       4.004  -6.058   3.604  0.00  0.00    +0.000 NA
ATOM     27  C   UNL     1       3.060  -6.083   4.486  0.00  0.00    +0.000 A 
ATOM     28  N   UNL     1       2.304  -4.998   4.857  0.00  0.00    +0.000 N 
ATOM     29  C   UNL     1       2.480  -3.742   4.322  0.00  0.00    +0.000 A 
ATOM     30  O   UNL     1       1.796  -2.783   4.662  0.00  0.00    +0.000 OA
ATOM     31  C   UNL     1       3.526  -3.669   3.319  0.00  0.00    +0.000 A 
ATOM     32  H   UNL     1       1.579  -5.091   5.552  0.00  0.00    +0.000 HD
ENDBRANCH  21  22
BRANCH  21  34
ATOM     33  N   UNL     1       4.138   0.068   4.858  0.00  0.00    +0.000 NA
ATOM     34  C   UNL     1       3.826  -0.463   3.874  0.00  0.00    +0.000 C 
ENDBRANCH  21  34
ENDBRANCH   1  21
TORSDOF 7
