REMARK  Name = 
REMARK  6 active torsions:
REMARK  status: ('A' for Active; 'I' for Inactive)
REMARK    1  A    between atoms: C_7  and  C_8
REMARK    2  A    between atoms: N_10  and  C_11
REMARK    3  A    between atoms: C_11  and  C_12
REMARK    4  A    between atoms: C_15  and  C_16
REMARK    5  A    between atoms: C_16  and  O_17
REMARK    6  A    between atoms: O_17  and  C_18
REMARK                            x       y       z     vdW  Elec       q    Type
REMARK                         _______ _______ _______ _____ _____    ______ ____
ROOT
ATOM      1  C   UNL     1       7.741   1.972  -2.024  0.00  0.00    +0.000 C 
ATOM      2  O   UNL     1       6.623   1.758  -1.555  0.00  0.00    +0.000 OA
ATOM      3  N   UNL     1       8.675   2.699  -1.337  0.00  0.00    +0.000 N 
ATOM      4  H   UNL     1       9.582   2.890  -1.750  0.00  0.00    +0.000 HD
ENDROOT
BRANCH   1  11
ATOM      5  N   UNL     1      12.534   1.138  -6.674  0.00  0.00    +0.000 N 
ATOM      6  C   UNL     1      11.451   1.242  -5.866  0.00  0.00    +0.000 A 
ATOM      7  N   UNL     1      10.324   0.689  -6.194  0.00  0.00    +0.000 NA
ATOM      8  C   UNL     1       9.320   0.834  -5.290  0.00  0.00    +0.000 A 
ATOM      9  S   UNL     1       7.792   0.141  -5.570  0.00  0.00    +0.000 S 
ATOM     10  C   UNL     1       7.201   0.708  -4.076  0.00  0.00    +0.000 A 
ATOM     11  C   UNL     1       8.128   1.438  -3.342  0.00  0.00    +0.000 A 
ATOM     12  C   UNL     1       9.373   1.504  -4.080  0.00  0.00    +0.000 A 
ATOM     13  C   UNL     1      10.644   2.123  -3.761  0.00  0.00    +0.000 A 
ATOM     14  O   UNL     1      10.866   2.757  -2.734  0.00  0.00    +0.000 OA
ATOM     15  N   UNL     1      11.624   1.951  -4.710  0.00  0.00    +0.000 N 
ATOM     16  H   UNL     1      12.310   0.811  -7.610  0.00  0.00    +0.000 HD
ATOM     17  H   UNL     1      13.237   1.863  -6.650  0.00  0.00    +0.000 HD
ATOM     18  H   UNL     1      12.524   2.342  -4.489  0.00  0.00    +0.000 HD
ENDBRANCH   1  11
BRANCH   3  19
ATOM     19  C   UNL     1       8.433   3.228  -0.017  0.00  0.00    +0.000 C 
BRANCH  19  20
ATOM     20  C   UNL     1       7.946   4.646  -0.051  0.00  0.00    +0.000 A 
ATOM     21  C   UNL     1       8.823   5.732  -0.081  0.00  0.00    +0.000 A 
ATOM     22  C   UNL     1       8.317   7.032  -0.082  0.00  0.00    +0.000 A 
ATOM     23  C   UNL     1       6.937   7.220  -0.043  0.00  0.00    +0.000 A 
ATOM     24  N   UNL     1       6.068   6.179  -0.033  0.00  0.00    +0.000 NA
ATOM     25  C   UNL     1       6.585   4.928  -0.053  0.00  0.00    +0.000 A 
BRANCH  23  26
ATOM     26  C   UNL     1       6.350   8.612   0.011  0.00  0.00    +0.000 C 
BRANCH  26  27
ATOM     27  O   UNL     1       6.187   9.128  -1.312  0.00  0.00    +0.000 OA
BRANCH  27  28
ATOM     28  C   UNL     1       5.638  10.379  -1.416  0.00  0.00    +0.000 A 
ATOM     29  C   UNL     1       5.228  11.182  -0.356  0.00  0.00    +0.000 A 
ATOM     30  C   UNL     1       4.718  12.439  -0.647  0.00  0.00    +0.000 A 
ATOM     31  N   UNL     1       4.591  12.933  -1.894  0.00  0.00    +0.000 NA
ATOM     32  C   UNL     1       4.982  12.127  -2.904  0.00  0.00    +0.000 A 
ATOM     33  C   UNL     1       5.504  10.857  -2.717  0.00  0.00    +0.000 A 
ENDBRANCH  27  28
ENDBRANCH  26  27
ENDBRANCH  23  26
ENDBRANCH  19  20
ENDBRANCH   3  19
TORSDOF 6
