REMARK  Name = 
REMARK  11 active torsions:
REMARK  status: ('A' for Active; 'I' for Inactive)
REMARK    1  A    between atoms: N_1  and  C_2
REMARK    2  A    between atoms: C_2  and  C_3
REMARK    3  A    between atoms: C_3  and  C_4
REMARK    4  A    between atoms: C_4  and  C_5
REMARK    5  A    between atoms: C_5  and  C_6
REMARK    6  A    between atoms: C_6  and  C_7
REMARK    7  A    between atoms: C_7  and  N_8
REMARK    8  A    between atoms: C_7  and  C_9
REMARK    9  A    between atoms: C_13  and  O_14
REMARK   10  A    between atoms: O_14  and  C_15
REMARK   11  A    between atoms: C_15  and  C_16
REMARK                            x       y       z     vdW  Elec       q    Type
REMARK                         _______ _______ _______ _____ _____    ______ ____
ROOT
ATOM      1  C   UNL     1       8.522  -2.137  -3.572  0.00  0.00    +0.000 A 
ATOM      2  C   UNL     1       9.208  -2.050  -2.351  0.00  0.00    +0.000 A 
ATOM      3  C   UNL     1      10.606  -2.131  -2.312  0.00  0.00    +0.000 A 
ATOM      4  C   UNL     1      11.334  -2.334  -3.482  0.00  0.00    +0.000 A 
ATOM      5  C   UNL     1      10.669  -2.488  -4.692  0.00  0.00    +0.000 A 
ATOM      6  C   UNL     1       9.281  -2.378  -4.730  0.00  0.00    +0.000 A 
ENDROOT
BRANCH   1   7
ATOM      7  C   UNL     1       7.015  -2.046  -3.737  0.00  0.00    +0.000 C 
BRANCH   7   8
ATOM      8  N   UNL     1       6.428  -3.391  -3.666  0.00  0.00    +0.000 NA
ATOM      9  H   UNL     1       6.652  -3.802  -2.760  0.00  0.00    +0.000 HD
ATOM     10  H   UNL     1       6.867  -3.991  -4.361  0.00  0.00    +0.000 HD
ENDBRANCH   7   8
BRANCH   7  11
ATOM     11  C   UNL     1       6.238  -1.148  -2.764  0.00  0.00    +0.000 C 
BRANCH  11  12
ATOM     12  C   UNL     1       6.656   0.321  -2.706  0.00  0.00    +0.000 C 
BRANCH  12  13
ATOM     13  C   UNL     1       6.526   1.131  -4.002  0.00  0.00    +0.000 C 
BRANCH  13  14
ATOM     14  C   UNL     1       6.966   2.571  -3.702  0.00  0.00    +0.000 C 
BRANCH  14  15
ATOM     15  C   UNL     1       6.907   3.497  -4.911  0.00  0.00    +0.000 C 
BRANCH  15  16
ATOM     16  N   UNL     1       7.362   4.830  -4.518  0.00  0.00    +0.000 NA
ATOM     17  H   UNL     1       7.393   5.435  -5.331  0.00  0.00    +0.000 HD
ATOM     18  H   UNL     1       8.318   4.773  -4.158  0.00  0.00    +0.000 HD
ENDBRANCH  15  16
ENDBRANCH  14  15
ENDBRANCH  13  14
ENDBRANCH  12  13
ENDBRANCH  11  12
ENDBRANCH   7  11
ENDBRANCH   1   7
BRANCH   5  19
ATOM     19  O   UNL     1      11.445  -2.740  -5.793  0.00  0.00    +0.000 OA
BRANCH  19  20
ATOM     20  C   UNL     1      10.756  -3.396  -6.865  0.00  0.00    +0.000 C 
BRANCH  20  21
ATOM     21  C   UNL     1      11.761  -4.020  -7.789  0.00  0.00    +0.000 A 
ATOM     22  C   UNL     1      12.712  -4.908  -7.282  0.00  0.00    +0.000 A 
ATOM     23  C   UNL     1      13.614  -5.482  -8.161  0.00  0.00    +0.000 A 
ATOM     24  N   UNL     1      13.620  -5.246  -9.491  0.00  0.00    +0.000 NA
ATOM     25  C   UNL     1      12.681  -4.394  -9.959  0.00  0.00    +0.000 A 
ATOM     26  C   UNL     1      11.740  -3.769  -9.162  0.00  0.00    +0.000 A 
ENDBRANCH  20  21
ENDBRANCH  19  20
ENDBRANCH   5  19
TORSDOF 11
