REMARK  Name = 
REMARK  3 active torsions:
REMARK  status: ('A' for Active; 'I' for Inactive)
REMARK    1  A    between atoms: C_2  and  C_4
REMARK    2  A    between atoms: N_8  and  C_9
REMARK    3  A    between atoms: C_9  and  C_10
REMARK                            x       y       z     vdW  Elec       q    Type
REMARK                         _______ _______ _______ _____ _____    ______ ____
ROOT
ATOM      1  C   UNL     1       1.454   6.366  -1.932  0.00  0.00    +0.000 A 
ATOM      2  C   UNL     1       1.566   5.132  -1.338  0.00  0.00    +0.000 A 
ATOM      3  N   UNL     1       2.748   4.533  -1.073  0.00  0.00    +0.000 NA
ATOM      4  C   UNL     1       3.861   5.188  -1.442  0.00  0.00    +0.000 A 
ATOM      5  N   UNL     1       5.063   4.560  -1.146  0.00  0.00    +0.000 N 
ATOM      6  N   UNL     1       3.848   6.376  -2.071  0.00  0.00    +0.000 NA
ATOM      7  C   UNL     1       2.643   6.944  -2.302  0.00  0.00    +0.000 A 
ATOM      8  H   UNL     1       4.903   3.628  -0.794  0.00  0.00    +0.000 HD
ENDROOT
BRANCH   1  10
ATOM      9  N   UNL     1      -0.879   6.732  -1.378  0.00  0.00    +0.000 N 
ATOM     10  C   UNL     1       0.175   7.043  -2.190  0.00  0.00    +0.000 C 
ATOM     11  O   UNL     1       0.071   7.879  -3.076  0.00  0.00    +0.000 OA
ATOM     12  H   UNL     1      -1.717   7.289  -1.502  0.00  0.00    +0.000 HD
ATOM     13  H   UNL     1      -0.776   6.259  -0.489  0.00  0.00    +0.000 HD
ENDBRANCH   1  10
BRANCH   5  14
ATOM     14  C   UNL     1       6.305   4.910  -1.846  0.00  0.00    +0.000 C 
ATOM     15  C   UNL     1       6.403   4.639  -3.339  0.00  0.00    +0.000 C 
ATOM     16  C   UNL     1       7.156   3.768  -2.388  0.00  0.00    +0.000 C 
BRANCH  14  17
ATOM     17  C   UNL     1       7.056   6.094  -1.231  0.00  0.00    +0.000 A 
ATOM     18  C   UNL     1       6.922   7.390  -1.738  0.00  0.00    +0.000 A 
ATOM     19  N   UNL     1       7.528   8.486  -1.212  0.00  0.00    +0.000 NA
ATOM     20  C   UNL     1       8.279   8.247  -0.119  0.00  0.00    +0.000 A 
ATOM     21  C   UNL     1       8.436   6.976   0.405  0.00  0.00    +0.000 A 
ATOM     22  N   UNL     1       7.846   5.885  -0.137  0.00  0.00    +0.000 NA
ENDBRANCH  14  17
ENDBRANCH   5  14
TORSDOF 3
