REMARK  Name = 
REMARK  5 active torsions:
REMARK  status: ('A' for Active; 'I' for Inactive)
REMARK    1  A    between atoms: C_1  and  C_2
REMARK    2  A    between atoms: C_2  and  C_3
REMARK    3  A    between atoms: C_2  and  N_9
REMARK    4  A    between atoms: N_9  and  C_10
REMARK    5  A    between atoms: C_14  and  C_15
REMARK                            x       y       z     vdW  Elec       q    Type
REMARK                         _______ _______ _______ _____ _____    ______ ____
ROOT
ATOM      1  N   UNL     1       3.161   1.643   0.451  0.00  0.00    +0.000 N 
ATOM      2  C   UNL     1       2.578   2.390   1.565  0.00  0.00    +0.000 C 
ATOM      3  C   UNL     1       4.558   1.531   0.749  0.00  0.00    +0.000 A 
ATOM      4  C   UNL     1       5.390   2.647   0.540  0.00  0.00    +0.000 A 
ATOM      5  N   UNL     1       6.688   2.731   0.934  0.00  0.00    +0.000 NA
ATOM      6  C   UNL     1       7.150   1.613   1.558  0.00  0.00    +0.000 A 
ATOM      7  C   UNL     1       6.364   0.485   1.741  0.00  0.00    +0.000 A 
ATOM      8  N   UNL     1       5.062   0.424   1.341  0.00  0.00    +0.000 NA
ENDROOT
BRANCH   6   9
ATOM      9  C   UNL     1       8.539   1.656   2.096  0.00  0.00    +0.000 C 
ATOM     10  N   UNL     1       9.210   2.836   1.912  0.00  0.00    +0.000 N 
ATOM     11  O   UNL     1       9.047   0.709   2.682  0.00  0.00    +0.000 OA
ATOM     12  H   UNL     1       8.751   3.612   1.447  0.00  0.00    +0.000 HD
ATOM     13  H   UNL     1      10.144   2.944   2.280  0.00  0.00    +0.000 HD
ENDBRANCH   6   9
BRANCH   1  15
ATOM     14  C   UNL     1       2.998   0.083  -1.419  0.00  0.00    +0.000 C 
ATOM     15  C   UNL     1       2.553   0.340   0.042  0.00  0.00    +0.000 C 
BRANCH  15  16
ATOM     16  C   UNL     1       0.987   0.219   0.102  0.00  0.00    +0.000 C 
ATOM     17  C   UNL     1       0.218   1.257  -0.738  0.00  0.00    +0.000 C 
ATOM     18  C   UNL     1      -1.295   1.042  -0.673  0.00  0.00    +0.000 C 
ATOM     19  C   UNL     1      -1.798   0.999   0.763  0.00  0.00    +0.000 C 
ATOM     20  C   UNL     1      -1.100  -0.105   1.549  0.00  0.00    +0.000 C 
ATOM     21  C   UNL     1       0.419   0.069   1.530  0.00  0.00    +0.000 C 
ENDBRANCH  15  16
ENDBRANCH   1  15
TORSDOF 3
