REMARK  Name = 
REMARK  5 active torsions:
REMARK  status: ('A' for Active; 'I' for Inactive)
REMARK    1  A    between atoms: C_2  and  C_4
REMARK    2  A    between atoms: C_7  and  N_8
REMARK    3  A    between atoms: N_8  and  C_9
REMARK    4  A    between atoms: C_9  and  C_10
REMARK    5  A    between atoms: C_14  and  C_15
REMARK                            x       y       z     vdW  Elec       q    Type
REMARK                         _______ _______ _______ _____ _____    ______ ____
ROOT
ATOM      1  C   UNL     1       4.344  -4.797   3.990  0.00  0.00    +0.000 C 
ENDROOT
BRANCH   1   2
ATOM      2  C   UNL     1       5.058  -5.548   5.088  0.00  0.00    +0.000 A 
ATOM      3  C   UNL     1       4.967  -6.930   5.179  0.00  0.00    +0.000 A 
ATOM      4  N   UNL     1       5.564  -7.661   6.143  0.00  0.00    +0.000 NA
ATOM      5  C   UNL     1       6.281  -6.984   7.073  0.00  0.00    +0.000 A 
ATOM      6  C   UNL     1       6.445  -5.595   7.112  0.00  0.00    +0.000 A 
ATOM      7  C   UNL     1       5.805  -4.887   6.077  0.00  0.00    +0.000 A 
BRANCH   6   8
ATOM      8  C   UNL     1       7.229  -4.922   8.170  0.00  0.00    +0.000 A 
ATOM      9  C   UNL     1       7.315  -5.422   9.478  0.00  0.00    +0.000 A 
ATOM     10  N   UNL     1       8.009  -4.851  10.497  0.00  0.00    +0.000 NA
ATOM     11  C   UNL     1       8.657  -3.701  10.213  0.00  0.00    +0.000 A 
ATOM     12  C   UNL     1       8.644  -3.118   8.962  0.00  0.00    +0.000 A 
ATOM     13  F   UNL     1       9.303  -1.975   8.733  0.00  0.00    +0.000 F 
ATOM     14  C   UNL     1       7.934  -3.730   7.935  0.00  0.00    +0.000 A 
ENDBRANCH   6   8
ENDBRANCH   1   2
BRANCH   1  15
ATOM     15  N   UNL     1       5.315  -4.068   3.177  0.00  0.00    +0.000 N 
ATOM     16  H   UNL     1       6.047  -4.682   2.829  0.00  0.00    +0.000 HD
BRANCH  15  20
ATOM     17  C   UNL     1       3.818  -1.845   0.048  0.00  0.00    +0.000 A 
ATOM     18  C   UNL     1       2.971  -2.583   0.858  0.00  0.00    +0.000 A 
ATOM     19  N   UNL     1       3.423  -3.342   1.896  0.00  0.00    +0.000 NA
ATOM     20  C   UNL     1       4.757  -3.350   2.105  0.00  0.00    +0.000 A 
ATOM     21  C   UNL     1       5.597  -2.595   1.270  0.00  0.00    +0.000 A 
ATOM     22  N   UNL     1       5.167  -1.836   0.226  0.00  0.00    +0.000 NA
BRANCH  17  24
ATOM     23  N   UNL     1       4.173  -0.346  -1.824  0.00  0.00    +0.000 N 
ATOM     24  C   UNL     1       3.258  -1.012  -1.053  0.00  0.00    +0.000 C 
ATOM     25  O   UNL     1       2.055  -0.924  -1.259  0.00  0.00    +0.000 OA
ATOM     26  H   UNL     1       3.854   0.232  -2.589  0.00  0.00    +0.000 HD
ATOM     27  H   UNL     1       5.166  -0.455  -1.645  0.00  0.00    +0.000 HD
ENDBRANCH  17  24
ENDBRANCH  15  20
ENDBRANCH   1  15
TORSDOF 5
