REMARK  Name = 
REMARK  7 active torsions:
REMARK  status: ('A' for Active; 'I' for Inactive)
REMARK    1  A    between atoms: C_1  and  C_2
REMARK    2  A    between atoms: C_2  and  C_3
REMARK    3  A    between atoms: C_6  and  C_7
REMARK    4  A    between atoms: C_7  and  C_8
REMARK    5  A    between atoms: C_11  and  C_12
REMARK    6  A    between atoms: C_12  and  N_13
REMARK    7  A    between atoms: C_14  and  C_16
REMARK                            x       y       z     vdW  Elec       q    Type
REMARK                         _______ _______ _______ _____ _____    ______ ____
ROOT
ATOM      1  C   UNL     1       2.004   1.542   6.526  0.00  0.00    +0.000 A 
ATOM      2  C   UNL     1       2.304   0.190   6.749  0.00  0.00    +0.000 A 
ATOM      3  C   UNL     1       1.691  -0.517   7.786  0.00  0.00    +0.000 A 
ATOM      4  C   UNL     1       0.786   0.122   8.642  0.00  0.00    +0.000 A 
ATOM      5  C   UNL     1       0.508   1.474   8.425  0.00  0.00    +0.000 A 
ATOM      6  F   UNL     1      -0.348   2.117   9.235  0.00  0.00    +0.000 F 
ATOM      7  C   UNL     1       1.100   2.181   7.380  0.00  0.00    +0.000 A 
ENDROOT
BRANCH   1   8
ATOM      8  C   UNL     1       2.629   2.275   5.366  0.00  0.00    +0.000 C 
BRANCH   8  12
ATOM      9  C   UNL     1       1.747   1.456   1.130  0.00  0.00    +0.000 C 
ATOM     10  C   UNL     1       0.955   0.685   2.193  0.00  0.00    +0.000 C 
ATOM     11  C   UNL     1       1.612   0.752   3.569  0.00  0.00    +0.000 C 
ATOM     12  C   UNL     1       1.820   2.201   4.050  0.00  0.00    +0.000 C 
ATOM     13  C   UNL     1       2.527   3.050   2.975  0.00  0.00    +0.000 C 
ATOM     14  C   UNL     1       1.897   2.916   1.588  0.00  0.00    +0.000 C 
BRANCH   9  16
ATOM     15  C   UNL     1       3.019  -0.596   0.261  0.00  0.00    +0.000 C 
ATOM     16  C   UNL     1       3.116   0.826   0.797  0.00  0.00    +0.000 C 
ENDBRANCH   9  16
ENDBRANCH   8  12
ENDBRANCH   1   8
BRANCH   4  17
ATOM     17  C   UNL     1       0.108  -0.637   9.744  0.00  0.00    +0.000 C 
BRANCH  17  18
ATOM     18  N   UNL     1      -1.133  -1.226   9.300  0.00  0.00    +0.000 N 
ATOM     19  C   UNL     1      -1.217  -2.516   8.845  0.00  0.00    +0.000 C 
ATOM     20  O   UNL     1      -0.235  -3.252   8.784  0.00  0.00    +0.000 OA
ATOM     21  H   UNL     1      -1.911  -0.589   9.156  0.00  0.00    +0.000 HD
BRANCH  19  22
ATOM     22  C   UNL     1      -2.558  -3.010   8.502  0.00  0.00    +0.000 A 
ATOM     23  C   UNL     1      -2.795  -4.378   8.490  0.00  0.00    +0.000 A 
ATOM     24  S   UNL     1      -4.407  -4.793   8.121  0.00  0.00    +0.000 S 
ATOM     25  C   UNL     1      -4.836  -3.161   7.920  0.00  0.00    +0.000 A 
ATOM     26  N   UNL     1      -6.105  -2.813   7.569  0.00  0.00    +0.000 NA
ATOM     27  C   UNL     1      -6.287  -1.544   7.416  0.00  0.00    +0.000 A 
ATOM     28  N   UNL     1      -5.318  -0.590   7.592  0.00  0.00    +0.000 N 
ATOM     29  C   UNL     1      -4.037  -0.891   7.992  0.00  0.00    +0.000 A 
ATOM     30  O   UNL     1      -3.215  -0.008   8.216  0.00  0.00    +0.000 OA
ATOM     31  C   UNL     1      -3.771  -2.311   8.151  0.00  0.00    +0.000 A 
ATOM     32  H   UNL     1      -5.531   0.389   7.474  0.00  0.00    +0.000 HD
ENDBRANCH  19  22
ENDBRANCH  17  18
ENDBRANCH   4  17
TORSDOF 6
