REMARK  Name = 
REMARK  7 active torsions:
REMARK  status: ('A' for Active; 'I' for Inactive)
REMARK    1  A    between atoms: C_1  and  C_2
REMARK    2  A    between atoms: C_2  and  C_3
REMARK    3  A    between atoms: C_2  and  C_14
REMARK    4  A    between atoms: C_3  and  N_4
REMARK    5  A    between atoms: C_8  and  C_9
REMARK    6  A    between atoms: C_18  and  S_19
REMARK    7  A    between atoms: S_19  and  C_20
REMARK                            x       y       z     vdW  Elec       q    Type
REMARK                         _______ _______ _______ _____ _____    ______ ____
ROOT
ATOM      1  C   UNL     1       2.968   1.359  -0.410  0.00  0.00    +0.000 C 
ENDROOT
BRANCH   1   2
ATOM      2  N   UNL     1       2.474   2.574   0.228  0.00  0.00    +0.000 N 
ATOM      3  C   UNL     1       3.049   3.757  -0.267  0.00  0.00    +0.000 A 
ATOM      4  C   UNL     1       2.671   4.963   0.319  0.00  0.00    +0.000 A 
ATOM      5  C   UNL     1       3.226   6.158  -0.143  0.00  0.00    +0.000 A 
ATOM      6  C   UNL     1       4.152   6.129  -1.185  0.00  0.00    +0.000 A 
ATOM      7  C   UNL     1       4.461   4.887  -1.716  0.00  0.00    +0.000 A 
ATOM      8  N   UNL     1       3.927   3.715  -1.287  0.00  0.00    +0.000 NA
ATOM      9  H   UNL     1       2.645   2.562   1.228  0.00  0.00    +0.000 HD
BRANCH   6  10
ATOM     10  C   UNL     1       4.745   7.399  -1.665  0.00  0.00    +0.000 C 
ATOM     11  N   UNL     1       5.665   7.364  -2.674  0.00  0.00    +0.000 N 
ATOM     12  O   UNL     1       4.424   8.474  -1.172  0.00  0.00    +0.000 OA
ATOM     13  H   UNL     1       6.007   6.540  -3.144  0.00  0.00    +0.000 HD
ATOM     14  H   UNL     1       6.047   8.256  -2.966  0.00  0.00    +0.000 HD
ENDBRANCH   6  10
ENDBRANCH   1   2
BRANCH   1  16
ATOM     15  C   UNL     1       0.851  -0.048   0.056  0.00  0.00    +0.000 C 
ATOM     16  C   UNL     1       2.312   0.181   0.258  0.00  0.00    +0.000 C 
BRANCH  16  17
ATOM     17  C   UNL     1       2.947  -0.346   1.469  0.00  0.00    +0.000 A 
ATOM     18  C   UNL     1       3.858  -1.405   1.398  0.00  0.00    +0.000 A 
ATOM     19  C   UNL     1       4.565  -1.802   2.537  0.00  0.00    +0.000 A 
ATOM     20  C   UNL     1       4.391  -1.122   3.744  0.00  0.00    +0.000 A 
ATOM     21  C   UNL     1       3.469  -0.076   3.812  0.00  0.00    +0.000 A 
ATOM     22  C   UNL     1       2.725   0.292   2.691  0.00  0.00    +0.000 A 
BRANCH  21  23
ATOM     23  S   UNL     1       3.357   0.929   5.268  0.00  0.00    +0.000 S 
ATOM     24  C   UNL     1       2.150   0.110   6.267  0.00  0.00    +0.000 C 
ATOM     25  O   UNL     1       4.638   0.848   5.949  0.00  0.00    +0.000 OA
ATOM     26  O   UNL     1       2.816   2.215   4.869  0.00  0.00    +0.000 OA
ENDBRANCH  21  23
ENDBRANCH  16  17
ENDBRANCH   1  16
TORSDOF 5
