REMARK  Name = 
REMARK  9 active torsions:
REMARK  status: ('A' for Active; 'I' for Inactive)
REMARK    1  A    between atoms: C_2  and  C_4
REMARK    2  A    between atoms: C_7  and  N_8
REMARK    3  A    between atoms: N_8  and  C_9
REMARK    4  A    between atoms: C_9  and  C_10
REMARK    5  A    between atoms: C_10  and  C_11
REMARK    6  A    between atoms: C_10  and  C_13
REMARK    7  A    between atoms: C_11  and  O_12
REMARK    8  A    between atoms: C_17  and  O_18
REMARK    9  A    between atoms: O_18  and  C_19
REMARK                            x       y       z     vdW  Elec       q    Type
REMARK                         _______ _______ _______ _____ _____    ______ ____
ROOT
ATOM      1  C   UNL     1       6.028   0.347   7.184  0.00  0.00    +0.000 C 
ENDROOT
BRANCH   1   2
ATOM      2  C   UNL     1       5.720  -0.396   8.479  0.00  0.00    +0.000 A 
ATOM      3  C   UNL     1       6.304  -1.651   8.711  0.00  0.00    +0.000 A 
ATOM      4  C   UNL     1       6.068  -2.339   9.904  0.00  0.00    +0.000 A 
ATOM      5  C   UNL     1       5.238  -1.792  10.886  0.00  0.00    +0.000 A 
ATOM      6  C   UNL     1       4.627  -0.564  10.657  0.00  0.00    +0.000 A 
ATOM      7  C   UNL     1       4.862   0.123   9.460  0.00  0.00    +0.000 A 
BRANCH   6   8
ATOM      8  O   UNL     1       3.814   0.095  11.544  0.00  0.00    +0.000 OA
BRANCH   8   9
ATOM      9  C   UNL     1       3.163  -0.649  12.597  0.00  0.00    +0.000 C 
ATOM     10  C   UNL     1       2.028  -1.605  12.210  0.00  0.00    +0.000 C 
ATOM     11  O   UNL     1       1.075  -0.902  13.041  0.00  0.00    +0.000 OA
ATOM     12  C   UNL     1       2.055   0.118  13.335  0.00  0.00    +0.000 C 
ENDBRANCH   8   9
ENDBRANCH   6   8
ENDBRANCH   1   2
BRANCH   1  13
ATOM     13  C   UNL     1       5.023  -0.046   6.078  0.00  0.00    +0.000 C 
BRANCH  13  14
ATOM     14  N   UNL     1       5.472   0.447   4.775  0.00  0.00    +0.000 N 
ATOM     15  H   UNL     1       5.775   1.428   4.818  0.00  0.00    +0.000 HD
BRANCH  14  19
ATOM     16  C   UNL     1       3.395  -0.332   1.189  0.00  0.00    +0.000 A 
ATOM     17  C   UNL     1       2.886  -0.812   2.398  0.00  0.00    +0.000 A 
ATOM     18  C   UNL     1       3.554  -0.553   3.598  0.00  0.00    +0.000 A 
ATOM     19  C   UNL     1       4.725   0.209   3.621  0.00  0.00    +0.000 A 
ATOM     20  C   UNL     1       5.236   0.670   2.399  0.00  0.00    +0.000 A 
ATOM     21  C   UNL     1       4.583   0.398   1.190  0.00  0.00    +0.000 A 
BRANCH  16  23
ATOM     22  N   UNL     1       1.374  -0.811  -0.081  0.00  0.00    +0.000 N 
ATOM     23  C   UNL     1       2.729  -0.618  -0.106  0.00  0.00    +0.000 C 
ATOM     24  O   UNL     1       3.351  -0.650  -1.160  0.00  0.00    +0.000 OA
ATOM     25  H   UNL     1       0.920  -0.901  -0.979  0.00  0.00    +0.000 HD
ATOM     26  H   UNL     1       0.808  -0.542   0.710  0.00  0.00    +0.000 HD
ENDBRANCH  16  23
ENDBRANCH  14  19
ENDBRANCH  13  14
ENDBRANCH   1  13
BRANCH   1  27
ATOM     27  C   UNL     1       6.094   1.878   7.366  0.00  0.00    +0.000 C 
BRANCH  27  28
ATOM     28  O   UNL     1       6.602   2.529   6.200  0.00  0.00    +0.000 OA
ATOM     29  H   UNL     1       7.523   2.232   6.084  0.00  0.00    +0.000 HD
ENDBRANCH  27  28
ENDBRANCH   1  27
TORSDOF 9
