REMARK  Name = 
REMARK  4 active torsions:
REMARK  status: ('A' for Active; 'I' for Inactive)
REMARK    1  A    between atoms: C_2  and  C_4
REMARK    2  A    between atoms: C_7  and  O_8
REMARK    3  A    between atoms: O_8  and  C_9
REMARK    4  A    between atoms: C_9  and  C_10
REMARK                            x       y       z     vdW  Elec       q    Type
REMARK                         _______ _______ _______ _____ _____    ______ ____
ROOT
ATOM      1  O   UNL     1       5.420  -4.375  -0.806  0.00  0.00    +0.000 OA
ENDROOT
BRANCH   1   5
ATOM      2  C   UNL     1       2.854  -1.684   0.958  0.00  0.00    +0.000 A 
ATOM      3  C   UNL     1       3.893  -1.241   0.142  0.00  0.00    +0.000 A 
ATOM      4  C   UNL     1       4.737  -2.179  -0.443  0.00  0.00    +0.000 A 
ATOM      5  C   UNL     1       4.509  -3.531  -0.202  0.00  0.00    +0.000 A 
ATOM      6  N   UNL     1       3.521  -3.999   0.585  0.00  0.00    +0.000 NA
ATOM      7  C   UNL     1       2.720  -3.055   1.160  0.00  0.00    +0.000 A 
BRANCH   2   9
ATOM      8  N   UNL     1       1.751   0.486   1.076  0.00  0.00    +0.000 N 
ATOM      9  C   UNL     1       1.931  -0.752   1.640  0.00  0.00    +0.000 C 
ATOM     10  O   UNL     1       1.333  -1.076   2.654  0.00  0.00    +0.000 OA
ATOM     11  H   UNL     1       1.066   1.087   1.516  0.00  0.00    +0.000 HD
ATOM     12  H   UNL     1       2.038   0.714   0.136  0.00  0.00    +0.000 HD
ENDBRANCH   2   9
ENDBRANCH   1   5
BRANCH   1  13
ATOM     13  C   UNL     1       5.058  -5.755  -1.030  0.00  0.00    +0.000 C 
ATOM     14  C   UNL     1       5.048  -6.032  -2.534  0.00  0.00    +0.000 C 
ATOM     15  C   UNL     1       3.781  -6.126  -1.754  0.00  0.00    +0.000 C 
BRANCH  13  16
ATOM     16  C   UNL     1       5.704  -6.763  -0.095  0.00  0.00    +0.000 A 
ATOM     17  C   UNL     1       6.966  -7.322  -0.368  0.00  0.00    +0.000 A 
ATOM     18  C   UNL     1       7.589  -8.199   0.526  0.00  0.00    +0.000 A 
ATOM     19  C   UNL     1       6.964  -8.536   1.726  0.00  0.00    +0.000 A 
ATOM     20 CL   UNL     1       7.809  -9.585   2.807  0.00  0.00    +0.000 Cl
ATOM     21  C   UNL     1       5.703  -8.009   2.017  0.00  0.00    +0.000 A 
ATOM     22 CL   UNL     1       4.861  -8.385   3.480  0.00  0.00    +0.000 Cl
ATOM     23  C   UNL     1       5.085  -7.136   1.112  0.00  0.00    +0.000 A 
ENDBRANCH  13  16
ENDBRANCH   1  13
TORSDOF 4
