REMARK  Name = 
REMARK  6 active torsions:
REMARK  status: ('A' for Active; 'I' for Inactive)
REMARK    1  A    between atoms: N_1  and  C_2
REMARK    2  A    between atoms: C_2  and  C_3
REMARK    3  A    between atoms: C_3  and  C_4
REMARK    4  A    between atoms: C_7  and  C_8
REMARK    5  A    between atoms: C_8  and  C_9
REMARK    6  A    between atoms: C_9  and  C_10
REMARK                            x       y       z     vdW  Elec       q    Type
REMARK                         _______ _______ _______ _____ _____    ______ ____
ROOT
ATOM      1  C   UNL     1       4.327  -1.191   0.974  0.00  0.00    +0.000 A 
ATOM      2  C   UNL     1       5.020  -0.121   1.528  0.00  0.00    +0.000 A 
ATOM      3  C   UNL     1       6.412  -0.125   1.527  0.00  0.00    +0.000 A 
ATOM      4  C   UNL     1       7.098  -1.217   0.996  0.00  0.00    +0.000 A 
ATOM      5  N   UNL     1       6.439  -2.259   0.434  0.00  0.00    +0.000 NA
ATOM      6  C   UNL     1       5.084  -2.224   0.430  0.00  0.00    +0.000 A 
ENDROOT
BRANCH   1   7
ATOM      7  C   UNL     1       2.825  -1.204   0.925  0.00  0.00    +0.000 C 
BRANCH   7   8
ATOM      8  C   UNL     1       2.299  -0.520  -0.343  0.00  0.00    +0.000 C 
BRANCH   8   9
ATOM      9  N   UNL     1       0.839  -0.518  -0.371  0.00  0.00    +0.000 NA
ATOM     10  H   UNL     1       0.523  -0.038  -1.214  0.00  0.00    +0.000 HD
ATOM     11  H   UNL     1       0.479   0.024   0.413  0.00  0.00    +0.000 HD
ENDBRANCH   8   9
ENDBRANCH   7   8
ENDBRANCH   1   7
BRANCH   4  12
ATOM     12  C   UNL     1       8.613  -1.288   0.978  0.00  0.00    +0.000 C 
BRANCH  12  13
ATOM     13  C   UNL     1       9.274  -0.655   2.209  0.00  0.00    +0.000 C 
BRANCH  13  14
ATOM     14  C   UNL     1      10.782  -0.713   2.233  0.00  0.00    +0.000 A 
ATOM     15  C   UNL     1      11.527   0.477   2.217  0.00  0.00    +0.000 A 
ATOM     16  C   UNL     1      12.916   0.450   2.340  0.00  0.00    +0.000 A 
ATOM     17  C   UNL     1      13.577  -0.768   2.476  0.00  0.00    +0.000 A 
ATOM     18  C   UNL     1      12.850  -1.958   2.477  0.00  0.00    +0.000 A 
ATOM     19  C   UNL     1      11.458  -1.932   2.356  0.00  0.00    +0.000 A 
ENDBRANCH  13  14
ENDBRANCH  12  13
ENDBRANCH   4  12
TORSDOF 6
