REMARK  Name = 
REMARK  7 active torsions:
REMARK  status: ('A' for Active; 'I' for Inactive)
REMARK    1  A    between atoms: N_1  and  C_2
REMARK    2  A    between atoms: C_2  and  C_3
REMARK    3  A    between atoms: C_7  and  S_8
REMARK    4  A    between atoms: S_8  and  C_9
REMARK    5  A    between atoms: C_9  and  C_10
REMARK    6  A    between atoms: C_10  and  C_11
REMARK    7  A    between atoms: C_14  and  C_15
REMARK                            x       y       z     vdW  Elec       q    Type
REMARK                         _______ _______ _______ _____ _____    ______ ____
ROOT
ATOM      1  C   UNL     1       3.522  -0.581   6.425  0.00  0.00    +0.000 C 
ENDROOT
BRANCH   1   2
ATOM      2  S   UNL     1       3.610  -1.497   4.841  0.00  0.00    +0.000 S 
BRANCH   2   7
ATOM      3  C   UNL     1       2.726   0.561   1.440  0.00  0.00    +0.000 A 
ATOM      4  C   UNL     1       3.273   1.827   1.683  0.00  0.00    +0.000 A 
ATOM      5  C   UNL     1       3.941   2.090   2.877  0.00  0.00    +0.000 A 
ATOM      6  C   UNL     1       4.058   1.096   3.849  0.00  0.00    +0.000 A 
ATOM      7  C   UNL     1       3.506  -0.172   3.640  0.00  0.00    +0.000 A 
ATOM      8  C   UNL     1       2.859  -0.435   2.423  0.00  0.00    +0.000 A 
BRANCH   3   9
ATOM      9  C   UNL     1       1.961   0.291   0.169  0.00  0.00    +0.000 C 
BRANCH   9  10
ATOM     10  N   UNL     1       2.767   0.550  -1.017  0.00  0.00    +0.000 NA
ATOM     11  H   UNL     1       2.248   0.254  -1.843  0.00  0.00    +0.000 HD
ATOM     12  H   UNL     1       3.602  -0.032  -0.977  0.00  0.00    +0.000 HD
ENDBRANCH   9  10
ENDBRANCH   3   9
ENDBRANCH   2   7
ENDBRANCH   1   2
BRANCH   1  13
ATOM     13  C   UNL     1       3.505  -1.552   7.606  0.00  0.00    +0.000 C 
BRANCH  13  14
ATOM     14  C   UNL     1       3.483  -0.818   8.932  0.00  0.00    +0.000 A 
ATOM     15  C   UNL     1       2.269  -0.506   9.550  0.00  0.00    +0.000 A 
ATOM     16  C   UNL     1       2.249   0.167  10.775  0.00  0.00    +0.000 A 
ATOM     17  C   UNL     1       3.446   0.539  11.402  0.00  0.00    +0.000 A 
ATOM     18  C   UNL     1       4.666   0.246  10.779  0.00  0.00    +0.000 A 
ATOM     19  C   UNL     1       4.681  -0.422   9.547  0.00  0.00    +0.000 A 
BRANCH  17  20
ATOM     20  C   UNL     1       3.367   1.255  12.702  0.00  0.00    +0.000 C 
ATOM     21  N   UNL     1       4.430   1.153  13.553  0.00  0.00    +0.000 N 
ATOM     22  O   UNL     1       2.370   1.892  13.021  0.00  0.00    +0.000 OA
ATOM     23  H   UNL     1       5.190   0.500  13.425  0.00  0.00    +0.000 HD
ATOM     24  H   UNL     1       4.315   1.569  14.467  0.00  0.00    +0.000 HD
ENDBRANCH  17  20
ENDBRANCH  13  14
ENDBRANCH   1  13
TORSDOF 7
