REMARK  Name = 
REMARK  10 active torsions:
REMARK  status: ('A' for Active; 'I' for Inactive)
REMARK    1  A    between atoms: C_1  and  C_2
REMARK    2  A    between atoms: C_2  and  N_3
REMARK    3  A    between atoms: N_3  and  C_4
REMARK    4  A    between atoms: N_3  and  C_5
REMARK    5  A    between atoms: C_5  and  C_6
REMARK    6  A    between atoms: C_6  and  N_7
REMARK    7  A    between atoms: N_7  and  C_8
REMARK    8  A    between atoms: C_12  and  C_13
REMARK    9  A    between atoms: C_13  and  N_14
REMARK   10  A    between atoms: C_19  and  C_20
REMARK                            x       y       z     vdW  Elec       q    Type
REMARK                         _______ _______ _______ _____ _____    ______ ____
ROOT
ATOM      1  C   UNL     1       7.274  -2.182   3.434  0.00  0.00    +0.000 A 
ATOM      2  C   UNL     1       6.833  -3.451   3.824  0.00  0.00    +0.000 A 
ATOM      3  C   UNL     1       7.630  -4.281   4.618  0.00  0.00    +0.000 A 
ATOM      4  C   UNL     1       8.901  -3.866   5.008  0.00  0.00    +0.000 A 
ATOM      5  C   UNL     1       9.395  -2.630   4.579  0.00  0.00    +0.000 A 
ATOM      6  C   UNL     1       8.573  -1.802   3.795  0.00  0.00    +0.000 A 
ENDROOT
BRANCH   1   7
ATOM      7  N   UNL     1       6.543  -1.317   2.611  0.00  0.00    +0.000 N 
ATOM      8  H   UNL     1       6.860  -1.377   1.643  0.00  0.00    +0.000 HD
BRANCH   7   9
ATOM      9  C   UNL     1       5.082  -1.367   2.671  0.00  0.00    +0.000 C 
BRANCH   9  10
ATOM     10  C   UNL     1       4.464  -0.376   1.658  0.00  0.00    +0.000 C 
BRANCH  10  11
ATOM     11  N   UNL     1       4.823  -0.605   0.232  0.00  0.00    +0.000 NA
ATOM     12  C   UNL     1       4.262   0.491  -0.570  0.00  0.00    +0.000 C 
BRANCH  11  14
ATOM     13  C   UNL     1       4.763  -2.248  -1.671  0.00  0.00    +0.000 C 
ATOM     14  C   UNL     1       4.347  -1.917  -0.241  0.00  0.00    +0.000 C 
ENDBRANCH  11  14
ENDBRANCH  10  11
ENDBRANCH   9  10
ENDBRANCH   7   9
ENDBRANCH   1   7
BRANCH   5  15
ATOM     15  C   UNL     1      10.798  -2.197   4.936  0.00  0.00    +0.000 C 
BRANCH  15  16
ATOM     16  N   UNL     1      10.793  -1.417   6.167  0.00  0.00    +0.000 N 
ATOM     17  C   UNL     1      12.083  -1.026   6.566  0.00  0.00    +0.000 A 
ATOM     18  C   UNL     1      12.227  -0.273   7.726  0.00  0.00    +0.000 A 
ATOM     19  C   UNL     1      13.498   0.153   8.112  0.00  0.00    +0.000 A 
ATOM     20  C   UNL     1      14.595  -0.183   7.330  0.00  0.00    +0.000 A 
ATOM     21  C   UNL     1      14.381  -0.934   6.183  0.00  0.00    +0.000 A 
ATOM     22  C   UNL     1      15.510  -1.335   5.286  0.00  0.00    +0.000 C 
ATOM     23  N   UNL     1      13.148  -1.343   5.803  0.00  0.00    +0.000 NA
ATOM     24  H   UNL     1      10.338  -1.909   6.927  0.00  0.00    +0.000 HD
ENDBRANCH  15  16
ENDBRANCH   5  15
TORSDOF 7
