REMARK  Name = 
REMARK  10 active torsions:
REMARK  status: ('A' for Active; 'I' for Inactive)
REMARK    1  A    between atoms: C_1  and  O_2
REMARK    2  A    between atoms: O_2  and  C_3
REMARK    3  A    between atoms: C_10  and  C_11
REMARK    4  A    between atoms: N_13  and  C_14
REMARK    5  A    between atoms: C_14  and  C_15
REMARK    6  A    between atoms: C_18  and  C_19
REMARK    7  A    between atoms: C_19  and  O_20
REMARK    8  A    between atoms: O_20  and  C_21
REMARK    9  A    between atoms: C_21  and  C_22
REMARK   10  A    between atoms: C_25  and  C_26
REMARK                            x       y       z     vdW  Elec       q    Type
REMARK                         _______ _______ _______ _____ _____    ______ ____
ROOT
ATOM      1  C   UNL     1       3.019  -3.186  -1.188  0.00  0.00    +0.000 C 
ENDROOT
BRANCH   1   2
ATOM      2  C   UNL     1       1.905  -3.394  -0.202  0.00  0.00    +0.000 A 
ATOM      3  C   UNL     1       1.570  -4.677   0.247  0.00  0.00    +0.000 A 
ATOM      4  C   UNL     1       0.545  -4.852   1.179  0.00  0.00    +0.000 A 
ATOM      5  C   UNL     1      -0.157  -3.744   1.677  0.00  0.00    +0.000 A 
ATOM      6  C   UNL     1       0.154  -2.467   1.200  0.00  0.00    +0.000 A 
ATOM      7  C   UNL     1       1.173  -2.294   0.264  0.00  0.00    +0.000 A 
BRANCH   5   8
ATOM      8  C   UNL     1      -1.199  -3.915   2.753  0.00  0.00    +0.000 C 
BRANCH   8   9
ATOM      9  O   UNL     1      -0.678  -4.620   3.877  0.00  0.00    +0.000 OA
BRANCH   9  10
ATOM     10  C   UNL     1       0.314  -3.872   4.590  0.00  0.00    +0.000 C 
BRANCH  10  11
ATOM     11  C   UNL     1       0.742  -4.652   5.810  0.00  0.00    +0.000 A 
ATOM     12  C   UNL     1       1.188  -5.964   5.668  0.00  0.00    +0.000 A 
ATOM     13  C   UNL     1       1.575  -6.673   6.800  0.00  0.00    +0.000 A 
ATOM     14  C   UNL     1       1.509  -6.059   8.049  0.00  0.00    +0.000 A 
ATOM     15  C   UNL     1       1.894  -6.778   9.300  0.00  0.00    +0.000 C 
ATOM     16  C   UNL     1       1.070  -4.742   8.097  0.00  0.00    +0.000 A 
ATOM     17  N   UNL     1       0.689  -4.026   7.012  0.00  0.00    +0.000 NA
ENDBRANCH  10  11
ENDBRANCH   9  10
ENDBRANCH   8   9
ENDBRANCH   5   8
ENDBRANCH   1   2
BRANCH   1  20
ATOM     18  C   UNL     1       3.379  -2.970  -3.590  0.00  0.00    +0.000 C 
ATOM     19  O   UNL     1       4.578  -2.772  -3.398  0.00  0.00    +0.000 OA
ATOM     20  N   UNL     1       2.529  -3.194  -2.543  0.00  0.00    +0.000 N 
ATOM     21  H   UNL     1       1.542  -3.357  -2.700  0.00  0.00    +0.000 HD
BRANCH  18  29
ATOM     22  C   UNL     1       0.232  -3.590  -4.889  0.00  0.00    +0.000 A 
ATOM     23  N   UNL     1      -0.861  -3.752  -5.665  0.00  0.00    +0.000 NA
ATOM     24  C   UNL     1      -0.742  -3.557  -6.980  0.00  0.00    +0.000 A 
ATOM     25  N   UNL     1       0.359  -3.213  -7.638  0.00  0.00    +0.000 NA
ATOM     26  C   UNL     1       1.425  -3.060  -6.835  0.00  0.00    +0.000 A 
ATOM     27  S   UNL     1       2.916  -2.626  -7.518  0.00  0.00    +0.000 S 
ATOM     28  C   UNL     1       3.666  -2.632  -5.997  0.00  0.00    +0.000 A 
ATOM     29  C   UNL     1       2.814  -2.954  -4.947  0.00  0.00    +0.000 A 
ATOM     30  C   UNL     1       1.468  -3.219  -5.451  0.00  0.00    +0.000 A 
BRANCH  22  32
ATOM     31  C   UNL     1      -1.216  -4.216  -3.154  0.00  0.00    +0.000 C 
ATOM     32  O   UNL     1       0.098  -3.794  -3.528  0.00  0.00    +0.000 OA
ENDBRANCH  22  32
ENDBRANCH  18  29
ENDBRANCH   1  20
TORSDOF 8
