REMARK  Name = 
REMARK  5 active torsions:
REMARK  status: ('A' for Active; 'I' for Inactive)
REMARK    1  A    between atoms: N_1  and  C_2
REMARK    2  A    between atoms: C_2  and  C_3
REMARK    3  A    between atoms: C_6  and  C_7
REMARK    4  A    between atoms: C_7  and  O_8
REMARK    5  A    between atoms: O_8  and  C_9
REMARK                            x       y       z     vdW  Elec       q    Type
REMARK                         _______ _______ _______ _____ _____    ______ ____
ROOT
ATOM      1  C   UNL     1       2.918  -1.022   1.008  0.00  0.00    +0.000 A 
ATOM      2  C   UNL     1       2.569  -2.339   0.736  0.00  0.00    +0.000 A 
ATOM      3  N   UNL     1       2.867  -3.365   1.567  0.00  0.00    +0.000 NA
ATOM      4  C   UNL     1       3.530  -3.034   2.705  0.00  0.00    +0.000 A 
ATOM      5  C   UNL     1       3.892  -1.716   2.970  0.00  0.00    +0.000 A 
ATOM      6  N   UNL     1       3.590  -0.688   2.142  0.00  0.00    +0.000 NA
ENDROOT
BRANCH   1   7
ATOM      7  C   UNL     1       2.483   0.087   0.083  0.00  0.00    +0.000 C 
BRANCH   7   8
ATOM      8  N   UNL     1       1.154   0.598   0.428  0.00  0.00    +0.000 NA
ATOM      9  H   UNL     1       0.959   1.420  -0.139  0.00  0.00    +0.000 HD
ATOM     10  H   UNL     1       1.195   0.930   1.394  0.00  0.00    +0.000 HD
ENDBRANCH   7   8
ENDBRANCH   1   7
BRANCH   4  11
ATOM     11  C   UNL     1       3.797  -4.132   3.702  0.00  0.00    +0.000 C 
BRANCH  11  12
ATOM     12  O   UNL     1       5.114  -4.658   3.522  0.00  0.00    +0.000 OA
BRANCH  12  13
ATOM     13  C   UNL     1       5.453  -5.694   4.346  0.00  0.00    +0.000 A 
ATOM     14  C   UNL     1       4.566  -6.555   4.990  0.00  0.00    +0.000 A 
ATOM     15  C   UNL     1       5.061  -7.567   5.813  0.00  0.00    +0.000 A 
ATOM     16  C   UNL     1       6.433  -7.681   5.952  0.00  0.00    +0.000 A 
ATOM     17 CL   UNL     1       7.114  -8.884   6.967  0.00  0.00    +0.000 Cl
ATOM     18  N   UNL     1       7.327  -6.888   5.333  0.00  0.00    +0.000 NA
ATOM     19  C   UNL     1       6.813  -5.921   4.535  0.00  0.00    +0.000 A 
ENDBRANCH  12  13
ENDBRANCH  11  12
ENDBRANCH   4  11
TORSDOF 5
