REMARK  Name = 
REMARK  3 active torsions:
REMARK  status: ('A' for Active; 'I' for Inactive)
REMARK    1  A    between atoms: C_1  and  C_2
REMARK    2  A    between atoms: N_7  and  C_8
REMARK    3  A    between atoms: C_8  and  C_9
REMARK                            x       y       z     vdW  Elec       q    Type
REMARK                         _______ _______ _______ _____ _____    ______ ____
ROOT
ATOM      1  C   UNL     1      -2.097   0.760  -2.994  0.00  0.00    +0.000 C 
ATOM      2  C   UNL     1      -0.963   1.720  -2.803  0.00  0.00    +0.000 A 
ATOM      3  C   UNL     1      -0.696   2.705  -3.732  0.00  0.00    +0.000 A 
ATOM      4  C   UNL     1       0.379   3.510  -3.445  0.00  0.00    +0.000 A 
ATOM      5  N   UNL     1       1.152   3.366  -2.352  0.00  0.00    +0.000 NA
ATOM      6  C   UNL     1       0.820   2.390  -1.496  0.00  0.00    +0.000 A 
ATOM      7  N   UNL     1       1.556   2.166  -0.330  0.00  0.00    +0.000 N 
ATOM      8  N   UNL     1      -0.214   1.551  -1.693  0.00  0.00    +0.000 NA
ATOM      9  H   UNL     1       1.266   1.273   0.043  0.00  0.00    +0.000 HD
ENDROOT
BRANCH   7  10
ATOM     10  C   UNL     1       2.952   2.597  -0.215  0.00  0.00    +0.000 C 
ATOM     11  C   UNL     1       3.982   2.075  -1.204  0.00  0.00    +0.000 C 
ATOM     12  C   UNL     1       3.996   1.561   0.196  0.00  0.00    +0.000 C 
BRANCH  10  13
ATOM     13  C   UNL     1       3.141   3.983   0.393  0.00  0.00    +0.000 A 
ATOM     14  C   UNL     1       3.050   4.189   1.783  0.00  0.00    +0.000 A 
ATOM     15  C   UNL     1       3.348   5.428   2.356  0.00  0.00    +0.000 A 
ATOM     16  C   UNL     1       3.730   6.494   1.547  0.00  0.00    +0.000 A 
ATOM     17  C   UNL     1       3.775   6.332   0.166  0.00  0.00    +0.000 A 
ATOM     18  C   UNL     1       3.470   5.093  -0.402  0.00  0.00    +0.000 A 
ENDBRANCH  10  13
ENDBRANCH   7  10
TORSDOF 2
