REMARK  Name = 
REMARK  6 active torsions:
REMARK  status: ('A' for Active; 'I' for Inactive)
REMARK    1  A    between atoms: C_1  and  O_2
REMARK    2  A    between atoms: O_2  and  C_3
REMARK    3  A    between atoms: C_7  and  N_8
REMARK    4  A    between atoms: N_8  and  C_9
REMARK    5  A    between atoms: C_9  and  C_10
REMARK    6  A    between atoms: C_14  and  C_15
REMARK                            x       y       z     vdW  Elec       q    Type
REMARK                         _______ _______ _______ _____ _____    ______ ____
ROOT
ATOM      1  C   UNL     1       7.481   2.681   3.210  0.00  0.00    +0.000 A 
ATOM      2  C   UNL     1       8.537   1.969   3.773  0.00  0.00    +0.000 A 
ATOM      3  C   UNL     1       9.525   2.674   4.438  0.00  0.00    +0.000 A 
ATOM      4  N   UNL     1       9.528   4.018   4.579  0.00  0.00    +0.000 NA
ATOM      5  C   UNL     1       8.499   4.716   4.035  0.00  0.00    +0.000 A 
ATOM      6  C   UNL     1       7.462   4.073   3.359  0.00  0.00    +0.000 A 
ENDROOT
BRANCH   5   7
ATOM      7  C   UNL     1       8.536   6.181   4.216  0.00  0.00    +0.000 A 
ATOM      8  C   UNL     1       9.161   6.761   5.339  0.00  0.00    +0.000 A 
ATOM      9  C   UNL     1       9.175   8.148   5.538  0.00  0.00    +0.000 A 
ATOM     10  C   UNL     1       8.567   8.989   4.612  0.00  0.00    +0.000 A 
ATOM     11  C   UNL     1       7.966   8.436   3.492  0.00  0.00    +0.000 A 
ATOM     12  F   UNL     1       7.383   9.237   2.589  0.00  0.00    +0.000 F 
ATOM     13  C   UNL     1       7.950   7.057   3.285  0.00  0.00    +0.000 A 
ENDBRANCH   5   7
BRANCH   1  14
ATOM     14  C   UNL     1       6.355   1.975   2.499  0.00  0.00    +0.000 C 
BRANCH  14  15
ATOM     15  N   UNL     1       5.337   1.619   3.477  0.00  0.00    +0.000 N 
ATOM     16  H   UNL     1       5.030   2.419   4.021  0.00  0.00    +0.000 HD
BRANCH  15  21
ATOM     17  C   UNL     1       3.131  -0.064   1.184  0.00  0.00    +0.000 A 
ATOM     18  C   UNL     1       2.091  -0.430   2.023  0.00  0.00    +0.000 A 
ATOM     19  N   UNL     1       2.077  -0.115   3.338  0.00  0.00    +0.000 NA
ATOM     20  C   UNL     1       3.167   0.571   3.764  0.00  0.00    +0.000 A 
ATOM     21  C   UNL     1       4.226   0.955   2.932  0.00  0.00    +0.000 A 
ATOM     22  N   UNL     1       4.207   0.630   1.623  0.00  0.00    +0.000 NA
BRANCH  17  24
ATOM     23  C   UNL     1       4.159   0.021  -0.909  0.00  0.00    +0.000 C 
ATOM     24  O   UNL     1       3.052  -0.442  -0.140  0.00  0.00    +0.000 OA
ENDBRANCH  17  24
ENDBRANCH  15  21
ENDBRANCH  14  15
ENDBRANCH   1  14
TORSDOF 5
