REMARK  Name = 
REMARK  12 active torsions:
REMARK  status: ('A' for Active; 'I' for Inactive)
REMARK    1  A    between atoms: C_1  and  C_2
REMARK    2  A    between atoms: C_2  and  C_3
REMARK    3  A    between atoms: C_2  and  C_4
REMARK    4  A    between atoms: C_4  and  N_5
REMARK    5  A    between atoms: C_6  and  C_8
REMARK    6  A    between atoms: C_11  and  N_12
REMARK    7  A    between atoms: N_12  and  C_13
REMARK    8  A    between atoms: C_13  and  C_14
REMARK    9  A    between atoms: C_14  and  C_15
REMARK   10  A    between atoms: C_14  and  C_16
REMARK   11  A    between atoms: C_14  and  C_17
REMARK   12  A    between atoms: C_22  and  C_23
REMARK                            x       y       z     vdW  Elec       q    Type
REMARK                         _______ _______ _______ _____ _____    ______ ____
ROOT
ATOM      1  N   UNL     1      10.756  -2.244   2.039  0.00  0.00    +0.000 N 
ATOM      2  H   UNL     1      11.066  -2.963   1.389  0.00  0.00    +0.000 HD
ENDROOT
BRANCH   1   6
ATOM      3  C   UNL     1       6.663  -1.941   1.735  0.00  0.00    +0.000 A 
ATOM      4  C   UNL     1       7.487  -1.012   1.116  0.00  0.00    +0.000 A 
ATOM      5  N   UNL     1       8.847  -1.069   1.192  0.00  0.00    +0.000 NA
ATOM      6  C   UNL     1       9.365  -2.102   1.891  0.00  0.00    +0.000 A 
ATOM      7  C   UNL     1       8.516  -3.066   2.453  0.00  0.00    +0.000 A 
ATOM      8  N   UNL     1       7.158  -3.010   2.415  0.00  0.00    +0.000 NA
BRANCH   3  10
ATOM      9  N   UNL     1       4.477  -2.636   2.510  0.00  0.00    +0.000 N 
ATOM     10  C   UNL     1       5.185  -1.748   1.725  0.00  0.00    +0.000 C 
ATOM     11  O   UNL     1       4.671  -0.842   1.079  0.00  0.00    +0.000 OA
ATOM     12  H   UNL     1       5.014  -3.357   2.984  0.00  0.00    +0.000 HD
BRANCH   9  13
ATOM     13  C   UNL     1       3.035  -2.600   2.641  0.00  0.00    +0.000 C 
BRANCH  13  15
ATOM     14  C   UNL     1       2.658  -4.840   1.513  0.00  0.00    +0.000 C 
ATOM     15  C   UNL     1       2.315  -3.348   1.509  0.00  0.00    +0.000 C 
ATOM     16  C   UNL     1       0.801  -3.166   1.635  0.00  0.00    +0.000 C 
ENDBRANCH  13  15
ENDBRANCH   9  13
ENDBRANCH   3  10
ENDBRANCH   1   6
BRANCH   1  17
ATOM     17  C   UNL     1      11.505  -0.986   1.921  0.00  0.00    +0.000 C 
BRANCH  17  18
ATOM     18  C   UNL     1      13.044  -1.157   2.185  0.00  0.00    +0.000 C 
ATOM     19  C   UNL     1      13.248  -1.852   3.552  0.00  0.00    +0.000 C 
ATOM     20  C   UNL     1      13.638  -2.048   1.068  0.00  0.00    +0.000 C 
BRANCH  18  21
ATOM     21  C   UNL     1      13.807   0.196   2.187  0.00  0.00    +0.000 A 
ATOM     22  C   UNL     1      13.177   1.424   1.974  0.00  0.00    +0.000 A 
ATOM     23  C   UNL     1      13.910   2.615   1.963  0.00  0.00    +0.000 A 
ATOM     24  N   UNL     1      15.284   2.648   2.159  0.00  0.00    +0.000 N 
ATOM     25  O   UNL     1      15.868   3.785   2.120  0.00  0.00    +0.000 OA
ATOM     26  C   UNL     1      15.932   1.443   2.380  0.00  0.00    +0.000 A 
ATOM     27  C   UNL     1      15.201   0.233   2.399  0.00  0.00    +0.000 A 
BRANCH  26  28
ATOM     28  C   UNL     1      17.399   1.416   2.596  0.00  0.00    +0.000 C 
ATOM     29  N   UNL     1      18.081   2.595   2.561  0.00  0.00    +0.000 N 
ATOM     30  O   UNL     1      17.978   0.357   2.796  0.00  0.00    +0.000 OA
ATOM     31  H   UNL     1      17.572   3.468   2.389  0.00  0.00    +0.000 HD
ATOM     32  H   UNL     1      19.080   2.617   2.703  0.00  0.00    +0.000 HD
ENDBRANCH  26  28
ENDBRANCH  18  21
ENDBRANCH  17  18
ENDBRANCH   1  17
TORSDOF 8
