REMARK  Name = 
REMARK  8 active torsions:
REMARK  status: ('A' for Active; 'I' for Inactive)
REMARK    1  A    between atoms: C_1  and  O_2
REMARK    2  A    between atoms: O_2  and  C_3
REMARK    3  A    between atoms: C_5  and  C_6
REMARK    4  A    between atoms: C_6  and  N_7
REMARK    5  A    between atoms: C_8  and  C_10
REMARK    6  A    between atoms: C_22  and  C_23
REMARK    7  A    between atoms: C_23  and  N_24
REMARK    8  A    between atoms: C_25  and  C_27
REMARK                            x       y       z     vdW  Elec       q    Type
REMARK                         _______ _______ _______ _____ _____    ______ ____
ROOT
ATOM      1  C   UNL     1       3.070  -1.072   0.532  0.00  0.00    +0.000 A 
ATOM      2  C   UNL     1       2.756  -2.344   0.036  0.00  0.00    +0.000 A 
ATOM      3  C   UNL     1       3.566  -3.454   0.319  0.00  0.00    +0.000 A 
ATOM      4  C   UNL     1       4.694  -3.282   1.128  0.00  0.00    +0.000 A 
ATOM      5  C   UNL     1       5.010  -2.020   1.632  0.00  0.00    +0.000 A 
ATOM      6  C   UNL     1       4.211  -0.901   1.336  0.00  0.00    +0.000 A 
ENDROOT
BRANCH   1   8
ATOM      7  C   UNL     1       1.022  -0.136  -0.240  0.00  0.00    +0.000 C 
ATOM      8  O   UNL     1       2.342   0.057   0.259  0.00  0.00    +0.000 OA
ENDBRANCH   1   8
BRANCH   3   9
ATOM      9  C   UNL     1       3.194  -4.811  -0.216  0.00  0.00    +0.000 C 
BRANCH   9  10
ATOM     10  N   UNL     1       2.368  -5.535   0.717  0.00  0.00    +0.000 N 
ATOM     11  C   UNL     1       1.005  -5.616   0.601  0.00  0.00    +0.000 C 
ATOM     12  O   UNL     1       0.389  -5.065  -0.309  0.00  0.00    +0.000 OA
ATOM     13  H   UNL     1       2.812  -5.823   1.582  0.00  0.00    +0.000 HD
BRANCH  11  14
ATOM     14  C   UNL     1       0.316  -6.463   1.585  0.00  0.00    +0.000 A 
ATOM     15  C   UNL     1      -0.940  -6.978   1.287  0.00  0.00    +0.000 A 
ATOM     16  S   UNL     1      -1.580  -7.978   2.510  0.00  0.00    +0.000 S 
ATOM     17  C   UNL     1      -0.223  -7.723   3.505  0.00  0.00    +0.000 A 
ATOM     18  N   UNL     1      -0.147  -8.290   4.739  0.00  0.00    +0.000 NA
ATOM     19  C   UNL     1       0.918  -7.984   5.401  0.00  0.00    +0.000 A 
ATOM     20  N   UNL     1       1.920  -7.172   4.937  0.00  0.00    +0.000 N 
ATOM     21  C   UNL     1       1.914  -6.629   3.674  0.00  0.00    +0.000 A 
ATOM     22  O   UNL     1       2.877  -5.995   3.251  0.00  0.00    +0.000 OA
ATOM     23  C   UNL     1       0.718  -6.907   2.901  0.00  0.00    +0.000 A 
ATOM     24  H   UNL     1       2.740  -6.992   5.496  0.00  0.00    +0.000 HD
ENDBRANCH  11  14
ENDBRANCH   9  10
ENDBRANCH   3   9
BRANCH   6  25
ATOM     25  C   UNL     1       4.573   0.432   1.943  0.00  0.00    +0.000 C 
BRANCH  25  26
ATOM     26  N   UNL     1       3.942   0.601   3.234  0.00  0.00    +0.000 N 
ATOM     27  C   UNL     1       4.511   1.330   4.258  0.00  0.00    +0.000 C 
ATOM     28  O   UNL     1       5.620   1.849   4.162  0.00  0.00    +0.000 OA
ATOM     29  H   UNL     1       2.973   0.324   3.341  0.00  0.00    +0.000 HD
BRANCH  27  30
ATOM     30  C   UNL     1       3.687   1.418   5.454  0.00  0.00    +0.000 A 
ATOM     31  C   UNL     1       3.896   2.063   6.658  0.00  0.00    +0.000 A 
ATOM     32  C   UNL     1       2.773   1.781   7.473  0.00  0.00    +0.000 A 
ATOM     33  C   UNL     1       1.944   0.988   6.716  0.00  0.00    +0.000 A 
ATOM     34  O   UNL     1       2.480   0.767   5.490  0.00  0.00    +0.000 OA
ENDBRANCH  27  30
ENDBRANCH  25  26
ENDBRANCH   6  25
TORSDOF 7
