REMARK  Name = 
REMARK  6 active torsions:
REMARK  status: ('A' for Active; 'I' for Inactive)
REMARK    1  A    between atoms: C_1  and  C_2
REMARK    2  A    between atoms: C_2  and  N_3
REMARK    3  A    between atoms: C_2  and  C_16
REMARK    4  A    between atoms: C_4  and  C_6
REMARK    5  A    between atoms: C_19  and  O_20
REMARK    6  A    between atoms: O_20  and  C_21
REMARK                            x       y       z     vdW  Elec       q    Type
REMARK                         _______ _______ _______ _____ _____    ______ ____
ROOT
ATOM      1  C   UNL     1       3.014   0.535   1.365  0.00  0.00    +0.000 C 
ATOM      2  C   UNL     1       2.565  -0.080   0.035  0.00  0.00    +0.000 C 
ENDROOT
BRANCH   2   3
ATOM      3  C   UNL     1       3.294  -1.367  -0.272  0.00  0.00    +0.000 A 
ATOM      4  C   UNL     1       3.676  -2.299   0.701  0.00  0.00    +0.000 A 
ATOM      5  C   UNL     1       4.492  -3.372   0.352  0.00  0.00    +0.000 A 
ATOM      6  C   UNL     1       4.856  -3.511  -0.975  0.00  0.00    +0.000 A 
ATOM      7  N   UNL     1       4.447  -2.672  -1.953  0.00  0.00    +0.000 NA
ATOM      8  C   UNL     1       3.670  -1.633  -1.585  0.00  0.00    +0.000 A 
BRANCH   6   9
ATOM      9  O   UNL     1       5.705  -4.563  -1.283  0.00  0.00    +0.000 OA
BRANCH   9  10
ATOM     10  C   UNL     1       5.617  -5.076  -2.559  0.00  0.00    +0.000 A 
ATOM     11  C   UNL     1       4.388  -5.330  -3.162  0.00  0.00    +0.000 A 
ATOM     12  C   UNL     1       4.368  -5.885  -4.434  0.00  0.00    +0.000 A 
ATOM     13  C   UNL     1       5.571  -6.200  -5.051  0.00  0.00    +0.000 A 
ATOM     14  C   UNL     1       6.748  -5.953  -4.361  0.00  0.00    +0.000 A 
ATOM     15  N   UNL     1       6.799  -5.415  -3.123  0.00  0.00    +0.000 NA
ENDBRANCH   9  10
ENDBRANCH   6   9
ENDBRANCH   2   3
BRANCH   2  16
ATOM     16  N   UNL     1       1.133  -0.284   0.023  0.00  0.00    +0.000 N 
ATOM     17  C   UNL     1       0.259   0.721  -0.317  0.00  0.00    +0.000 C 
ATOM     18  O   UNL     1       0.630   1.765  -0.846  0.00  0.00    +0.000 OA
ATOM     19  H   UNL     1       0.792  -1.050   0.595  0.00  0.00    +0.000 HD
BRANCH  17  20
ATOM     20  C   UNL     1      -1.154   0.472  -0.026  0.00  0.00    +0.000 A 
ATOM     21  C   UNL     1      -2.146   1.074  -0.788  0.00  0.00    +0.000 A 
ATOM     22  S   UNL     1      -3.726   0.716  -0.252  0.00  0.00    +0.000 S 
ATOM     23  C   UNL     1      -3.134  -0.204   1.051  0.00  0.00    +0.000 A 
ATOM     24  N   UNL     1      -3.977  -0.738   1.973  0.00  0.00    +0.000 NA
ATOM     25  C   UNL     1      -3.386  -1.361   2.938  0.00  0.00    +0.000 A 
ATOM     26  N   UNL     1      -2.029  -1.534   3.044  0.00  0.00    +0.000 N 
ATOM     27  C   UNL     1      -1.147  -1.088   2.090  0.00  0.00    +0.000 A 
ATOM     28  O   UNL     1       0.043  -1.383   2.134  0.00  0.00    +0.000 OA
ATOM     29  C   UNL     1      -1.754  -0.300   1.034  0.00  0.00    +0.000 A 
ATOM     30  H   UNL     1      -1.633  -2.077   3.798  0.00  0.00    +0.000 HD
ENDBRANCH  17  20
ENDBRANCH   2  16
TORSDOF 5
