REMARK  Name = 
REMARK  6 active torsions:
REMARK  status: ('A' for Active; 'I' for Inactive)
REMARK    1  A    between atoms: C_1  and  O_2
REMARK    2  A    between atoms: O_2  and  C_3
REMARK    3  A    between atoms: C_3  and  C_5
REMARK    4  A    between atoms: C_9  and  O_10
REMARK    5  A    between atoms: O_10  and  C_11
REMARK    6  A    between atoms: C_11  and  C_12
REMARK                            x       y       z     vdW  Elec       q    Type
REMARK                         _______ _______ _______ _____ _____    ______ ____
ROOT
ATOM      1  C   UNL     1       4.647   1.191  -0.516  0.00  0.00    +0.000 A 
ATOM      2  C   UNL     1       5.341   0.071  -0.977  0.00  0.00    +0.000 A 
ATOM      3  C   UNL     1       6.720   0.117  -0.970  0.00  0.00    +0.000 A 
ATOM      4  N   UNL     1       7.430   1.186  -0.557  0.00  0.00    +0.000 NA
ATOM      5  C   UNL     1       6.739   2.260  -0.120  0.00  0.00    +0.000 A 
ATOM      6  C   UNL     1       5.359   2.307  -0.063  0.00  0.00    +0.000 A 
ENDROOT
BRANCH   1   7
ATOM      7  C   UNL     1       3.160   1.242  -0.498  0.00  0.00    +0.000 C 
ATOM      8  O   UNL     1       2.528   2.219  -0.137  0.00  0.00    +0.000 OA
BRANCH   7  10
ATOM      9  C   UNL     1       1.205   0.038  -0.937  0.00  0.00    +0.000 C 
ATOM     10  O   UNL     1       2.634   0.071  -0.935  0.00  0.00    +0.000 OA
ENDBRANCH   7  10
ENDBRANCH   1   7
BRANCH   5  11
ATOM     11  O   UNL     1       7.436   3.366   0.328  0.00  0.00    +0.000 OA
BRANCH  11  12
ATOM     12  C   UNL     1       8.747   3.428  -0.244  0.00  0.00    +0.000 C 
BRANCH  12  13
ATOM     13  C   UNL     1       9.493   4.611   0.324  0.00  0.00    +0.000 A 
ATOM     14  C   UNL     1      10.370   4.453   1.403  0.00  0.00    +0.000 A 
ATOM     15  C   UNL     1      11.042   5.567   1.883  0.00  0.00    +0.000 A 
ATOM     16  N   UNL     1      10.902   6.808   1.371  0.00  0.00    +0.000 NA
ATOM     17  C   UNL     1      10.045   6.941   0.336  0.00  0.00    +0.000 A 
ATOM     18  C   UNL     1       9.328   5.889  -0.214  0.00  0.00    +0.000 A 
ENDBRANCH  12  13
ENDBRANCH  11  12
ENDBRANCH   5  11
TORSDOF 5
