REMARK  Name = 
REMARK  8 active torsions:
REMARK  status: ('A' for Active; 'I' for Inactive)
REMARK    1  A    between atoms: C_1  and  C_2
REMARK    2  A    between atoms: C_5  and  N_6
REMARK    3  A    between atoms: N_6  and  C_7
REMARK    4  A    between atoms: C_7  and  C_8
REMARK    5  A    between atoms: C_8  and  C_11
REMARK    6  A    between atoms: C_15  and  O_16
REMARK    7  A    between atoms: O_16  and  C_17
REMARK    8  A    between atoms: C_23  and  C_24
REMARK                            x       y       z     vdW  Elec       q    Type
REMARK                         _______ _______ _______ _____ _____    ______ ____
ROOT
ATOM      1  C   UNL     1      -3.834   1.318  -0.031  0.00  0.00    +0.000 C 
ENDROOT
BRANCH   1   2
ATOM      2  C   UNL     1      -5.375   1.143  -0.116  0.00  0.00    +0.000 C 
ATOM      3  F   UNL     1      -5.655   0.463  -1.272  0.00  0.00    +0.000 F 
ATOM      4  F   UNL     1      -5.781   0.305   0.887  0.00  0.00    +0.000 F 
BRANCH   2   5
ATOM      5  C   UNL     1      -6.094   2.481  -0.047  0.00  0.00    +0.000 A 
ATOM      6  C   UNL     1      -6.470   3.012   1.192  0.00  0.00    +0.000 A 
ATOM      7  C   UNL     1      -7.094   4.261   1.268  0.00  0.00    +0.000 A 
ATOM      8  C   UNL     1      -7.358   4.992   0.107  0.00  0.00    +0.000 A 
ATOM      9  C   UNL     1      -7.008   4.465  -1.134  0.00  0.00    +0.000 A 
ATOM     10  C   UNL     1      -6.375   3.217  -1.207  0.00  0.00    +0.000 A 
BRANCH   9  11
ATOM     11  O   UNL     1      -7.191   5.090  -2.342  0.00  0.00    +0.000 OA
BRANCH  11  12
ATOM     12  C   UNL     1      -8.152   6.164  -2.456  0.00  0.00    +0.000 C 
ATOM     13  C   UNL     1      -9.647   5.812  -2.414  0.00  0.00    +0.000 C 
ATOM     14  O   UNL     1      -9.891   6.489  -3.671  0.00  0.00    +0.000 OA
ATOM     15  C   UNL     1      -8.465   6.596  -3.899  0.00  0.00    +0.000 C 
ENDBRANCH  11  12
ENDBRANCH   9  11
ENDBRANCH   2   5
ENDBRANCH   1   2
BRANCH   1  16
ATOM     16  N   UNL     1      -3.117   0.028   0.123  0.00  0.00    +0.000 N 
ATOM     17  H   UNL     1      -3.479  -0.685  -0.506  0.00  0.00    +0.000 HD
BRANCH  16  22
ATOM     18  C   UNL     1       2.545   0.466   0.089  0.00  0.00    +0.000 C 
ATOM     19  C   UNL     1       1.059   0.268   0.065  0.00  0.00    +0.000 A 
ATOM     20  C   UNL     1       0.223   1.376   0.039  0.00  0.00    +0.000 A 
ATOM     21  N   UNL     1      -1.128   1.325   0.040  0.00  0.00    +0.000 NA
ATOM     22  C   UNL     1      -1.721   0.119   0.048  0.00  0.00    +0.000 A 
ATOM     23  C   UNL     1      -0.970  -1.052   0.077  0.00  0.00    +0.000 A 
ATOM     24  C   UNL     1       0.433  -0.986   0.088  0.00  0.00    +0.000 A 
BRANCH  24  25
ATOM     25  C   UNL     1       1.236  -2.245   0.097  0.00  0.00    +0.000 C 
ATOM     26  N   UNL     1       0.666  -3.355   0.662  0.00  0.00    +0.000 N 
ATOM     27  O   UNL     1       2.369  -2.312  -0.360  0.00  0.00    +0.000 OA
ATOM     28  H   UNL     1      -0.177  -3.336   1.215  0.00  0.00    +0.000 HD
ATOM     29  H   UNL     1       1.258  -4.175   0.735  0.00  0.00    +0.000 HD
ENDBRANCH  24  25
ENDBRANCH  16  22
ENDBRANCH   1  16
TORSDOF 7
