REMARK  Name = 
REMARK  5 active torsions:
REMARK  status: ('A' for Active; 'I' for Inactive)
REMARK    1  A    between atoms: N_1  and  C_2
REMARK    2  A    between atoms: C_2  and  C_3
REMARK    3  A    between atoms: C_3  and  C_4
REMARK    4  A    between atoms: C_9  and  C_10
REMARK    5  A    between atoms: C_10  and  N_11
REMARK                            x       y       z     vdW  Elec       q    Type
REMARK                         _______ _______ _______ _____ _____    ______ ____
ROOT
ATOM      1  C   UNL     1       4.274  -0.824  -1.027  0.00  0.00    +0.000 A 
ATOM      2  C   UNL     1       5.064   0.334  -1.060  0.00  0.00    +0.000 A 
ATOM      3  C   UNL     1       6.445   0.248  -0.968  0.00  0.00    +0.000 A 
ATOM      4  C   UNL     1       7.011  -0.999  -0.798  0.00  0.00    +0.000 A 
ATOM      5  N   UNL     1       6.292  -2.143  -0.758  0.00  0.00    +0.000 NA
ATOM      6  C   UNL     1       4.943  -2.055  -0.897  0.00  0.00    +0.000 A 
ENDROOT
BRANCH   1   7
ATOM      7  C   UNL     1       2.773  -0.674  -1.180  0.00  0.00    +0.000 C 
BRANCH   7   8
ATOM      8  C   UNL     1       2.359  -0.126  -2.557  0.00  0.00    +0.000 C 
BRANCH   8   9
ATOM      9  N   UNL     1       0.909   0.030  -2.650  0.00  0.00    +0.000 NA
ATOM     10  H   UNL     1       0.671   0.471  -3.538  0.00  0.00    +0.000 HD
ATOM     11  H   UNL     1       0.582   0.662  -1.920  0.00  0.00    +0.000 HD
ENDBRANCH   8   9
ENDBRANCH   7   8
ENDBRANCH   1   7
BRANCH   6  12
ATOM     12  C   UNL     1       4.237  -3.367  -1.141  0.00  0.00    +0.000 C 
BRANCH  12  13
ATOM     13  N   UNL     1       3.907  -4.203   0.026  0.00  0.00    +0.000 N 
ATOM     14  C   UNL     1       4.614  -5.385   0.228  0.00  0.00    +0.000 A 
ATOM     15  C   UNL     1       3.695  -6.407   0.111  0.00  0.00    +0.000 A 
ATOM     16  C   UNL     1       2.417  -5.834   0.328  0.00  0.00    +0.000 A 
ATOM     17  C   UNL     1       1.114  -6.332   0.469  0.00  0.00    +0.000 A 
ATOM     18  C   UNL     1       0.117  -5.428   0.831  0.00  0.00    +0.000 A 
ATOM     19  C   UNL     1       0.442  -4.082   0.957  0.00  0.00    +0.000 A 
ATOM     20  N   UNL     1       1.653  -3.530   0.694  0.00  0.00    +0.000 NA
ATOM     21  C   UNL     1       2.598  -4.450   0.412  0.00  0.00    +0.000 A 
ENDBRANCH  12  13
ENDBRANCH   6  12
TORSDOF 5
