REMARK  Name = 
REMARK  8 active torsions:
REMARK  status: ('A' for Active; 'I' for Inactive)
REMARK    1  A    between atoms: C_1  and  C_2
REMARK    2  A    between atoms: C_2  and  N_3
REMARK    3  A    between atoms: C_2  and  C_25
REMARK    4  A    between atoms: N_3  and  C_4
REMARK    5  A    between atoms: C_4  and  C_5
REMARK    6  A    between atoms: C_8  and  C_9
REMARK    7  A    between atoms: C_9  and  N_10
REMARK    8  A    between atoms: C_11  and  C_13
REMARK                            x       y       z     vdW  Elec       q    Type
REMARK                         _______ _______ _______ _____ _____    ______ ____
ROOT
ATOM      1  C   UNL     1       2.941   1.886   3.187  0.00  0.00    +0.000 A 
ATOM      2  C   UNL     1       2.968   3.210   3.634  0.00  0.00    +0.000 A 
ATOM      3  C   UNL     1       3.367   3.495   4.938  0.00  0.00    +0.000 A 
ATOM      4  C   UNL     1       3.705   2.443   5.784  0.00  0.00    +0.000 A 
ATOM      5  N   UNL     1       3.705   1.150   5.371  0.00  0.00    +0.000 NA
ATOM      6  C   UNL     1       3.334   0.906   4.093  0.00  0.00    +0.000 A 
ENDROOT
BRANCH   1   7
ATOM      7  C   UNL     1       2.451   1.512   1.813  0.00  0.00    +0.000 C 
BRANCH   7   8
ATOM      8  N   UNL     1       3.254   2.120   0.754  0.00  0.00    +0.000 NA
ATOM      9  H   UNL     1       3.281   3.129   0.899  0.00  0.00    +0.000 HD
BRANCH   8  11
ATOM     10  C   UNL     1       2.755   0.382  -0.971  0.00  0.00    +0.000 C 
ATOM     11  C   UNL     1       2.723   1.869  -0.595  0.00  0.00    +0.000 C 
BRANCH  11  12
ATOM     12  C   UNL     1       3.512   2.679  -1.607  0.00  0.00    +0.000 A 
ATOM     13  C   UNL     1       4.887   2.497  -1.794  0.00  0.00    +0.000 A 
ATOM     14  C   UNL     1       5.572   3.269  -2.727  0.00  0.00    +0.000 A 
ATOM     15  C   UNL     1       4.856   4.207  -3.451  0.00  0.00    +0.000 A 
ATOM     16  N   UNL     1       3.531   4.417  -3.303  0.00  0.00    +0.000 NA
ATOM     17  C   UNL     1       2.892   3.650  -2.388  0.00  0.00    +0.000 A 
ENDBRANCH  11  12
ENDBRANCH   8  11
ENDBRANCH   7   8
ENDBRANCH   1   7
BRANCH   4  18
ATOM     18  C   UNL     1       4.094   2.711   7.217  0.00  0.00    +0.000 C 
BRANCH  18  19
ATOM     19  N   UNL     1       5.516   2.907   7.372  0.00  0.00    +0.000 N 
ATOM     20  C   UNL     1       6.082   4.150   7.448  0.00  0.00    +0.000 C 
ATOM     21  O   UNL     1       5.408   5.176   7.389  0.00  0.00    +0.000 OA
ATOM     22  H   UNL     1       6.096   2.092   7.195  0.00  0.00    +0.000 HD
BRANCH  20  23
ATOM     23  C   UNL     1       7.532   4.201   7.677  0.00  0.00    +0.000 A 
ATOM     24  C   UNL     1       8.097   5.347   8.221  0.00  0.00    +0.000 A 
ATOM     25  S   UNL     1       9.782   5.238   8.454  0.00  0.00    +0.000 S 
ATOM     26  C   UNL     1       9.826   3.669   7.795  0.00  0.00    +0.000 A 
ATOM     27  N   UNL     1      11.002   2.998   7.671  0.00  0.00    +0.000 NA
ATOM     28  C   UNL     1      10.896   1.831   7.127  0.00  0.00    +0.000 A 
ATOM     29  N   UNL     1       9.717   1.272   6.708  0.00  0.00    +0.000 N 
ATOM     30  C   UNL     1       8.499   1.889   6.866  0.00  0.00    +0.000 A 
ATOM     31  O   UNL     1       7.455   1.319   6.569  0.00  0.00    +0.000 OA
ATOM     32  C   UNL     1       8.567   3.223   7.433  0.00  0.00    +0.000 A 
ATOM     33  H   UNL     1       9.696   0.343   6.313  0.00  0.00    +0.000 HD
ENDBRANCH  20  23
ENDBRANCH  18  19
ENDBRANCH   4  18
TORSDOF 7
