REMARK  Name = 
REMARK  5 active torsions:
REMARK  status: ('A' for Active; 'I' for Inactive)
REMARK    1  A    between atoms: C_2  and  C_4
REMARK    2  A    between atoms: N_8  and  C_9
REMARK    3  A    between atoms: C_9  and  C_10
REMARK    4  A    between atoms: C_10  and  C_11
REMARK    5  A    between atoms: N_16  and  C_17
REMARK                            x       y       z     vdW  Elec       q    Type
REMARK                         _______ _______ _______ _____ _____    ______ ____
ROOT
ATOM      1  C   UNL     1       5.387  -5.556   1.897  0.00  0.00    +0.000 C 
ENDROOT
BRANCH   1   6
ATOM      2  C   UNL     1       3.188  -1.133   0.744  0.00  0.00    +0.000 A 
ATOM      3  C   UNL     1       2.605  -2.363   1.028  0.00  0.00    +0.000 A 
ATOM      4  C   UNL     1       3.402  -3.396   1.521  0.00  0.00    +0.000 A 
ATOM      5  C   UNL     1       4.769  -3.196   1.695  0.00  0.00    +0.000 A 
ATOM      6  N   UNL     1       5.611  -4.155   2.239  0.00  0.00    +0.000 N 
ATOM      7  N   UNL     1       5.350  -2.017   1.399  0.00  0.00    +0.000 NA
ATOM      8  C   UNL     1       4.557  -1.016   0.928  0.00  0.00    +0.000 A 
ATOM      9  H   UNL     1       6.560  -3.811   2.117  0.00  0.00    +0.000 HD
BRANCH   2  11
ATOM     10  N   UNL     1       1.083   0.067   0.572  0.00  0.00    +0.000 N 
ATOM     11  C   UNL     1       2.415   0.028   0.258  0.00  0.00    +0.000 C 
ATOM     12  O   UNL     1       2.947   0.935  -0.367  0.00  0.00    +0.000 OA
ATOM     13  H   UNL     1       0.588   0.915   0.323  0.00  0.00    +0.000 HD
ATOM     14  H   UNL     1       0.671  -0.518   1.284  0.00  0.00    +0.000 HD
ENDBRANCH   2  11
ENDBRANCH   1   6
BRANCH   1  15
ATOM     15  C   UNL     1       6.472  -6.444   2.520  0.00  0.00    +0.000 C 
BRANCH  15  16
ATOM     16  C   UNL     1       6.142  -7.911   2.381  0.00  0.00    +0.000 A 
ATOM     17  C   UNL     1       6.533  -8.653   1.270  0.00  0.00    +0.000 A 
ATOM     18  C   UNL     1       6.135  -9.982   1.196  0.00  0.00    +0.000 A 
ATOM     19  N   UNL     1       5.378 -10.608   2.130  0.00  0.00    +0.000 NA
ATOM     20  C   UNL     1       5.018  -9.893   3.214  0.00  0.00    +0.000 A 
ATOM     21  N   UNL     1       4.231 -10.468   4.233  0.00  0.00    +0.000 N 
ATOM     22  C   UNL     1       5.380  -8.554   3.363  0.00  0.00    +0.000 A 
ATOM     23  H   UNL     1       4.729 -10.371   5.114  0.00  0.00    +0.000 HD
BRANCH  21  24
ATOM     24  C   UNL     1       3.528 -11.717   4.107  0.00  0.00    +0.000 C 
ATOM     25  C   UNL     1       3.002 -12.216   5.462  0.00  0.00    +0.000 C 
ATOM     26  O   UNL     1       3.693 -13.479   5.317  0.00  0.00    +0.000 OA
ATOM     27  C   UNL     1       4.368 -12.997   4.125  0.00  0.00    +0.000 C 
ENDBRANCH  21  24
ENDBRANCH  15  16
ENDBRANCH   1  15
TORSDOF 5
