REMARK  Name = 
REMARK  3 active torsions:
REMARK  status: ('A' for Active; 'I' for Inactive)
REMARK    1  A    between atoms: C_2  and  C_4
REMARK    2  A    between atoms: N_8  and  C_9
REMARK    3  A    between atoms: C_9  and  C_10
REMARK                            x       y       z     vdW  Elec       q    Type
REMARK                         _______ _______ _______ _____ _____    ______ ____
ROOT
ATOM      1  C   UNL     1       3.151   1.258  -0.102  0.00  0.00    +0.000 A 
ATOM      2  C   UNL     1       3.246   2.173   0.919  0.00  0.00    +0.000 A 
ATOM      3  N   UNL     1       3.894   3.355   0.809  0.00  0.00    +0.000 NA
ATOM      4  C   UNL     1       4.490   3.618  -0.366  0.00  0.00    +0.000 A 
ATOM      5  N   UNL     1       5.060   4.861  -0.489  0.00  0.00    +0.000 N 
ATOM      6  N   UNL     1       4.496   2.764  -1.401  0.00  0.00    +0.000 NA
ATOM      7  C   UNL     1       3.824   1.601  -1.251  0.00  0.00    +0.000 A 
ATOM      8  H   UNL     1       5.076   5.330   0.405  0.00  0.00    +0.000 HD
ENDROOT
BRANCH   1  10
ATOM      9  N   UNL     1       1.368  -0.080   0.858  0.00  0.00    +0.000 N 
ATOM     10  C   UNL     1       2.411  -0.006  -0.022  0.00  0.00    +0.000 C 
ATOM     11  O   UNL     1       2.691  -0.949  -0.750  0.00  0.00    +0.000 OA
ATOM     12  H   UNL     1       0.801  -0.918   0.802  0.00  0.00    +0.000 HD
ATOM     13  H   UNL     1       0.934   0.734   1.273  0.00  0.00    +0.000 HD
ENDBRANCH   1  10
BRANCH   5  14
ATOM     14  C   UNL     1       6.249   4.977  -1.300  0.00  0.00    +0.000 C 
BRANCH  14  15
ATOM     15  C   UNL     1       6.032   6.059  -2.328  0.00  0.00    +0.000 A 
ATOM     16  C   UNL     1       6.350   7.394  -2.048  0.00  0.00    +0.000 A 
ATOM     17  C   UNL     1       6.120   8.387  -3.004  0.00  0.00    +0.000 A 
ATOM     18  C   UNL     1       5.568   8.054  -4.240  0.00  0.00    +0.000 A 
ATOM     19  C   UNL     1       5.233   6.733  -4.522  0.00  0.00    +0.000 A 
ATOM     20  C   UNL     1       5.459   5.740  -3.569  0.00  0.00    +0.000 A 
ENDBRANCH  14  15
ENDBRANCH   5  14
TORSDOF 3
