REMARK  Name = 
REMARK  7 active torsions:
REMARK  status: ('A' for Active; 'I' for Inactive)
REMARK    1  A    between atoms: C_1  and  C_2
REMARK    2  A    between atoms: C_7  and  C_8
REMARK    3  A    between atoms: N_10  and  C_11
REMARK    4  A    between atoms: C_11  and  C_12
REMARK    5  A    between atoms: C_15  and  C_16
REMARK    6  A    between atoms: C_16  and  N_17
REMARK    7  A    between atoms: N_17  and  C_18
REMARK                            x       y       z     vdW  Elec       q    Type
REMARK                         _______ _______ _______ _____ _____    ______ ____
ROOT
ATOM      1  C   UNL     1       9.918   2.660   1.924  0.00  0.00    +0.000 C 
ATOM      2  O   UNL     1      10.901   3.231   1.456  0.00  0.00    +0.000 OA
ATOM      3  N   UNL     1       8.732   2.601   1.241  0.00  0.00    +0.000 N 
ATOM      4  H   UNL     1       7.929   2.136   1.651  0.00  0.00    +0.000 HD
ENDROOT
BRANCH   1  11
ATOM      5  C   UNL     1       6.674  -0.979   6.754  0.00  0.00    +0.000 C 
ATOM      6  C   UNL     1       7.557  -0.198   5.827  0.00  0.00    +0.000 A 
ATOM      7  N   UNL     1       8.779   0.089   6.145  0.00  0.00    +0.000 NA
ATOM      8  C   UNL     1       9.458   0.809   5.212  0.00  0.00    +0.000 A 
ATOM      9  S   UNL     1      11.073   1.268   5.480  0.00  0.00    +0.000 S 
ATOM     10  C   UNL     1      11.153   2.064   3.977  0.00  0.00    +0.000 A 
ATOM     11  C   UNL     1       9.973   2.005   3.243  0.00  0.00    +0.000 A 
ATOM     12  C   UNL     1       8.986   1.250   3.987  0.00  0.00    +0.000 A 
ATOM     13  C   UNL     1       7.618   0.889   3.667  0.00  0.00    +0.000 A 
ATOM     14  O   UNL     1       7.054   1.177   2.615  0.00  0.00    +0.000 OA
ATOM     15  N   UNL     1       6.966   0.175   4.644  0.00  0.00    +0.000 N 
ATOM     16  H   UNL     1       6.012  -0.080   4.439  0.00  0.00    +0.000 HD
ENDBRANCH   1  11
BRANCH   3  17
ATOM     17  C   UNL     1       8.556   3.169  -0.072  0.00  0.00    +0.000 C 
BRANCH  17  18
ATOM     18  C   UNL     1       8.056   4.582  -0.022  0.00  0.00    +0.000 A 
ATOM     19  C   UNL     1       8.934   5.668   0.010  0.00  0.00    +0.000 A 
ATOM     20  C   UNL     1       8.434   6.969   0.026  0.00  0.00    +0.000 A 
ATOM     21  C   UNL     1       7.054   7.161   0.006  0.00  0.00    +0.000 A 
ATOM     22  N   UNL     1       6.183   6.118  -0.000  0.00  0.00    +0.000 NA
ATOM     23  C   UNL     1       6.697   4.868  -0.006  0.00  0.00    +0.000 A 
BRANCH  21  24
ATOM     24  C   UNL     1       6.469   8.561  -0.030  0.00  0.00    +0.000 C 
BRANCH  24  25
ATOM     25  N   UNL     1       6.286   9.106   1.316  0.00  0.00    +0.000 N 
ATOM     26  H   UNL     1       7.091   8.961   1.917  0.00  0.00    +0.000 HD
BRANCH  25  27
ATOM     27  C   UNL     1       5.690  10.361   1.471  0.00  0.00    +0.000 A 
ATOM     28  C   UNL     1       4.777  10.904   0.563  0.00  0.00    +0.000 A 
ATOM     29  C   UNL     1       4.152  12.126   0.822  0.00  0.00    +0.000 A 
ATOM     30  C   UNL     1       4.438  12.775   2.007  0.00  0.00    +0.000 A 
ATOM     31  N   UNL     1       5.285  12.287   2.934  0.00  0.00    +0.000 NA
ATOM     32  C   UNL     1       5.866  11.092   2.651  0.00  0.00    +0.000 A 
ENDBRANCH  25  27
ENDBRANCH  24  25
ENDBRANCH  21  24
ENDBRANCH  17  18
ENDBRANCH   3  17
TORSDOF 6
