REMARK  Name = 
REMARK  6 active torsions:
REMARK  status: ('A' for Active; 'I' for Inactive)
REMARK    1  A    between atoms: C_1  and  C_2
REMARK    2  A    between atoms: C_2  and  C_3
REMARK    3  A    between atoms: C_3  and  N_4
REMARK    4  A    between atoms: C_3  and  C_15
REMARK    5  A    between atoms: N_4  and  C_5
REMARK    6  A    between atoms: C_8  and  C_9
REMARK                            x       y       z     vdW  Elec       q    Type
REMARK                         _______ _______ _______ _____ _____    ______ ____
ROOT
ATOM      1  C   UNL     1       1.707  -0.959  -3.259  0.00  0.00    +0.000 A 
ATOM      2  N   UNL     1       0.842  -1.889  -2.778  0.00  0.00    +0.000 NA
ATOM      3  C   UNL     1       0.013  -2.500  -3.665  0.00  0.00    +0.000 A 
ATOM      4  C   UNL     1      -0.055  -2.187  -5.013  0.00  0.00    +0.000 A 
ATOM      5  C   UNL     1       0.852  -1.260  -5.521  0.00  0.00    +0.000 A 
ATOM      6  C   UNL     1       1.750  -0.661  -4.634  0.00  0.00    +0.000 A 
ATOM      7 CL   UNL     1       2.978   0.354  -5.310  0.00  0.00    +0.000 Cl
ENDROOT
BRANCH   4   8
ATOM      8  C   UNL     1      -1.050  -2.843  -5.883  0.00  0.00    +0.000 C 
ATOM      9  N   UNL     1      -1.496  -2.128  -6.962  0.00  0.00    +0.000 N 
ATOM     10  O   UNL     1      -1.475  -3.963  -5.633  0.00  0.00    +0.000 OA
ATOM     11  H   UNL     1      -1.336  -1.138  -7.080  0.00  0.00    +0.000 HD
ATOM     12  H   UNL     1      -2.234  -2.549  -7.513  0.00  0.00    +0.000 HD
ENDBRANCH   4   8
BRANCH   1  13
ATOM     13  N   UNL     1       2.484  -0.215  -2.347  0.00  0.00    +0.000 N 
ATOM     14  H   UNL     1       3.309   0.088  -2.874  0.00  0.00    +0.000 HD
BRANCH  13  15
ATOM     15  C   UNL     1       2.862  -0.876  -1.082  0.00  0.00    +0.000 C 
BRANCH  15  16
ATOM     16  C   UNL     1       4.434  -0.909  -1.019  0.00  0.00    +0.000 C 
ATOM     17  C   UNL     1       4.933  -1.737   0.180  0.00  0.00    +0.000 C 
ATOM     18  C   UNL     1       6.453  -1.758   0.282  0.00  0.00    +0.000 C 
ATOM     19  C   UNL     1       7.028  -0.348   0.326  0.00  0.00    +0.000 C 
ATOM     20  C   UNL     1       6.601   0.451  -0.897  0.00  0.00    +0.000 C 
ATOM     21  C   UNL     1       5.082   0.499  -1.020  0.00  0.00    +0.000 C 
ENDBRANCH  15  16
BRANCH  15  23
ATOM     22  C   UNL     1       0.766  -0.089   0.305  0.00  0.00    +0.000 C 
ATOM     23  C   UNL     1       2.276  -0.183   0.175  0.00  0.00    +0.000 C 
ENDBRANCH  15  23
ENDBRANCH  13  15
ENDBRANCH   1  13
TORSDOF 5
