REMARK  Name = 
REMARK  6 active torsions:
REMARK  status: ('A' for Active; 'I' for Inactive)
REMARK    1  A    between atoms: C_1  and  C_2
REMARK    2  A    between atoms: C_4  and  C_5
REMARK    3  A    between atoms: C_9  and  C_10
REMARK    4  A    between atoms: C_10  and  N_11
REMARK    5  A    between atoms: C_15  and  C_16
REMARK    6  A    between atoms: C_19  and  C_20
REMARK                            x       y       z     vdW  Elec       q    Type
REMARK                         _______ _______ _______ _____ _____    ______ ____
ROOT
ATOM      1  C   UNL     1      -5.069  -3.934  -1.786  0.00  0.00    +0.000 C 
ENDROOT
BRANCH   1   2
ATOM      2  N   UNL     1      -4.672  -4.672  -2.978  0.00  0.00    +0.000 N 
ATOM      3  C   UNL     1      -5.748  -4.879  -3.864  0.00  0.00    +0.000 A 
ATOM      4  C   UNL     1      -5.527  -5.572  -5.044  0.00  0.00    +0.000 A 
ATOM      5  C   UNL     1      -6.582  -5.744  -5.944  0.00  0.00    +0.000 A 
ATOM      6  C   UNL     1      -7.851  -5.227  -5.652  0.00  0.00    +0.000 A 
ATOM      7  C   UNL     1      -8.001  -4.540  -4.448  0.00  0.00    +0.000 A 
ATOM      8  C   UNL     1      -9.277  -3.921  -3.959  0.00  0.00    +0.000 C 
ATOM      9  N   UNL     1      -6.962  -4.372  -3.579  0.00  0.00    +0.000 NA
ATOM     10  H   UNL     1      -4.241  -5.559  -2.749  0.00  0.00    +0.000 HD
BRANCH   6  11
ATOM     11  C   UNL     1      -8.957  -5.386  -6.633  0.00  0.00    +0.000 C 
ATOM     12  N   UNL     1      -8.964  -6.531  -7.385  0.00  0.00    +0.000 N 
ATOM     13  O   UNL     1      -9.837  -4.550  -6.781  0.00  0.00    +0.000 OA
ATOM     14  H   UNL     1      -8.346  -7.314  -7.230  0.00  0.00    +0.000 HD
ATOM     15  H   UNL     1      -9.750  -6.660  -8.010  0.00  0.00    +0.000 HD
ENDBRANCH   6  11
ENDBRANCH   1   2
BRANCH   1  20
ATOM     16  C   UNL     1      -2.025  -2.407  -0.010  0.00  0.00    +0.000 A 
ATOM     17  C   UNL     1      -1.861  -3.348   1.023  0.00  0.00    +0.000 A 
ATOM     18  C   UNL     1      -2.665  -4.490   1.110  0.00  0.00    +0.000 A 
ATOM     19  C   UNL     1      -3.680  -4.703   0.182  0.00  0.00    +0.000 A 
ATOM     20  C   UNL     1      -3.901  -3.775  -0.840  0.00  0.00    +0.000 A 
ATOM     21  C   UNL     1      -3.049  -2.660  -0.946  0.00  0.00    +0.000 A 
BRANCH  16  25
ATOM     22  C   UNL     1      -1.339   2.420  -1.295  0.00  0.00    +0.000 C 
ATOM     23  C   UNL     1      -0.840   1.136  -0.706  0.00  0.00    +0.000 A 
ATOM     24  C   UNL     1      -1.667   0.017  -0.621  0.00  0.00    +0.000 A 
ATOM     25  C   UNL     1      -1.176  -1.192  -0.098  0.00  0.00    +0.000 A 
ATOM     26  C   UNL     1       0.156  -1.190   0.338  0.00  0.00    +0.000 A 
ATOM     27  C   UNL     1       0.907  -0.029   0.237  0.00  0.00    +0.000 A 
ATOM     28  N   UNL     1       0.442   1.126  -0.277  0.00  0.00    +0.000 NA
ENDBRANCH  16  25
ENDBRANCH   1  20
TORSDOF 4
