REMARK  Name = 
REMARK  11 active torsions:
REMARK  status: ('A' for Active; 'I' for Inactive)
REMARK    1  A    between atoms: C_1  and  O_2
REMARK    2  A    between atoms: O_2  and  C_3
REMARK    3  A    between atoms: C_5  and  C_6
REMARK    4  A    between atoms: C_6  and  O_7
REMARK    5  A    between atoms: O_7  and  C_8
REMARK    6  A    between atoms: C_8  and  C_9
REMARK    7  A    between atoms: C_12  and  C_13
REMARK    8  A    between atoms: C_13  and  N_14
REMARK    9  A    between atoms: C_15  and  C_17
REMARK   10  A    between atoms: C_27  and  O_28
REMARK   11  A    between atoms: O_28  and  C_29
REMARK                            x       y       z     vdW  Elec       q    Type
REMARK                         _______ _______ _______ _____ _____    ______ ____
ROOT
ATOM      1  C   UNL     1       0.259   3.331  -5.371  0.00  0.00    +0.000 A 
ATOM      2  C   UNL     1      -0.892   2.677  -4.936  0.00  0.00    +0.000 A 
ATOM      3  C   UNL     1      -2.017   3.414  -4.562  0.00  0.00    +0.000 A 
ATOM      4  C   UNL     1      -2.040   4.824  -4.636  0.00  0.00    +0.000 A 
ATOM      5  C   UNL     1      -0.870   5.487  -5.042  0.00  0.00    +0.000 A 
ATOM      6  C   UNL     1       0.254   4.733  -5.417  0.00  0.00    +0.000 A 
ENDROOT
BRANCH   5   7
ATOM      7  O   UNL     1      -0.699   6.830  -5.240  0.00  0.00    +0.000 OA
ATOM      8  C   UNL     1      -1.220   7.714  -4.258  0.00  0.00    +0.000 C 
ENDBRANCH   5   7
BRANCH   1   9
ATOM      9  C   UNL     1       1.484   2.557  -5.774  0.00  0.00    +0.000 C 
BRANCH   9  10
ATOM     10  O   UNL     1       2.531   2.943  -4.894  0.00  0.00    +0.000 OA
BRANCH  10  11
ATOM     11  C   UNL     1       3.752   2.264  -5.169  0.00  0.00    +0.000 C 
BRANCH  11  14
ATOM     12  C   UNL     1       5.854   4.296  -2.827  0.00  0.00    +0.000 A 
ATOM     13  C   UNL     1       4.838   3.995  -3.704  0.00  0.00    +0.000 A 
ATOM     14  C   UNL     1       4.814   2.704  -4.193  0.00  0.00    +0.000 A 
ATOM     15  N   UNL     1       5.759   1.795  -3.855  0.00  0.00    +0.000 NA
ATOM     16  C   UNL     1       6.698   2.203  -2.989  0.00  0.00    +0.000 A 
ATOM     17  N   UNL     1       6.799   3.420  -2.446  0.00  0.00    +0.000 NA
BRANCH  12  19
ATOM     18  C   UNL     1       6.918   5.809  -1.385  0.00  0.00    +0.000 C 
ATOM     19  O   UNL     1       5.872   5.586  -2.327  0.00  0.00    +0.000 OA
ENDBRANCH  12  19
ENDBRANCH  11  14
ENDBRANCH  10  11
ENDBRANCH   9  10
ENDBRANCH   1   9
BRANCH   4  20
ATOM     20  C   UNL     1      -3.364   5.485  -4.356  0.00  0.00    +0.000 C 
BRANCH  20  21
ATOM     21  N   UNL     1      -3.583   5.769  -2.958  0.00  0.00    +0.000 N 
ATOM     22  C   UNL     1      -4.728   6.422  -2.567  0.00  0.00    +0.000 C 
ATOM     23  O   UNL     1      -5.568   6.778  -3.388  0.00  0.00    +0.000 OA
ATOM     24  H   UNL     1      -3.030   5.260  -2.272  0.00  0.00    +0.000 HD
BRANCH  22  25
ATOM     25  C   UNL     1      -4.879   6.749  -1.144  0.00  0.00    +0.000 A 
ATOM     26  C   UNL     1      -5.982   7.479  -0.717  0.00  0.00    +0.000 A 
ATOM     27  S   UNL     1      -5.869   7.998   0.905  0.00  0.00    +0.000 S 
ATOM     28  C   UNL     1      -4.365   7.227   1.097  0.00  0.00    +0.000 A 
ATOM     29  N   UNL     1      -3.643   7.362   2.242  0.00  0.00    +0.000 NA
ATOM     30  C   UNL     1      -2.536   6.697   2.253  0.00  0.00    +0.000 A 
ATOM     31  N   UNL     1      -2.109   5.872   1.244  0.00  0.00    +0.000 N 
ATOM     32  C   UNL     1      -2.835   5.663   0.097  0.00  0.00    +0.000 A 
ATOM     33  O   UNL     1      -2.508   4.819  -0.731  0.00  0.00    +0.000 OA
ATOM     34  C   UNL     1      -4.017   6.490  -0.020  0.00  0.00    +0.000 A 
ATOM     35  H   UNL     1      -1.273   5.316   1.351  0.00  0.00    +0.000 HD
ENDBRANCH  22  25
ENDBRANCH  20  21
ENDBRANCH   4  20
TORSDOF 9
