REMARK  Name = 
REMARK  6 active torsions:
REMARK  status: ('A' for Active; 'I' for Inactive)
REMARK    1  A    between atoms: C_2  and  C_3
REMARK    2  A    between atoms: C_6  and  C_7
REMARK    3  A    between atoms: C_11  and  C_12
REMARK    4  A    between atoms: C_12  and  N_13
REMARK    5  A    between atoms: N_13  and  C_14
REMARK    6  A    between atoms: C_17  and  C_18
REMARK                            x       y       z     vdW  Elec       q    Type
REMARK                         _______ _______ _______ _____ _____    ______ ____
ROOT
ATOM      1  C   UNL     1      -6.733   0.791  -2.159  0.00  0.00    +0.000 C 
ATOM      2  C   UNL     1      -6.663   0.410  -3.625  0.00  0.00    +0.000 C 
ATOM      3  C   UNL     1      -6.172   1.754  -3.210  0.00  0.00    +0.000 C 
ENDROOT
BRANCH   1   8
ATOM      4  C   UNL     1      -4.705  -1.806  -0.144  0.00  0.00    +0.000 A 
ATOM      5  C   UNL     1      -3.793  -0.917   0.427  0.00  0.00    +0.000 A 
ATOM      6  N   UNL     1      -3.824   0.428   0.288  0.00  0.00    +0.000 NA
ATOM      7  C   UNL     1      -4.797   0.923  -0.506  0.00  0.00    +0.000 A 
ATOM      8  C   UNL     1      -5.733   0.162  -1.203  0.00  0.00    +0.000 A 
ATOM      9  C   UNL     1      -5.679  -1.223  -0.973  0.00  0.00    +0.000 A 
BRANCH   4  13
ATOM     10  C   UNL     1      -4.580  -5.996   0.529  0.00  0.00    +0.000 A 
ATOM     11  C   UNL     1      -4.162  -5.157   1.551  0.00  0.00    +0.000 A 
ATOM     12  C   UNL     1      -4.204  -3.779   1.334  0.00  0.00    +0.000 A 
ATOM     13  C   UNL     1      -4.650  -3.254   0.110  0.00  0.00    +0.000 A 
ATOM     14  C   UNL     1      -5.045  -4.200  -0.843  0.00  0.00    +0.000 A 
ATOM     15  N   UNL     1      -5.021  -5.545  -0.666  0.00  0.00    +0.000 NA
BRANCH  10  17
ATOM     16  N   UNL     1      -4.530  -8.569   0.879  0.00  0.00    +0.000 NA
ATOM     17  C   UNL     1      -4.562  -7.423   0.698  0.00  0.00    +0.000 C 
ENDBRANCH  10  17
ENDBRANCH   4  13
ENDBRANCH   1   8
BRANCH   1  18
ATOM     18  N   UNL     1      -7.953   1.276  -1.514  0.00  0.00    +0.000 N 
ATOM     19  H   UNL     1      -7.955   2.246  -1.211  0.00  0.00    +0.000 HD
BRANCH  18  20
ATOM     20  C   UNL     1      -9.144   0.581  -1.267  0.00  0.00    +0.000 A 
ATOM     21  C   UNL     1     -10.121   1.256  -0.509  0.00  0.00    +0.000 A 
ATOM     22  C   UNL     1     -11.368   0.687  -0.236  0.00  0.00    +0.000 A 
ATOM     23  C   UNL     1     -11.677  -0.588  -0.711  0.00  0.00    +0.000 A 
ATOM     24  C   UNL     1     -10.700  -1.297  -1.423  0.00  0.00    +0.000 A 
ATOM     25  C   UNL     1      -9.452  -0.717  -1.686  0.00  0.00    +0.000 A 
ATOM     26  F   UNL     1      -8.565  -1.447  -2.381  0.00  0.00    +0.000 F 
BRANCH  23  27
ATOM     27  C   UNL     1     -13.011  -1.222  -0.508  0.00  0.00    +0.000 C 
ATOM     28  N   UNL     1     -13.973  -0.527   0.170  0.00  0.00    +0.000 N 
ATOM     29  O   UNL     1     -13.259  -2.337  -0.949  0.00  0.00    +0.000 OA
ATOM     30  H   UNL     1     -13.878   0.406   0.541  0.00  0.00    +0.000 HD
ATOM     31  H   UNL     1     -14.877  -0.972   0.262  0.00  0.00    +0.000 HD
ENDBRANCH  23  27
ENDBRANCH  18  20
ENDBRANCH   1  18
TORSDOF 6
