REMARK  Name = 
REMARK  5 active torsions:
REMARK  status: ('A' for Active; 'I' for Inactive)
REMARK    1  A    between atoms: C_1  and  C_2
REMARK    2  A    between atoms: C_4  and  C_5
REMARK    3  A    between atoms: C_10  and  N_11
REMARK    4  A    between atoms: N_11  and  C_12
REMARK    5  A    between atoms: C_12  and  C_13
REMARK                            x       y       z     vdW  Elec       q    Type
REMARK                         _______ _______ _______ _____ _____    ______ ____
ROOT
ATOM      1  C   UNL     1      -1.933  -1.951  -0.606  0.00  0.00    +0.000 C 
ATOM      2  C   UNL     1      -1.058  -0.764  -0.323  0.00  0.00    +0.000 A 
ATOM      3  C   UNL     1      -1.625   0.519  -0.392  0.00  0.00    +0.000 A 
ATOM      4  C   UNL     1      -0.859   1.650  -0.139  0.00  0.00    +0.000 A 
ATOM      5  C   UNL     1       0.473   1.433   0.181  0.00  0.00    +0.000 A 
ATOM      6  N   UNL     1       1.069   0.204   0.225  0.00  0.00    +0.000 NA
ATOM      7  C   UNL     1       0.309  -0.890  -0.014  0.00  0.00    +0.000 A 
ENDROOT
BRANCH   4   8
ATOM      8  C   UNL     1      -1.514   2.982  -0.242  0.00  0.00    +0.000 C 
ATOM      9  N   UNL     1      -0.792   4.112   0.019  0.00  0.00    +0.000 N 
ATOM     10  O   UNL     1      -2.691   3.080  -0.563  0.00  0.00    +0.000 OA
ATOM     11  H   UNL     1       0.178   4.153   0.288  0.00  0.00    +0.000 HD
ATOM     12  H   UNL     1      -1.289   4.989  -0.077  0.00  0.00    +0.000 HD
ENDBRANCH   4   8
BRANCH   7  13
ATOM     13  N   UNL     1       0.886  -2.185  -0.042  0.00  0.00    +0.000 N 
ATOM     14  H   UNL     1       0.338  -2.832   0.513  0.00  0.00    +0.000 HD
BRANCH  13  15
ATOM     15  C   UNL     1       2.347  -2.408  -0.041  0.00  0.00    +0.000 C 
ATOM     16  C   UNL     1       3.132  -2.046  -1.289  0.00  0.00    +0.000 C 
ATOM     17  C   UNL     1       2.878  -3.485  -0.988  0.00  0.00    +0.000 C 
BRANCH  15  18
ATOM     18  C   UNL     1       3.037  -2.367   1.321  0.00  0.00    +0.000 A 
ATOM     19  C   UNL     1       3.015  -3.463   2.196  0.00  0.00    +0.000 A 
ATOM     20  C   UNL     1       3.744  -3.416   3.376  0.00  0.00    +0.000 A 
ATOM     21  N   UNL     1       4.493  -2.360   3.752  0.00  0.00    +0.000 NA
ATOM     22  C   UNL     1       4.496  -1.303   2.916  0.00  0.00    +0.000 A 
ATOM     23  C   UNL     1       3.793  -1.259   1.722  0.00  0.00    +0.000 A 
ENDBRANCH  15  18
ENDBRANCH  13  15
ENDBRANCH   7  13
TORSDOF 4
