REMARK  Name = 
REMARK  8 active torsions:
REMARK  status: ('A' for Active; 'I' for Inactive)
REMARK    1  A    between atoms: C_1  and  C_2
REMARK    2  A    between atoms: C_2  and  N_3
REMARK    3  A    between atoms: N_3  and  C_4
REMARK    4  A    between atoms: C_4  and  C_5
REMARK    5  A    between atoms: C_8  and  C_9
REMARK    6  A    between atoms: C_9  and  N_10
REMARK    7  A    between atoms: C_11  and  C_13
REMARK    8  A    between atoms: C_20  and  C_22
REMARK                            x       y       z     vdW  Elec       q    Type
REMARK                         _______ _______ _______ _____ _____    ______ ____
ROOT
ATOM      1  C   UNL     1       1.931  -1.673   1.793  0.00  0.00    +0.000 C 
ENDROOT
BRANCH   1   2
ATOM      2  C   UNL     1       0.454  -1.413   1.631  0.00  0.00    +0.000 A 
ATOM      3  C   UNL     1      -0.368  -2.340   0.972  0.00  0.00    +0.000 A 
ATOM      4  C   UNL     1      -1.706  -2.039   0.707  0.00  0.00    +0.000 A 
ATOM      5  C   UNL     1      -2.237  -0.801   1.089  0.00  0.00    +0.000 A 
ATOM      6  C   UNL     1      -1.443   0.079   1.837  0.00  0.00    +0.000 A 
ATOM      7  C   UNL     1      -0.107  -0.221   2.101  0.00  0.00    +0.000 A 
BRANCH   5   8
ATOM      8  C   UNL     1      -3.603  -0.377   0.628  0.00  0.00    +0.000 C 
BRANCH   8   9
ATOM      9  N   UNL     1      -4.662  -0.755   1.517  0.00  0.00    +0.000 N 
ATOM     10  C   UNL     1      -5.962  -0.399   1.233  0.00  0.00    +0.000 C 
ATOM     11  O   UNL     1      -6.273   0.260   0.244  0.00  0.00    +0.000 OA
ATOM     12  H   UNL     1      -4.495  -1.322   2.342  0.00  0.00    +0.000 HD
BRANCH  10  13
ATOM     13  C   UNL     1      -6.933  -0.876   2.193  0.00  0.00    +0.000 A 
ATOM     14  N   UNL     1      -6.660  -1.581   3.277  0.00  0.00    +0.000 NA
ATOM     15  C   UNL     1      -7.875  -1.810   3.877  0.00  0.00    +0.000 A 
ATOM     16  C   UNL     1      -8.896  -1.245   3.150  0.00  0.00    +0.000 A 
ATOM     17  N   UNL     1      -8.281  -0.650   2.084  0.00  0.00    +0.000 N 
ATOM     18  H   UNL     1      -8.716  -0.132   1.330  0.00  0.00    +0.000 HD
ENDBRANCH  10  13
ENDBRANCH   8   9
ENDBRANCH   5   8
ENDBRANCH   1   2
BRANCH   1  19
ATOM     19  N   UNL     1       2.841  -0.961   0.879  0.00  0.00    +0.000 N 
ATOM     20  C   UNL     1       4.216  -0.792   1.129  0.00  0.00    +0.000 C 
ATOM     21  O   UNL     1       4.943  -0.186   0.344  0.00  0.00    +0.000 OA
BRANCH  20  22
ATOM     22  C   UNL     1       4.803  -1.394   2.331  0.00  0.00    +0.000 A 
ATOM     23  C   UNL     1       4.638  -2.720   2.697  0.00  0.00    +0.000 A 
ATOM     24  S   UNL     1       5.485  -3.145   4.116  0.00  0.00    +0.000 S 
ATOM     25  C   UNL     1       6.216  -1.611   4.201  0.00  0.00    +0.000 A 
ATOM     26  N   UNL     1       7.151  -1.333   5.148  0.00  0.00    +0.000 NA
ATOM     27  C   UNL     1       7.674  -0.157   5.042  0.00  0.00    +0.000 A 
ATOM     28  N   UNL     1       7.323   0.776   4.098  0.00  0.00    +0.000 N 
ATOM     29  C   UNL     1       6.291   0.586   3.203  0.00  0.00    +0.000 A 
ATOM     30  O   UNL     1       5.859   1.514   2.530  0.00  0.00    +0.000 OA
ATOM     31  C   UNL     1       5.753  -0.762   3.213  0.00  0.00    +0.000 A 
ATOM     32  H   UNL     1       7.730   1.699   4.109  0.00  0.00    +0.000 HD
ENDBRANCH  20  22
BRANCH  19  34
ATOM     33  C   UNL     1       2.209   1.046  -0.451  0.00  0.00    +0.000 C 
ATOM     34  C   UNL     1       2.346  -0.471  -0.414  0.00  0.00    +0.000 C 
ENDBRANCH  19  34
ENDBRANCH   1  19
TORSDOF 7
