REMARK  Name = 
REMARK  10 active torsions:
REMARK  status: ('A' for Active; 'I' for Inactive)
REMARK    1  A    between atoms: C_1  and  C_2
REMARK    2  A    between atoms: C_2  and  N_3
REMARK    3  A    between atoms: C_2  and  C_19
REMARK    4  A    between atoms: N_3  and  C_4
REMARK    5  A    between atoms: C_4  and  C_5
REMARK    6  A    between atoms: C_8  and  C_9
REMARK    7  A    between atoms: C_9  and  O_10
REMARK    8  A    between atoms: C_9  and  C_11
REMARK    9  A    between atoms: C_11  and  N_12
REMARK   10  A    between atoms: C_19  and  C_21
REMARK                            x       y       z     vdW  Elec       q    Type
REMARK                         _______ _______ _______ _____ _____    ______ ____
ROOT
ATOM      1  N   UNL     1       1.016  -0.183   0.107  0.00  0.00    +0.000 NA
ATOM      2  H   UNL     1       0.655  -0.110   1.058  0.00  0.00    +0.000 HD
ENDROOT
BRANCH   1   4
ATOM      3  C   UNL     1       2.927   1.109   0.735  0.00  0.00    +0.000 C 
ATOM      4  C   UNL     1       2.498  -0.229   0.136  0.00  0.00    +0.000 C 
BRANCH   4   5
ATOM      5  C   UNL     1       3.045  -1.435   0.968  0.00  0.00    +0.000 C 
ATOM      6  O   UNL     1       2.283  -2.106   1.660  0.00  0.00    +0.000 OA
BRANCH   5   7
ATOM      7  C   UNL     1       4.478  -1.774   0.893  0.00  0.00    +0.000 A 
ATOM      8  C   UNL     1       5.269  -1.482  -0.206  0.00  0.00    +0.000 A 
ATOM      9  S   UNL     1       6.909  -1.928  -0.011  0.00  0.00    +0.000 S 
ATOM     10  C   UNL     1       6.618  -2.523   1.557  0.00  0.00    +0.000 A 
ATOM     11  N   UNL     1       7.639  -2.993   2.325  0.00  0.00    +0.000 NA
ATOM     12  C   UNL     1       7.283  -3.358   3.512  0.00  0.00    +0.000 A 
ATOM     13  N   UNL     1       5.998  -3.329   3.990  0.00  0.00    +0.000 N 
ATOM     14  C   UNL     1       4.916  -3.032   3.183  0.00  0.00    +0.000 A 
ATOM     15  O   UNL     1       3.778  -3.291   3.569  0.00  0.00    +0.000 OA
ATOM     16  C   UNL     1       5.271  -2.468   1.896  0.00  0.00    +0.000 A 
ATOM     17  H   UNL     1       5.776  -3.699   4.899  0.00  0.00    +0.000 HD
ENDBRANCH   5   7
ENDBRANCH   4   5
ENDBRANCH   1   4
BRANCH   1  18
ATOM     18  C   UNL     1       0.422  -1.352  -0.541  0.00  0.00    +0.000 C 
BRANCH  18  19
ATOM     19  C   UNL     1      -1.072  -1.240  -0.724  0.00  0.00    +0.000 A 
ATOM     20  C   UNL     1      -1.924  -2.135  -0.084  0.00  0.00    +0.000 A 
ATOM     21  N   UNL     1      -3.242  -2.229  -0.368  0.00  0.00    +0.000 NA
ATOM     22  C   UNL     1      -3.703  -1.357  -1.293  0.00  0.00    +0.000 A 
ATOM     23  C   UNL     1      -2.863  -0.416  -1.892  0.00  0.00    +0.000 A 
ATOM     24  N   UNL     1      -1.542  -0.339  -1.627  0.00  0.00    +0.000 NA
BRANCH  22  25
ATOM     25  C   UNL     1      -5.133  -1.476  -1.762  0.00  0.00    +0.000 C 
BRANCH  25  26
ATOM     26  O   UNL     1      -5.342  -2.784  -2.322  0.00  0.00    +0.000 OA
ATOM     27  H   UNL     1      -5.100  -3.410  -1.608  0.00  0.00    +0.000 HD
ENDBRANCH  25  26
BRANCH  25  28
ATOM     28  C   UNL     1      -6.179  -1.253  -0.643  0.00  0.00    +0.000 C 
BRANCH  28  29
ATOM     29  N   UNL     1      -6.132   0.058   0.043  0.00  0.00    +0.000 NA
ATOM     30  C   UNL     1      -6.424   1.182  -0.847  0.00  0.00    +0.000 C 
ATOM     31  C   UNL     1      -7.937   1.212  -0.931  0.00  0.00    +0.000 C 
ATOM     32  O   UNL     1      -8.414   0.590   0.270  0.00  0.00    +0.000 OA
ATOM     33  C   UNL     1      -7.250   0.162   0.983  0.00  0.00    +0.000 C 
ENDBRANCH  28  29
ENDBRANCH  25  28
ENDBRANCH  22  25
ENDBRANCH  18  19
ENDBRANCH   1  18
TORSDOF 9
