REMARK  Name = 
REMARK  5 active torsions:
REMARK  status: ('A' for Active; 'I' for Inactive)
REMARK    1  A    between atoms: C_1  and  C_2
REMARK    2  A    between atoms: C_2  and  O_3
REMARK    3  A    between atoms: C_2  and  C_13
REMARK    4  A    between atoms: O_3  and  C_4
REMARK    5  A    between atoms: C_7  and  C_8
REMARK                            x       y       z     vdW  Elec       q    Type
REMARK                         _______ _______ _______ _____ _____    ______ ____
ROOT
ATOM      1  C   UNL     1       2.550  -0.931  -2.206  0.00  0.00    +0.000 A 
ATOM      2  C   UNL     1       2.253  -0.693  -3.540  0.00  0.00    +0.000 A 
ATOM      3  C   UNL     1       1.867  -1.767  -4.339  0.00  0.00    +0.000 A 
ATOM      4  C   UNL     1       1.857  -3.062  -3.811  0.00  0.00    +0.000 A 
ATOM      5  C   UNL     1       2.254  -3.203  -2.487  0.00  0.00    +0.000 A 
ATOM      6  N   UNL     1       2.587  -2.169  -1.667  0.00  0.00    +0.000 NA
ENDROOT
BRANCH   4   7
ATOM      7  C   UNL     1       1.419  -4.187  -4.684  0.00  0.00    +0.000 C 
ATOM      8  N   UNL     1       1.426  -5.457  -4.193  0.00  0.00    +0.000 N 
ATOM      9  O   UNL     1       1.052  -3.979  -5.835  0.00  0.00    +0.000 OA
ATOM     10  H   UNL     1       1.730  -5.744  -3.278  0.00  0.00    +0.000 HD
ATOM     11  H   UNL     1       1.121  -6.182  -4.826  0.00  0.00    +0.000 HD
ENDBRANCH   4   7
BRANCH   1  12
ATOM     12  O   UNL     1       2.801   0.176  -1.418  0.00  0.00    +0.000 OA
BRANCH  12  14
ATOM     13  C   UNL     1       0.963  -0.131   0.172  0.00  0.00    +0.000 C 
ATOM     14  C   UNL     1       2.480   0.026  -0.019  0.00  0.00    +0.000 C 
BRANCH  14  15
ATOM     15  C   UNL     1       3.002   1.284   0.756  0.00  0.00    +0.000 C 
ATOM     16  C   UNL     1       2.359   2.595   0.251  0.00  0.00    +0.000 C 
ATOM     17  C   UNL     1       2.941   3.849   0.899  0.00  0.00    +0.000 C 
ATOM     18  C   UNL     1       4.451   3.896   0.723  0.00  0.00    +0.000 C 
ATOM     19  C   UNL     1       5.092   2.657   1.334  0.00  0.00    +0.000 C 
ATOM     20  C   UNL     1       4.543   1.372   0.708  0.00  0.00    +0.000 C 
ENDBRANCH  14  15
ENDBRANCH  12  14
ENDBRANCH   1  12
TORSDOF 4
