REMARK  Name = 
REMARK  10 active torsions:
REMARK  status: ('A' for Active; 'I' for Inactive)
REMARK    1  A    between atoms: C_1  and  O_2
REMARK    2  A    between atoms: O_2  and  C_3
REMARK    3  A    between atoms: C_10  and  C_11
REMARK    4  A    between atoms: N_13  and  C_14
REMARK    5  A    between atoms: C_14  and  C_15
REMARK    6  A    between atoms: C_18  and  C_19
REMARK    7  A    between atoms: C_19  and  N_20
REMARK    8  A    between atoms: N_20  and  C_21
REMARK    9  A    between atoms: N_20  and  C_22
REMARK   10  A    between atoms: C_22  and  C_23
REMARK                            x       y       z     vdW  Elec       q    Type
REMARK                         _______ _______ _______ _____ _____    ______ ____
ROOT
ATOM      1  C   UNL     1       1.770   2.583   2.098  0.00  0.00    +0.000 A 
ATOM      2  C   UNL     1       0.632   1.911   1.631  0.00  0.00    +0.000 A 
ATOM      3  C   UNL     1      -0.374   2.601   0.950  0.00  0.00    +0.000 A 
ATOM      4  C   UNL     1      -0.279   3.984   0.746  0.00  0.00    +0.000 A 
ATOM      5  C   UNL     1       0.855   4.659   1.220  0.00  0.00    +0.000 A 
ATOM      6  C   UNL     1       1.873   3.964   1.881  0.00  0.00    +0.000 A 
ENDROOT
BRANCH   1   7
ATOM      7  C   UNL     1       2.887   1.813   2.756  0.00  0.00    +0.000 C 
BRANCH   7  10
ATOM      8  C   UNL     1       4.907   0.564   2.133  0.00  0.00    +0.000 C 
ATOM      9  O   UNL     1       5.106   0.261   3.309  0.00  0.00    +0.000 OA
ATOM     10  N   UNL     1       3.833   1.338   1.779  0.00  0.00    +0.000 N 
ATOM     11  H   UNL     1       3.681   1.586   0.809  0.00  0.00    +0.000 HD
BRANCH   8  19
ATOM     12  C   UNL     1       4.935   0.923  -1.309  0.00  0.00    +0.000 A 
ATOM     13  N   UNL     1       5.194   0.884  -2.632  0.00  0.00    +0.000 NA
ATOM     14  C   UNL     1       6.287   0.241  -3.052  0.00  0.00    +0.000 A 
ATOM     15  N   UNL     1       7.173  -0.391  -2.293  0.00  0.00    +0.000 NA
ATOM     16  C   UNL     1       6.878  -0.345  -0.982  0.00  0.00    +0.000 A 
ATOM     17  S   UNL     1       7.904  -1.111   0.126  0.00  0.00    +0.000 S 
ATOM     18  C   UNL     1       6.927  -0.641   1.431  0.00  0.00    +0.000 A 
ATOM     19  C   UNL     1       5.814   0.110   1.065  0.00  0.00    +0.000 A 
ATOM     20  C   UNL     1       5.784   0.285  -0.386  0.00  0.00    +0.000 A 
BRANCH  12  22
ATOM     21  C   UNL     1       3.093   2.207  -1.969  0.00  0.00    +0.000 C 
ATOM     22  O   UNL     1       3.820   1.622  -0.888  0.00  0.00    +0.000 OA
ENDBRANCH  12  22
ENDBRANCH   8  19
ENDBRANCH   7  10
ENDBRANCH   1   7
BRANCH   4  23
ATOM     23  C   UNL     1      -1.370   4.735   0.005  0.00  0.00    +0.000 C 
BRANCH  23  24
ATOM     24  N   UNL     1      -2.710   4.607   0.615  0.00  0.00    +0.000 NA
ATOM     25  C   UNL     1      -2.734   5.186   1.966  0.00  0.00    +0.000 C 
BRANCH  24  26
ATOM     26  C   UNL     1      -3.722   5.302  -0.210  0.00  0.00    +0.000 C 
BRANCH  26  27
ATOM     27  C   UNL     1      -3.921   4.714  -1.587  0.00  0.00    +0.000 A 
ATOM     28  C   UNL     1      -4.302   3.374  -1.753  0.00  0.00    +0.000 A 
ATOM     29  C   UNL     1      -4.569   2.868  -3.028  0.00  0.00    +0.000 A 
ATOM     30  C   UNL     1      -4.450   3.690  -4.150  0.00  0.00    +0.000 A 
ATOM     31  C   UNL     1      -4.037   5.012  -3.999  0.00  0.00    +0.000 A 
ATOM     32  C   UNL     1      -3.777   5.512  -2.726  0.00  0.00    +0.000 A 
ATOM     33  F   UNL     1      -3.383   6.788  -2.606  0.00  0.00    +0.000 F 
ENDBRANCH  26  27
ENDBRANCH  24  26
ENDBRANCH  23  24
ENDBRANCH   4  23
TORSDOF 8
