REMARK  Name = 
REMARK  4 active torsions:
REMARK  status: ('A' for Active; 'I' for Inactive)
REMARK    1  A    between atoms: N_1  and  C_2
REMARK    2  A    between atoms: C_2  and  C_3
REMARK    3  A    between atoms: C_6  and  C_7
REMARK    4  A    between atoms: C_7  and  C_8
REMARK                            x       y       z     vdW  Elec       q    Type
REMARK                         _______ _______ _______ _____ _____    ______ ____
ROOT
ATOM      1  C   UNL     1       4.606   0.480  -5.442  0.00  0.00    +0.000 C 
ENDROOT
BRANCH   1   2
ATOM      2  C   UNL     1       6.082   0.648  -5.483  0.00  0.00    +0.000 A 
ATOM      3  C   UNL     1       7.101  -0.279  -5.563  0.00  0.00    +0.000 A 
ATOM      4  N   UNL     1       8.331   0.324  -5.543  0.00  0.00    +0.000 NA
ATOM      5  C   UNL     1       8.078   1.612  -5.454  0.00  0.00    +0.000 A 
ATOM      6  C   UNL     1       8.946   2.721  -5.370  0.00  0.00    +0.000 A 
ATOM      7  C   UNL     1       8.426   3.953  -5.334  0.00  0.00    +0.000 A 
ATOM      8  C   UNL     1       6.944   4.073  -5.392  0.00  0.00    +0.000 A 
ATOM      9 CL   UNL     1       6.240   5.650  -5.397  0.00  0.00    +0.000 Cl
ATOM     10  N   UNL     1       6.104   3.087  -5.438  0.00  0.00    +0.000 NA
ATOM     11  N   UNL     1       6.714   1.867  -5.452  0.00  0.00    +0.000 N 
ENDBRANCH   1   2
BRANCH   1  15
ATOM     12  C   UNL     1       3.056   0.058  -1.410  0.00  0.00    +0.000 A 
ATOM     13  C   UNL     1       3.171   1.322  -2.008  0.00  0.00    +0.000 A 
ATOM     14  C   UNL     1       3.673   1.458  -3.303  0.00  0.00    +0.000 A 
ATOM     15  C   UNL     1       4.070   0.331  -4.035  0.00  0.00    +0.000 A 
ATOM     16  C   UNL     1       3.974  -0.931  -3.433  0.00  0.00    +0.000 A 
ATOM     17  C   UNL     1       3.468  -1.067  -2.136  0.00  0.00    +0.000 A 
BRANCH  12  18
ATOM     18  C   UNL     1       2.514  -0.080  -0.010  0.00  0.00    +0.000 C 
BRANCH  18  19
ATOM     19  N   UNL     1       1.143   0.409   0.085  0.00  0.00    +0.000 NA
ATOM     20  H   UNL     1       0.781   0.214   1.016  0.00  0.00    +0.000 HD
ATOM     21  H   UNL     1       0.564  -0.116  -0.569  0.00  0.00    +0.000 HD
ENDBRANCH  18  19
ENDBRANCH  12  18
ENDBRANCH   1  15
TORSDOF 4
