REMARK  Name = 
REMARK  5 active torsions:
REMARK  status: ('A' for Active; 'I' for Inactive)
REMARK    1  A    between atoms: C_2  and  C_5
REMARK    2  A    between atoms: C_7  and  N_8
REMARK    3  A    between atoms: N_8  and  C_9
REMARK    4  A    between atoms: C_9  and  C_10
REMARK    5  A    between atoms: C_17  and  C_18
REMARK                            x       y       z     vdW  Elec       q    Type
REMARK                         _______ _______ _______ _____ _____    ______ ____
ROOT
ATOM      1  C   UNL     1       2.891   1.381   0.373  0.00  0.00    +0.000 A 
ATOM      2  C   UNL     1       4.065   1.605   1.096  0.00  0.00    +0.000 A 
ATOM      3  C   UNL     1       4.432   2.901   1.439  0.00  0.00    +0.000 A 
ATOM      4  N   UNL     1       3.685   3.957   1.073  0.00  0.00    +0.000 NA
ATOM      5  C   UNL     1       2.559   3.763   0.337  0.00  0.00    +0.000 A 
ATOM      6  C   UNL     1       2.137   2.487  -0.026  0.00  0.00    +0.000 A 
ENDROOT
BRANCH   5   7
ATOM      7  C   UNL     1       1.825   4.981  -0.040  0.00  0.00    +0.000 A 
ATOM      8  C   UNL     1       2.489   6.183  -0.324  0.00  0.00    +0.000 A 
ATOM      9  C   UNL     1       1.771   7.326  -0.678  0.00  0.00    +0.000 A 
ATOM     10  C   UNL     1       0.392   7.242  -0.739  0.00  0.00    +0.000 A 
ATOM     11  N   UNL     1      -0.298   6.113  -0.477  0.00  0.00    +0.000 NA
ATOM     12  C   UNL     1       0.433   5.023  -0.132  0.00  0.00    +0.000 A 
ENDBRANCH   5   7
BRANCH   1  14
ATOM     13  F   UNL     1       3.242  -0.989   0.511  0.00  0.00    +0.000 F 
ATOM     14  C   UNL     1       2.414  -0.009   0.055  0.00  0.00    +0.000 C 
ATOM     15  F   UNL     1       2.283  -0.221  -1.282  0.00  0.00    +0.000 F 
ATOM     16  F   UNL     1       1.192  -0.271   0.596  0.00  0.00    +0.000 F 
ENDBRANCH   1  14
BRANCH   3  17
ATOM     17  N   UNL     1       5.557   3.069   2.239  0.00  0.00    +0.000 N 
ATOM     18  H   UNL     1       6.400   2.668   1.851  0.00  0.00    +0.000 HD
BRANCH  17  19
ATOM     19  C   UNL     1       5.719   4.305   2.983  0.00  0.00    +0.000 C 
BRANCH  19  20
ATOM     20  C   UNL     1       6.268   5.494   2.230  0.00  0.00    +0.000 A 
ATOM     21  C   UNL     1       5.959   6.777   2.705  0.00  0.00    +0.000 A 
ATOM     22  C   UNL     1       6.517   7.885   2.091  0.00  0.00    +0.000 A 
ATOM     23  N   UNL     1       7.361   7.810   1.045  0.00  0.00    +0.000 NA
ATOM     24  C   UNL     1       7.660   6.569   0.601  0.00  0.00    +0.000 A 
ATOM     25  C   UNL     1       7.155   5.399   1.154  0.00  0.00    +0.000 A 
ENDBRANCH  19  20
ENDBRANCH  17  19
ENDBRANCH   3  17
TORSDOF 5
