REMARK  Name = 
REMARK  10 active torsions:
REMARK  status: ('A' for Active; 'I' for Inactive)
REMARK    1  A    between atoms: C_1  and  C_2
REMARK    2  A    between atoms: C_2  and  C_3
REMARK    3  A    between atoms: C_3  and  N_4
REMARK    4  A    between atoms: C_3  and  C_27
REMARK    5  A    between atoms: N_4  and  C_5
REMARK    6  A    between atoms: C_5  and  C_6
REMARK    7  A    between atoms: C_9  and  C_10
REMARK    8  A    between atoms: C_10  and  N_11
REMARK    9  A    between atoms: C_12  and  C_14
REMARK   10  A    between atoms: N_20  and  C_21
REMARK                            x       y       z     vdW  Elec       q    Type
REMARK                         _______ _______ _______ _____ _____    ______ ____
ROOT
ATOM      1  C   UNL     1       0.465   1.482  -3.466  0.00  0.00    +0.000 C 
ATOM      2  C   UNL     1       1.046   2.850  -3.086  0.00  0.00    +0.000 C 
ATOM      3  C   UNL     1       0.635   3.937  -4.071  0.00  0.00    +0.000 C 
ATOM      4  C   UNL     1      -0.895   4.062  -4.170  0.00  0.00    +0.000 C 
ATOM      5  C   UNL     1      -1.576   2.713  -4.434  0.00  0.00    +0.000 C 
ATOM      6  C   UNL     1      -1.069   1.587  -3.537  0.00  0.00    +0.000 C 
ENDROOT
BRANCH   1   7
ATOM      7  C   UNL     1       1.076   0.875  -4.756  0.00  0.00    +0.000 C 
BRANCH   7   8
ATOM      8  N   UNL     1       2.499   0.597  -4.559  0.00  0.00    +0.000 NA
ATOM      9  H   UNL     1       2.957   1.478  -4.314  0.00  0.00    +0.000 HD
BRANCH   8  10
ATOM     10  C   UNL     1       3.252   0.073  -5.717  0.00  0.00    +0.000 C 
BRANCH  10  11
ATOM     11  C   UNL     1       4.750   0.057  -5.352  0.00  0.00    +0.000 A 
ATOM     12  C   UNL     1       5.224  -0.777  -4.334  0.00  0.00    +0.000 A 
ATOM     13  N   UNL     1       6.531  -0.838  -3.966  0.00  0.00    +0.000 NA
ATOM     14  C   UNL     1       7.352  -0.007  -4.633  0.00  0.00    +0.000 A 
ATOM     15  C   UNL     1       6.896   0.837  -5.638  0.00  0.00    +0.000 A 
ATOM     16  N   UNL     1       5.594   0.892  -6.014  0.00  0.00    +0.000 NA
ENDBRANCH  10  11
BRANCH  10  18
ATOM     17  C   UNL     1       1.482  -1.503  -6.822  0.00  0.00    +0.000 C 
ATOM     18  C   UNL     1       2.874  -1.339  -6.232  0.00  0.00    +0.000 C 
ENDBRANCH  10  18
ENDBRANCH   8  10
ENDBRANCH   7   8
ENDBRANCH   1   7
BRANCH   4  19
ATOM     19  C   UNL     1      -1.298   5.042  -5.276  0.00  0.00    +0.000 C 
BRANCH  19  20
ATOM     20  N   UNL     1      -0.730   6.348  -5.060  0.00  0.00    +0.000 N 
ATOM     21  C   UNL     1      -1.368   7.364  -4.405  0.00  0.00    +0.000 C 
ATOM     22  O   UNL     1      -2.454   7.229  -3.852  0.00  0.00    +0.000 OA
ATOM     23  H   UNL     1       0.134   6.538  -5.547  0.00  0.00    +0.000 HD
BRANCH  21  24
ATOM     24  C   UNL     1      -0.620   8.621  -4.355  0.00  0.00    +0.000 A 
ATOM     25  C   UNL     1      -0.787   9.503  -3.301  0.00  0.00    +0.000 A 
ATOM     26  S   UNL     1       0.245  10.861  -3.392  0.00  0.00    +0.000 S 
ATOM     27  C   UNL     1       0.909  10.332  -4.868  0.00  0.00    +0.000 A 
ATOM     28  N   UNL     1       1.881  11.038  -5.500  0.00  0.00    +0.000 NA
ATOM     29  C   UNL     1       2.287  10.519  -6.611  0.00  0.00    +0.000 A 
ATOM     30  N   UNL     1       1.806   9.357  -7.176  0.00  0.00    +0.000 N 
ATOM     31  C   UNL     1       2.348   8.843  -8.416  0.00  0.00    +0.000 C 
ATOM     32  C   UNL     1       0.807   8.614  -6.561  0.00  0.00    +0.000 A 
ATOM     33  O   UNL     1       0.381   7.565  -7.040  0.00  0.00    +0.000 OA
ATOM     34  C   UNL     1       0.347   9.146  -5.291  0.00  0.00    +0.000 A 
ENDBRANCH  21  24
ENDBRANCH  19  20
ENDBRANCH   4  19
TORSDOF 8
