REMARK  Name = 
REMARK  5 active torsions:
REMARK  status: ('A' for Active; 'I' for Inactive)
REMARK    1  A    between atoms: N_1  and  C_2
REMARK    2  A    between atoms: C_2  and  C_3
REMARK    3  A    between atoms: C_10  and  C_11
REMARK    4  A    between atoms: N_15  and  C_16
REMARK    5  A    between atoms: C_16  and  C_17
REMARK                            x       y       z     vdW  Elec       q    Type
REMARK                         _______ _______ _______ _____ _____    ______ ____
ROOT
ATOM      1  C   UNL     1       3.475   3.057   5.247  0.00  0.00    +0.000 C 
ATOM      2  C   UNL     1       3.335   2.429   3.897  0.00  0.00    +0.000 C 
ATOM      3  N   UNL     1       3.168   1.170   3.611  0.00  0.00    +0.000 NA
ATOM      4  C   UNL     1       3.192   0.254   4.643  0.00  0.00    +0.000 C 
ATOM      5  C   UNL     1       3.441   0.811   5.993  0.00  0.00    +0.000 C 
ATOM      6  C   UNL     1       3.324   2.221   6.285  0.00  0.00    +0.000 C 
ATOM      7  C   UNL     1       4.170   0.085   6.864  0.00  0.00    +0.000 C 
ATOM      8  C   UNL     1       5.018  -0.973   6.317  0.00  0.00    +0.000 C 
ATOM      9  C   UNL     1       4.616  -1.550   5.167  0.00  0.00    +0.000 C 
ATOM     10  N   UNL     1       3.430  -1.151   4.506  0.00  0.00    +0.000 N 
ENDROOT
BRANCH   8  11
ATOM     11  C   UNL     1       6.364  -1.130   6.939  0.00  0.00    +0.000 C 
ATOM     12  N   UNL     1       7.213  -2.043   6.414  0.00  0.00    +0.000 N 
ATOM     13  O   UNL     1       6.724  -0.423   7.877  0.00  0.00    +0.000 OA
ATOM     14  H   UNL     1       7.028  -2.587   5.586  0.00  0.00    +0.000 HD
ATOM     15  H   UNL     1       8.147  -2.054   6.802  0.00  0.00    +0.000 HD
ENDBRANCH   8  11
BRANCH   1  16
ATOM     16  C   UNL     1       3.986   4.454   5.390  0.00  0.00    +0.000 C 
BRANCH  16  17
ATOM     17  N   UNL     1       3.009   5.465   5.027  0.00  0.00    +0.000 NA
ATOM     18  H   UNL     1       3.437   6.382   5.157  0.00  0.00    +0.000 HD
ATOM     19  H   UNL     1       2.239   5.431   5.693  0.00  0.00    +0.000 HD
ENDBRANCH  16  17
ENDBRANCH   1  16
BRANCH  10  20
ATOM     20  C   UNL     1       2.231  -1.990   4.834  0.00  0.00    +0.000 C 
BRANCH  20  21
ATOM     21  C   UNL     1       2.361  -3.471   4.539  0.00  0.00    +0.000 A 
ATOM     22  C   UNL     1       1.939  -4.434   5.471  0.00  0.00    +0.000 A 
ATOM     23  C   UNL     1       1.904  -5.787   5.120  0.00  0.00    +0.000 A 
ATOM     24  C   UNL     1       2.301  -6.137   3.846  0.00  0.00    +0.000 A 
ATOM     25  N   UNL     1       2.753  -5.248   2.929  0.00  0.00    +0.000 NA
ATOM     26  C   UNL     1       2.765  -3.942   3.297  0.00  0.00    +0.000 A 
ENDBRANCH  20  21
ENDBRANCH  10  20
TORSDOF 5
