REMARK  Name = 
REMARK  5 active torsions:
REMARK  status: ('A' for Active; 'I' for Inactive)
REMARK    1  A    between atoms: C_2  and  C_3
REMARK    2  A    between atoms: C_6  and  N_7
REMARK    3  A    between atoms: N_7  and  C_8
REMARK    4  A    between atoms: C_8  and  C_9
REMARK    5  A    between atoms: C_13  and  C_14
REMARK                            x       y       z     vdW  Elec       q    Type
REMARK                         _______ _______ _______ _____ _____    ______ ____
ROOT
ATOM      1  C   UNL     1       8.604  -0.905  -0.816  0.00  0.00    +0.000 C 
ATOM      2  C   UNL     1       7.754  -1.178   0.424  0.00  0.00    +0.000 C 
ATOM      3  C   UNL     1       7.151  -0.472  -0.743  0.00  0.00    +0.000 C 
ENDROOT
BRANCH   1   4
ATOM      4  C   UNL     1       9.639   0.211  -0.708  0.00  0.00    +0.000 A 
ATOM      5  C   UNL     1       9.673   1.248  -1.651  0.00  0.00    +0.000 A 
ATOM      6  C   UNL     1      10.443   2.387  -1.440  0.00  0.00    +0.000 A 
ATOM      7  C   UNL     1      11.226   2.495  -0.292  0.00  0.00    +0.000 A 
ATOM      8  C   UNL     1      11.294   1.454   0.648  0.00  0.00    +0.000 A 
ATOM      9  C   UNL     1      10.499   0.317   0.406  0.00  0.00    +0.000 A 
BRANCH   8  10
ATOM     10  C   UNL     1      12.143   1.565   1.858  0.00  0.00    +0.000 A 
ATOM     11  C   UNL     1      12.323   2.799   2.517  0.00  0.00    +0.000 A 
ATOM     12  C   UNL     1      13.150   2.921   3.639  0.00  0.00    +0.000 A 
ATOM     13  C   UNL     1      13.805   1.802   4.141  0.00  0.00    +0.000 A 
ATOM     14  C   UNL     1      13.624   0.576   3.518  0.00  0.00    +0.000 A 
ATOM     15  F   UNL     1      14.247  -0.506   4.003  0.00  0.00    +0.000 F 
ATOM     16  C   UNL     1      12.812   0.450   2.392  0.00  0.00    +0.000 A 
ENDBRANCH   8  10
ENDBRANCH   1   4
BRANCH   1  17
ATOM     17  N   UNL     1       9.029  -2.100  -1.533  0.00  0.00    +0.000 N 
ATOM     18  H   UNL     1       9.590  -2.803  -1.057  0.00  0.00    +0.000 HD
BRANCH  17  22
ATOM     19  C   UNL     1       9.070  -3.015  -5.535  0.00  0.00    +0.000 A 
ATOM     20  C   UNL     1       9.668  -3.810  -4.577  0.00  0.00    +0.000 A 
ATOM     21  N   UNL     1       9.667  -3.489  -3.255  0.00  0.00    +0.000 NA
ATOM     22  C   UNL     1       9.045  -2.344  -2.901  0.00  0.00    +0.000 A 
ATOM     23  C   UNL     1       8.450  -1.549  -3.877  0.00  0.00    +0.000 A 
ATOM     24  N   UNL     1       8.451  -1.857  -5.209  0.00  0.00    +0.000 NA
BRANCH  19  26
ATOM     25  N   UNL     1       9.090  -3.783  -8.017  0.00  0.00    +0.000 NA
ATOM     26  C   UNL     1       9.069  -3.412  -6.918  0.00  0.00    +0.000 C 
ENDBRANCH  19  26
ENDBRANCH  17  22
ENDBRANCH   1  17
TORSDOF 5
