REMARK  Name = 
REMARK  8 active torsions:
REMARK  status: ('A' for Active; 'I' for Inactive)
REMARK    1  A    between atoms: C_2  and  C_22
REMARK    2  A    between atoms: N_3  and  C_4
REMARK    3  A    between atoms: C_4  and  C_5
REMARK    4  A    between atoms: C_8  and  C_9
REMARK    5  A    between atoms: C_9  and  O_10
REMARK    6  A    between atoms: C_9  and  C_11
REMARK    7  A    between atoms: C_11  and  N_12
REMARK    8  A    between atoms: C_13  and  C_15
REMARK                            x       y       z     vdW  Elec       q    Type
REMARK                         _______ _______ _______ _____ _____    ______ ____
ROOT
ATOM      1  C   UNL     1       3.095   0.040   3.587  0.00  0.00    +0.000 A 
ATOM      2  C   UNL     1       3.524   1.271   4.099  0.00  0.00    +0.000 A 
ATOM      3  C   UNL     1       4.390   1.323   5.199  0.00  0.00    +0.000 A 
ATOM      4  C   UNL     1       4.865   0.147   5.798  0.00  0.00    +0.000 A 
ATOM      5  C   UNL     1       4.435  -1.082   5.270  0.00  0.00    +0.000 A 
ATOM      6  C   UNL     1       3.575  -1.135   4.171  0.00  0.00    +0.000 A 
ENDROOT
BRANCH   1   7
ATOM      7  C   UNL     1       2.152  -0.028   2.413  0.00  0.00    +0.000 C 
BRANCH   7  10
ATOM      8  O   UNL     1       0.969  -0.415  -0.052  0.00  0.00    +0.000 OA
ATOM      9  C   UNL     1       2.179  -0.206  -0.018  0.00  0.00    +0.000 C 
ATOM     10  N   UNL     1       2.863  -0.077   1.163  0.00  0.00    +0.000 N 
ATOM     11  H   UNL     1       3.808   0.293   1.155  0.00  0.00    +0.000 HD
BRANCH   9  12
ATOM     12  C   UNL     1       2.972  -0.120  -1.251  0.00  0.00    +0.000 A 
ATOM     13  C   UNL     1       2.506  -0.719  -2.413  0.00  0.00    +0.000 A 
ATOM     14  S   UNL     1       3.552  -0.529  -3.745  0.00  0.00    +0.000 S 
ATOM     15  C   UNL     1       4.641   0.405  -2.830  0.00  0.00    +0.000 A 
ATOM     16  N   UNL     1       5.764   0.923  -3.392  0.00  0.00    +0.000 NA
ATOM     17  C   UNL     1       6.477   1.639  -2.590  0.00  0.00    +0.000 A 
ATOM     18  N   UNL     1       6.178   1.874  -1.273  0.00  0.00    +0.000 N 
ATOM     19  C   UNL     1       5.077   1.338  -0.652  0.00  0.00    +0.000 A 
ATOM     20  O   UNL     1       4.868   1.523   0.543  0.00  0.00    +0.000 OA
ATOM     21  C   UNL     1       4.225   0.544  -1.516  0.00  0.00    +0.000 A 
ATOM     22  H   UNL     1       6.790   2.433  -0.698  0.00  0.00    +0.000 HD
ENDBRANCH   9  12
ENDBRANCH   7  10
ENDBRANCH   1   7
BRANCH   4  23
ATOM     23  C   UNL     1       5.791   0.230   7.003  0.00  0.00    +0.000 C 
BRANCH  23  24
ATOM     24  O   UNL     1       4.998   0.286   8.195  0.00  0.00    +0.000 OA
ATOM     25  H   UNL     1       4.251  -0.324   8.071  0.00  0.00    +0.000 HD
ENDBRANCH  23  24
BRANCH  23  26
ATOM     26  C   UNL     1       6.772  -0.954   7.111  0.00  0.00    +0.000 C 
BRANCH  26  27
ATOM     27  N   UNL     1       7.702  -0.865   8.218  0.00  0.00    +0.000 N 
ATOM     28  C   UNL     1       8.599  -1.884   8.454  0.00  0.00    +0.000 C 
ATOM     29  O   UNL     1       8.708  -2.862   7.716  0.00  0.00    +0.000 OA
ATOM     30  H   UNL     1       7.532  -0.223   8.990  0.00  0.00    +0.000 HD
BRANCH  28  31
ATOM     31  C   UNL     1       9.419  -1.743   9.738  0.00  0.00    +0.000 C 
ATOM     32  C   UNL     1       8.804  -2.476  10.913  0.00  0.00    +0.000 C 
ATOM     33  C   UNL     1       9.482  -1.820  12.103  0.00  0.00    +0.000 C 
ATOM     34  C   UNL     1       9.798  -0.403  11.639  0.00  0.00    +0.000 C 
ATOM     35  N   UNL     1       9.440  -0.341  10.222  0.00  0.00    +0.000 NA
ATOM     36  H   UNL     1      10.132   0.190   9.693  0.00  0.00    +0.000 HD
ENDBRANCH  28  31
ENDBRANCH  26  27
ENDBRANCH  23  26
ENDBRANCH   4  23
TORSDOF 8
