REMARK  Name = 
REMARK  7 active torsions:
REMARK  status: ('A' for Active; 'I' for Inactive)
REMARK    1  A    between atoms: C_2  and  C_20
REMARK    2  A    between atoms: N_3  and  C_4
REMARK    3  A    between atoms: C_4  and  C_5
REMARK    4  A    between atoms: C_8  and  C_9
REMARK    5  A    between atoms: C_9  and  N_10
REMARK    6  A    between atoms: N_10  and  C_11
REMARK    7  A    between atoms: C_11  and  C_12
REMARK                            x       y       z     vdW  Elec       q    Type
REMARK                         _______ _______ _______ _____ _____    ______ ____
ROOT
ATOM      1  C   UNL     1       4.603   1.986   2.401  0.00  0.00    +0.000 C 
ENDROOT
BRANCH   1   2
ATOM      2  C   UNL     1       3.212   1.928   3.056  0.00  0.00    +0.000 C 
ATOM      3  C   UNL     1       3.195   1.040   4.314  0.00  0.00    +0.000 C 
ATOM      4  C   UNL     1       3.978   1.658   5.470  0.00  0.00    +0.000 C 
ATOM      5  C   UNL     1       3.491   3.078   5.807  0.00  0.00    +0.000 C 
ATOM      6  C   UNL     1       3.484   3.968   4.555  0.00  0.00    +0.000 C 
ATOM      7  C   UNL     1       2.723   3.346   3.388  0.00  0.00    +0.000 C 
BRANCH   5   8
ATOM      8  C   UNL     1       2.107   3.086   6.503  0.00  0.00    +0.000 C 
BRANCH   8   9
ATOM      9  N   UNL     1       2.043   2.338   7.762  0.00  0.00    +0.000 NA
ATOM     10  H   UNL     1       2.260   1.356   7.600  0.00  0.00    +0.000 HD
BRANCH   9  11
ATOM     11  C   UNL     1       2.948   2.878   8.772  0.00  0.00    +0.000 C 
BRANCH  11  12
ATOM     12  C   UNL     1       2.955   2.035  10.018  0.00  0.00    +0.000 A 
ATOM     13  C   UNL     1       4.143   1.456  10.473  0.00  0.00    +0.000 A 
ATOM     14  C   UNL     1       4.113   0.710  11.641  0.00  0.00    +0.000 A 
ATOM     15  N   UNL     1       2.999   0.506  12.371  0.00  0.00    +0.000 NA
ATOM     16  C   UNL     1       1.860   1.072  11.912  0.00  0.00    +0.000 A 
ATOM     17  C   UNL     1       1.788   1.837  10.759  0.00  0.00    +0.000 A 
ENDBRANCH  11  12
ENDBRANCH   9  11
ENDBRANCH   8   9
ENDBRANCH   5   8
ENDBRANCH   1   2
BRANCH   1  20
ATOM     18  O   UNL     1       3.979   0.678  -0.020  0.00  0.00    +0.000 OA
ATOM     19  C   UNL     1       4.726   0.126   0.780  0.00  0.00    +0.000 C 
ATOM     20  N   UNL     1       5.060   0.685   1.984  0.00  0.00    +0.000 N 
ATOM     21  H   UNL     1       5.712   0.211   2.599  0.00  0.00    +0.000 HD
BRANCH  19  22
ATOM     22  C   UNL     1       5.295  -1.199   0.519  0.00  0.00    +0.000 A 
ATOM     23  C   UNL     1       4.681  -2.045  -0.395  0.00  0.00    +0.000 A 
ATOM     24  S   UNL     1       5.488  -3.533  -0.590  0.00  0.00    +0.000 S 
ATOM     25  C   UNL     1       6.706  -3.083   0.510  0.00  0.00    +0.000 A 
ATOM     26  N   UNL     1       7.752  -3.910   0.775  0.00  0.00    +0.000 NA
ATOM     27  C   UNL     1       8.623  -3.427   1.596  0.00  0.00    +0.000 A 
ATOM     28  N   UNL     1       8.534  -2.198   2.193  0.00  0.00    +0.000 N 
ATOM     29  C   UNL     1       7.454  -1.364   2.024  0.00  0.00    +0.000 A 
ATOM     30  O   UNL     1       7.336  -0.346   2.696  0.00  0.00    +0.000 OA
ATOM     31  C   UNL     1       6.478  -1.832   1.054  0.00  0.00    +0.000 A 
ATOM     32  H   UNL     1       9.227  -1.894   2.860  0.00  0.00    +0.000 HD
ENDBRANCH  19  22
ENDBRANCH   1  20
TORSDOF 7
