REMARK  Name = 
REMARK  7 active torsions:
REMARK  status: ('A' for Active; 'I' for Inactive)
REMARK    1  A    between atoms: C_2  and  C_20
REMARK    2  A    between atoms: N_3  and  C_4
REMARK    3  A    between atoms: C_4  and  C_5
REMARK    4  A    between atoms: C_8  and  C_9
REMARK    5  A    between atoms: C_9  and  N_10
REMARK    6  A    between atoms: N_10  and  C_11
REMARK    7  A    between atoms: C_11  and  C_12
REMARK                            x       y       z     vdW  Elec       q    Type
REMARK                         _______ _______ _______ _____ _____    ______ ____
ROOT
ATOM      1  C   UNL     1       3.130  -3.373   1.209  0.00  0.00    +0.000 A 
ATOM      2  C   UNL     1       4.359  -3.092   1.813  0.00  0.00    +0.000 A 
ATOM      3  C   UNL     1       5.211  -4.127   2.210  0.00  0.00    +0.000 A 
ATOM      4  C   UNL     1       4.852  -5.472   2.032  0.00  0.00    +0.000 A 
ATOM      5  C   UNL     1       3.639  -5.750   1.385  0.00  0.00    +0.000 A 
ATOM      6  C   UNL     1       2.790  -4.712   0.973  0.00  0.00    +0.000 A 
ENDROOT
BRANCH   1   7
ATOM      7  C   UNL     1       2.205  -2.248   0.822  0.00  0.00    +0.000 C 
BRANCH   7  10
ATOM      8  O   UNL     1       3.776   0.020   0.201  0.00  0.00    +0.000 OA
ATOM      9  C   UNL     1       3.298  -0.644  -0.710  0.00  0.00    +0.000 C 
ATOM     10  N   UNL     1       2.495  -1.734  -0.492  0.00  0.00    +0.000 N 
ATOM     11  H   UNL     1       2.247  -2.335  -1.268  0.00  0.00    +0.000 HD
BRANCH   9  12
ATOM     12  C   UNL     1       3.510  -0.276  -2.118  0.00  0.00    +0.000 A 
ATOM     13  C   UNL     1       3.844   1.028  -2.452  0.00  0.00    +0.000 A 
ATOM     14  S   UNL     1       4.074   1.266  -4.127  0.00  0.00    +0.000 S 
ATOM     15  C   UNL     1       3.771  -0.375  -4.457  0.00  0.00    +0.000 A 
ATOM     16  N   UNL     1       3.853  -0.862  -5.726  0.00  0.00    +0.000 NA
ATOM     17  C   UNL     1       3.641  -2.132  -5.827  0.00  0.00    +0.000 A 
ATOM     18  N   UNL     1       3.335  -2.957  -4.773  0.00  0.00    +0.000 N 
ATOM     19  C   UNL     1       3.146  -2.492  -3.495  0.00  0.00    +0.000 A 
ATOM     20  O   UNL     1       2.695  -3.223  -2.617  0.00  0.00    +0.000 OA
ATOM     21  C   UNL     1       3.452  -1.085  -3.313  0.00  0.00    +0.000 A 
ATOM     22  H   UNL     1       3.130  -3.933  -4.924  0.00  0.00    +0.000 HD
ENDBRANCH   9  12
ENDBRANCH   7  10
ENDBRANCH   1   7
BRANCH   4  23
ATOM     23  C   UNL     1       5.771  -6.601   2.473  0.00  0.00    +0.000 C 
BRANCH  23  24
ATOM     24  N   UNL     1       6.553  -6.222   3.651  0.00  0.00    +0.000 NA
ATOM     25  H   UNL     1       5.909  -5.979   4.398  0.00  0.00    +0.000 HD
BRANCH  24  26
ATOM     26  C   UNL     1       7.478  -7.262   4.110  0.00  0.00    +0.000 C 
BRANCH  26  27
ATOM     27  C   UNL     1       8.225  -6.763   5.372  0.00  0.00    +0.000 C 
ATOM     28  C   UNL     1       9.101  -5.521   5.120  0.00  0.00    +0.000 C 
ATOM     29  C   UNL     1      10.434  -5.854   4.452  0.00  0.00    +0.000 C 
ATOM     30  C   UNL     1      11.144  -7.028   5.122  0.00  0.00    +0.000 C 
ATOM     31  N   UNL     1      10.271  -8.197   5.241  0.00  0.00    +0.000 NA
ATOM     32  C   UNL     1       9.072  -7.873   6.016  0.00  0.00    +0.000 C 
ATOM     33  H   UNL     1      10.784  -8.940   5.716  0.00  0.00    +0.000 HD
ENDBRANCH  26  27
ENDBRANCH  24  26
ENDBRANCH  23  24
ENDBRANCH   4  23
TORSDOF 7
