REMARK  Name = 
REMARK  4 active torsions:
REMARK  status: ('A' for Active; 'I' for Inactive)
REMARK    1  A    between atoms: N_1  and  C_2
REMARK    2  A    between atoms: C_2  and  C_3
REMARK    3  A    between atoms: C_7  and  C_8
REMARK    4  A    between atoms: C_8  and  N_9
REMARK                            x       y       z     vdW  Elec       q    Type
REMARK                         _______ _______ _______ _____ _____    ______ ____
ROOT
ATOM      1  C   UNL     1       2.871   4.361  -2.052  0.00  0.00    +0.000 C 
ENDROOT
BRANCH   1   2
ATOM      2  N   UNL     1       2.335   4.791  -0.765  0.00  0.00    +0.000 N 
ATOM      3  C   UNL     1       3.108   5.157   0.310  0.00  0.00    +0.000 A 
ATOM      4  C   UNL     1       2.270   5.622   1.297  0.00  0.00    +0.000 A 
ATOM      5  C   UNL     1       0.939   5.548   0.808  0.00  0.00    +0.000 A 
ATOM      6  C   UNL     1      -0.314   5.902   1.348  0.00  0.00    +0.000 A 
ATOM      7  C   UNL     1      -1.472   5.710   0.584  0.00  0.00    +0.000 A 
ATOM      8  C   UNL     1      -1.388   5.161  -0.691  0.00  0.00    +0.000 A 
ATOM      9 CL   UNL     1      -2.828   4.943  -1.613  0.00  0.00    +0.000 Cl
ATOM     10  C   UNL     1      -0.160   4.792  -1.247  0.00  0.00    +0.000 A 
ATOM     11  C   UNL     1       0.999   5.009  -0.481  0.00  0.00    +0.000 A 
ENDBRANCH   1   2
BRANCH   1  16
ATOM     12  C   UNL     1       2.206   0.772  -2.582  0.00  0.00    +0.000 A 
ATOM     13  C   UNL     1       3.416   0.211  -2.190  0.00  0.00    +0.000 A 
ATOM     14  N   UNL     1       4.468   0.950  -1.770  0.00  0.00    +0.000 NA
ATOM     15  C   UNL     1       4.256   2.285  -1.732  0.00  0.00    +0.000 A 
ATOM     16  C   UNL     1       3.053   2.872  -2.110  0.00  0.00    +0.000 A 
ATOM     17  N   UNL     1       2.011   2.118  -2.553  0.00  0.00    +0.000 NA
BRANCH  12  18
ATOM     18  C   UNL     1       1.065  -0.095  -3.056  0.00  0.00    +0.000 C 
BRANCH  18  19
ATOM     19  N   UNL     1       0.606  -1.043  -2.039  0.00  0.00    +0.000 NA
ATOM     20  H   UNL     1      -0.239  -1.501  -2.381  0.00  0.00    +0.000 HD
ATOM     21  H   UNL     1       0.313  -0.511  -1.217  0.00  0.00    +0.000 HD
ENDBRANCH  18  19
ENDBRANCH  12  18
ENDBRANCH   1  16
TORSDOF 4
