REMARK  Name = 
REMARK  6 active torsions:
REMARK  status: ('A' for Active; 'I' for Inactive)
REMARK    1  A    between atoms: C_2  and  C_4
REMARK    2  A    between atoms: C_7  and  O_8
REMARK    3  A    between atoms: O_8  and  C_9
REMARK    4  A    between atoms: C_9  and  C_10
REMARK    5  A    between atoms: C_14  and  N_15
REMARK    6  A    between atoms: C_19  and  O_20
REMARK                            x       y       z     vdW  Elec       q    Type
REMARK                         _______ _______ _______ _____ _____    ______ ____
ROOT
ATOM      1  C   UNL     1       5.877   4.150   5.791  0.00  0.00    +0.000 A 
ATOM      2  C   UNL     1       6.889   3.643   6.598  0.00  0.00    +0.000 A 
ATOM      3  N   UNL     1       7.690   4.407   7.369  0.00  0.00    +0.000 NA
ATOM      4  C   UNL     1       7.460   5.743   7.347  0.00  0.00    +0.000 A 
ATOM      5  C   UNL     1       6.476   6.382   6.590  0.00  0.00    +0.000 A 
ATOM      6  C   UNL     1       5.686   5.541   5.799  0.00  0.00    +0.000 A 
ENDROOT
BRANCH   5   7
ATOM      7  N   UNL     1       6.199   7.753   6.632  0.00  0.00    +0.000 N 
ATOM      8  C   UNL     1       6.575   8.484   7.849  0.00  0.00    +0.000 C 
ATOM      9  C   UNL     1       5.773   9.784   7.913  0.00  0.00    +0.000 C 
ATOM     10  C   UNL     1       5.982  10.627   6.658  0.00  0.00    +0.000 C 
ATOM     11  C   UNL     1       5.672   9.819   5.394  0.00  0.00    +0.000 C 
ATOM     12  C   UNL     1       6.456   8.490   5.382  0.00  0.00    +0.000 C 
BRANCH  11  13
ATOM     13  O   UNL     1       5.960  10.605   4.239  0.00  0.00    +0.000 OA
ATOM     14  H   UNL     1       6.874  10.928   4.307  0.00  0.00    +0.000 HD
ENDBRANCH  11  13
ENDBRANCH   5   7
BRANCH   1  15
ATOM     15  C   UNL     1       4.946   3.253   5.021  0.00  0.00    +0.000 C 
BRANCH  15  16
ATOM     16  O   UNL     1       5.611   2.064   4.599  0.00  0.00    +0.000 OA
BRANCH  16  20
ATOM     17  C   UNL     1       3.534  -0.853   2.450  0.00  0.00    +0.000 A 
ATOM     18  C   UNL     1       2.858   0.314   2.820  0.00  0.00    +0.000 A 
ATOM     19  C   UNL     1       3.522   1.315   3.539  0.00  0.00    +0.000 A 
ATOM     20  C   UNL     1       4.864   1.160   3.891  0.00  0.00    +0.000 A 
ATOM     21  C   UNL     1       5.538  -0.004   3.514  0.00  0.00    +0.000 A 
ATOM     22  C   UNL     1       4.879  -1.011   2.800  0.00  0.00    +0.000 A 
BRANCH  17  24
ATOM     23  N   UNL     1       1.772  -1.619   0.950  0.00  0.00    +0.000 N 
ATOM     24  C   UNL     1       2.841  -1.954   1.735  0.00  0.00    +0.000 C 
ATOM     25  O   UNL     1       3.216  -3.118   1.827  0.00  0.00    +0.000 OA
ATOM     26  H   UNL     1       1.352  -2.368   0.417  0.00  0.00    +0.000 HD
ATOM     27  H   UNL     1       1.587  -0.672   0.657  0.00  0.00    +0.000 HD
ENDBRANCH  17  24
ENDBRANCH  16  20
ENDBRANCH  15  16
ENDBRANCH   1  15
TORSDOF 6
