REMARK  Name = 
REMARK  10 active torsions:
REMARK  status: ('A' for Active; 'I' for Inactive)
REMARK    1  A    between atoms: C_1  and  C_2
REMARK    2  A    between atoms: C_2  and  C_3
REMARK    3  A    between atoms: C_2  and  N_4
REMARK    4  A    between atoms: C_5  and  C_7
REMARK    5  A    between atoms: C_10  and  O_11
REMARK    6  A    between atoms: O_11  and  C_12
REMARK    7  A    between atoms: C_12  and  C_13
REMARK    8  A    between atoms: C_13  and  C_14
REMARK    9  A    between atoms: C_13  and  C_15
REMARK   10  A    between atoms: C_13  and  C_16
REMARK                            x       y       z     vdW  Elec       q    Type
REMARK                         _______ _______ _______ _____ _____    ______ ____
ROOT
ATOM      1  C   UNL     1       4.900   3.043  -0.577  0.00  0.00    +0.000 A 
ATOM      2  N   UNL     1       5.906   3.102  -1.482  0.00  0.00    +0.000 NA
ATOM      3  C   UNL     1       6.356   4.345  -1.763  0.00  0.00    +0.000 A 
ATOM      4  C   UNL     1       5.863   5.505  -1.193  0.00  0.00    +0.000 A 
ATOM      5  C   UNL     1       4.834   5.311  -0.294  0.00  0.00    +0.000 A 
ATOM      6  N   UNL     1       4.333   4.102   0.034  0.00  0.00    +0.000 NA
ENDROOT
BRANCH   1   8
ATOM      7  N   UNL     1       5.111   0.606  -0.778  0.00  0.00    +0.000 N 
ATOM      8  C   UNL     1       4.422   1.662  -0.191  0.00  0.00    +0.000 C 
ATOM      9  O   UNL     1       3.498   1.491   0.603  0.00  0.00    +0.000 OA
ATOM     10  H   UNL     1       5.791   0.843  -1.494  0.00  0.00    +0.000 HD
BRANCH   7  12
ATOM     11  C   UNL     1       3.675  -1.284  -1.428  0.00  0.00    +0.000 C 
ATOM     12  C   UNL     1       4.774  -0.781  -0.497  0.00  0.00    +0.000 C 
ATOM     13  C   UNL     1       6.008  -1.671  -0.599  0.00  0.00    +0.000 C 
ENDBRANCH   7  12
ENDBRANCH   1   8
BRANCH   4  14
ATOM     14  O   UNL     1       6.277   6.784  -1.417  0.00  0.00    +0.000 OA
BRANCH  14  15
ATOM     15  C   UNL     1       7.366   6.928  -2.337  0.00  0.00    +0.000 C 
BRANCH  15  16
ATOM     16  C   UNL     1       7.789   8.415  -2.528  0.00  0.00    +0.000 C 
ATOM     17  C   UNL     1       6.568   9.200  -3.059  0.00  0.00    +0.000 C 
ATOM     18  C   UNL     1       8.189   8.992  -1.151  0.00  0.00    +0.000 C 
BRANCH  16  19
ATOM     19  C   UNL     1       8.970   8.562  -3.504  0.00  0.00    +0.000 A 
ATOM     20  C   UNL     1       9.500   9.823  -3.818  0.00  0.00    +0.000 A 
ATOM     21  C   UNL     1      10.578   9.945  -4.693  0.00  0.00    +0.000 A 
ATOM     22  C   UNL     1      11.110   8.795  -5.244  0.00  0.00    +0.000 A 
ATOM     23  N   UNL     1      10.640   7.562  -4.979  0.00  0.00    +0.000 NA
ATOM     24  C   UNL     1       9.594   7.476  -4.125  0.00  0.00    +0.000 A 
ENDBRANCH  16  19
ENDBRANCH  15  16
ENDBRANCH  14  15
ENDBRANCH   4  14
TORSDOF 6
