REMARK  Name = 
REMARK  5 active torsions:
REMARK  status: ('A' for Active; 'I' for Inactive)
REMARK    1  A    between atoms: C_2  and  C_4
REMARK    2  A    between atoms: C_7  and  O_8
REMARK    3  A    between atoms: O_8  and  C_9
REMARK    4  A    between atoms: C_9  and  C_10
REMARK    5  A    between atoms: C_15  and  C_16
REMARK                            x       y       z     vdW  Elec       q    Type
REMARK                         _______ _______ _______ _____ _____    ______ ____
ROOT
ATOM      1  C   UNL     1       5.189  -5.346  -2.431  0.00  0.00    +0.000 C 
ATOM      2  C   UNL     1       5.288  -5.135  -3.936  0.00  0.00    +0.000 C 
ATOM      3  C   UNL     1       3.964  -5.445  -3.319  0.00  0.00    +0.000 C 
ENDROOT
BRANCH   1   4
ATOM      4  C   UNL     1       5.787  -6.607  -1.825  0.00  0.00    +0.000 A 
ATOM      5  C   UNL     1       7.171  -6.780  -1.702  0.00  0.00    +0.000 A 
ATOM      6  C   UNL     1       7.697  -7.915  -1.084  0.00  0.00    +0.000 A 
ATOM      7  C   UNL     1       6.844  -8.895  -0.576  0.00  0.00    +0.000 A 
ATOM      8  F   UNL     1       7.411  -9.943   0.041  0.00  0.00    +0.000 F 
ATOM      9  C   UNL     1       5.450  -8.793  -0.677  0.00  0.00    +0.000 A 
ATOM     10  C   UNL     1       4.960  -7.632  -1.315  0.00  0.00    +0.000 A 
BRANCH   9  11
ATOM     11  C   UNL     1       4.518  -9.817  -0.144  0.00  0.00    +0.000 A 
ATOM     12  C   UNL     1       3.226  -9.488   0.304  0.00  0.00    +0.000 A 
ATOM     13  C   UNL     1       2.355 -10.469   0.779  0.00  0.00    +0.000 A 
ATOM     14  C   UNL     1       2.797 -11.778   0.814  0.00  0.00    +0.000 A 
ATOM     15  N   UNL     1       4.022 -12.155   0.402  0.00  0.00    +0.000 NA
ATOM     16  C   UNL     1       4.843 -11.174  -0.061  0.00  0.00    +0.000 A 
ENDBRANCH   9  11
ENDBRANCH   1   4
BRANCH   1  17
ATOM     17  O   UNL     1       5.438  -4.100  -1.739  0.00  0.00    +0.000 OA
BRANCH  17  21
ATOM     18  C   UNL     1       3.418  -3.197   1.729  0.00  0.00    +0.000 A 
ATOM     19  C   UNL     1       4.425  -2.354   1.266  0.00  0.00    +0.000 A 
ATOM     20  C   UNL     1       5.095  -2.689   0.093  0.00  0.00    +0.000 A 
ATOM     21  C   UNL     1       4.734  -3.857  -0.575  0.00  0.00    +0.000 A 
ATOM     22  N   UNL     1       3.764  -4.694  -0.156  0.00  0.00    +0.000 NA
ATOM     23  C   UNL     1       3.140  -4.354   1.000  0.00  0.00    +0.000 A 
BRANCH  18  25
ATOM     24  N   UNL     1       2.555  -1.629   3.382  0.00  0.00    +0.000 N 
ATOM     25  C   UNL     1       2.657  -2.929   2.970  0.00  0.00    +0.000 C 
ATOM     26  O   UNL     1       2.110  -3.833   3.587  0.00  0.00    +0.000 OA
ATOM     27  H   UNL     1       1.959  -1.457   4.182  0.00  0.00    +0.000 HD
ATOM     28  H   UNL     1       2.772  -0.841   2.787  0.00  0.00    +0.000 HD
ENDBRANCH  18  25
ENDBRANCH  17  21
ENDBRANCH   1  17
TORSDOF 5
