REMARK  Name = 
REMARK  9 active torsions:
REMARK  status: ('A' for Active; 'I' for Inactive)
REMARK    1  A    between atoms: C_1  and  C_2
REMARK    2  A    between atoms: C_2  and  N_3
REMARK    3  A    between atoms: C_2  and  C_19
REMARK    4  A    between atoms: N_3  and  C_4
REMARK    5  A    between atoms: C_4  and  C_5
REMARK    6  A    between atoms: C_8  and  C_9
REMARK    7  A    between atoms: C_9  and  O_10
REMARK    8  A    between atoms: C_9  and  C_11
REMARK    9  A    between atoms: C_11  and  N_12
REMARK                            x       y       z     vdW  Elec       q    Type
REMARK                         _______ _______ _______ _____ _____    ______ ____
ROOT
ATOM      1  C   UNL     1      -0.241  -9.398  -5.481  0.00  0.00    +0.000 C 
ENDROOT
BRANCH   1   2
ATOM      2  C   UNL     1       0.849  -8.732  -4.669  0.00  0.00    +0.000 A 
ATOM      3  C   UNL     1       1.566  -7.635  -5.162  0.00  0.00    +0.000 A 
ATOM      4  C   UNL     1       2.608  -7.071  -4.415  0.00  0.00    +0.000 A 
ATOM      5  C   UNL     1       2.946  -7.578  -3.151  0.00  0.00    +0.000 A 
ATOM      6  C   UNL     1       2.173  -8.625  -2.626  0.00  0.00    +0.000 A 
ATOM      7  C   UNL     1       1.148  -9.201  -3.382  0.00  0.00    +0.000 A 
BRANCH   5   8
ATOM      8  C   UNL     1       4.191  -7.076  -2.432  0.00  0.00    +0.000 C 
BRANCH   8   9
ATOM      9  O   UNL     1       5.113  -8.166  -2.314  0.00  0.00    +0.000 OA
ATOM     10  H   UNL     1       4.618  -8.999  -2.380  0.00  0.00    +0.000 HD
ENDBRANCH   8   9
BRANCH   8  11
ATOM     11  C   UNL     1       3.900  -6.435  -1.043  0.00  0.00    +0.000 C 
BRANCH  11  12
ATOM     12  N   UNL     1       5.010  -5.922  -0.208  0.00  0.00    +0.000 NA
ATOM     13  C   UNL     1       5.815  -4.870  -0.834  0.00  0.00    +0.000 C 
ATOM     14  C   UNL     1       7.012  -5.567  -1.447  0.00  0.00    +0.000 C 
ATOM     15  C   UNL     1       7.269  -6.733  -0.512  0.00  0.00    +0.000 C 
ATOM     16  C   UNL     1       5.955  -6.957   0.232  0.00  0.00    +0.000 C 
ENDBRANCH  11  12
ENDBRANCH   8  11
ENDBRANCH   5   8
ENDBRANCH   1   2
BRANCH   1  17
ATOM     17  N   UNL     1       0.271 -10.025  -6.707  0.00  0.00    +0.000 NA
ATOM     18  H   UNL     1       0.656  -9.292  -7.300  0.00  0.00    +0.000 HD
BRANCH  17  20
ATOM     19  C   UNL     1      -1.366 -11.914  -6.694  0.00  0.00    +0.000 C 
ATOM     20  C   UNL     1      -0.796 -10.711  -7.459  0.00  0.00    +0.000 C 
BRANCH  20  21
ATOM     21  C   UNL     1      -0.251 -11.194  -8.796  0.00  0.00    +0.000 A 
ATOM     22  C   UNL     1       1.046 -11.616  -9.043  0.00  0.00    +0.000 A 
ATOM     23  S   UNL     1       1.267 -12.224 -10.627  0.00  0.00    +0.000 S 
ATOM     24  C   UNL     1      -0.369 -11.967 -11.023  0.00  0.00    +0.000 A 
ATOM     25  N   UNL     1      -0.877 -12.341 -12.230  0.00  0.00    +0.000 NA
ATOM     26  C   UNL     1      -2.145 -12.113 -12.364  0.00  0.00    +0.000 A 
ATOM     27  N   UNL     1      -2.941 -11.524 -11.419  0.00  0.00    +0.000 N 
ATOM     28  C   UNL     1      -2.469 -11.102 -10.198  0.00  0.00    +0.000 A 
ATOM     29  O   UNL     1      -3.200 -10.547  -9.385  0.00  0.00    +0.000 OA
ATOM     30  C   UNL     1      -1.059 -11.379  -9.981  0.00  0.00    +0.000 A 
ATOM     31  H   UNL     1      -3.917 -11.351 -11.601  0.00  0.00    +0.000 HD
ENDBRANCH  20  21
ENDBRANCH  17  20
ENDBRANCH   1  17
TORSDOF 8
