REMARK  Name = 
REMARK  4 active torsions:
REMARK  status: ('A' for Active; 'I' for Inactive)
REMARK    1  A    between atoms: C_2  and  C_5
REMARK    2  A    between atoms: N_9  and  C_10
REMARK    3  A    between atoms: C_10  and  C_11
REMARK    4  A    between atoms: C_15  and  N_16
REMARK                            x       y       z     vdW  Elec       q    Type
REMARK                         _______ _______ _______ _____ _____    ______ ____
ROOT
ATOM      1  C   UNL     1       3.425   6.316   0.173  0.00  0.00    +0.000 C 
ENDROOT
BRANCH   1   6
ATOM      2  C   UNL     1       1.314   2.440  -1.864  0.00  0.00    +0.000 A 
ATOM      3  C   UNL     1       1.115   3.151  -0.710  0.00  0.00    +0.000 A 
ATOM      4  N   UNL     1       1.672   4.354  -0.476  0.00  0.00    +0.000 NA
ATOM      5  C   UNL     1       2.458   4.876  -1.430  0.00  0.00    +0.000 A 
ATOM      6  N   UNL     1       3.080   6.098  -1.220  0.00  0.00    +0.000 N 
ATOM      7  N   UNL     1       2.705   4.260  -2.594  0.00  0.00    +0.000 NA
ATOM      8  C   UNL     1       2.121   3.057  -2.791  0.00  0.00    +0.000 A 
ATOM      9  H   UNL     1       3.856   6.158  -1.869  0.00  0.00    +0.000 HD
BRANCH   2  11
ATOM     10  F   UNL     1      -0.005   0.647  -1.028  0.00  0.00    +0.000 F 
ATOM     11  C   UNL     1       0.716   1.102  -2.090  0.00  0.00    +0.000 C 
ATOM     12  F   UNL     1       1.654   0.148  -2.336  0.00  0.00    +0.000 F 
ATOM     13  F   UNL     1      -0.131   1.076  -3.154  0.00  0.00    +0.000 F 
ENDBRANCH   2  11
ENDBRANCH   1   6
BRANCH   1  14
ATOM     14  C   UNL     1       4.081   7.663   0.374  0.00  0.00    +0.000 A 
ATOM     15  C   UNL     1       3.439   8.835  -0.032  0.00  0.00    +0.000 A 
ATOM     16  C   UNL     1       3.999  10.071   0.268  0.00  0.00    +0.000 A 
ATOM     17  C   UNL     1       5.199  10.144   0.984  0.00  0.00    +0.000 A 
ATOM     18  C   UNL     1       5.877   8.996   1.417  0.00  0.00    +0.000 A 
ATOM     19  C   UNL     1       5.292   7.762   1.086  0.00  0.00    +0.000 A 
BRANCH  18  20
ATOM     20  N   UNL     1       7.031   9.068   2.168  0.00  0.00    +0.000 N 
ATOM     21  C   UNL     1       8.109   8.071   2.096  0.00  0.00    +0.000 C 
ATOM     22  C   UNL     1       8.481   7.621   3.517  0.00  0.00    +0.000 C 
ATOM     23  O   UNL     1       8.852   8.741   4.341  0.00  0.00    +0.000 OA
ATOM     24  C   UNL     1       7.763   9.676   4.430  0.00  0.00    +0.000 C 
ATOM     25  C   UNL     1       7.342  10.207   3.046  0.00  0.00    +0.000 C 
ENDBRANCH  18  20
ENDBRANCH   1  14
TORSDOF 4
