REMARK  Name = 
REMARK  4 active torsions:
REMARK  status: ('A' for Active; 'I' for Inactive)
REMARK    1  A    between atoms: N_1  and  C_2
REMARK    2  A    between atoms: C_2  and  C_3
REMARK    3  A    between atoms: C_6  and  C_7
REMARK    4  A    between atoms: C_7  and  N_8
REMARK                            x       y       z     vdW  Elec       q    Type
REMARK                         _______ _______ _______ _____ _____    ______ ____
ROOT
ATOM      1  C   UNL     1       2.744   0.906  -0.974  0.00  0.00    +0.000 A 
ATOM      2  C   UNL     1       3.349   0.544  -2.191  0.00  0.00    +0.000 A 
ATOM      3  C   UNL     1       3.675   1.507  -3.150  0.00  0.00    +0.000 A 
ATOM      4  C   UNL     1       3.409   2.861  -2.918  0.00  0.00    +0.000 A 
ATOM      5  C   UNL     1       2.839   3.233  -1.692  0.00  0.00    +0.000 A 
ATOM      6  C   UNL     1       2.515   2.268  -0.729  0.00  0.00    +0.000 A 
ATOM      7 CL   UNL     1       1.830   2.825   0.758  0.00  0.00    +0.000 Cl
ENDROOT
BRANCH   1   8
ATOM      8  C   UNL     1       2.401  -0.178   0.017  0.00  0.00    +0.000 C 
BRANCH   8   9
ATOM      9  N   UNL     1       3.527  -0.476   0.892  0.00  0.00    +0.000 NA
ATOM     10  H   UNL     1       3.230  -1.151   1.594  0.00  0.00    +0.000 HD
ATOM     11  H   UNL     1       3.773   0.370   1.406  0.00  0.00    +0.000 HD
ENDBRANCH   8   9
ENDBRANCH   1   8
BRANCH   4  12
ATOM     12  C   UNL     1       3.708   3.898  -3.969  0.00  0.00    +0.000 C 
BRANCH  12  13
ATOM     13  N   UNL     1       5.032   4.483  -3.827  0.00  0.00    +0.000 N 
ATOM     14  C   UNL     1       6.190   3.977  -4.380  0.00  0.00    +0.000 A 
ATOM     15  C   UNL     1       7.195   4.910  -4.199  0.00  0.00    +0.000 A 
ATOM     16  C   UNL     1       6.627   6.012  -3.521  0.00  0.00    +0.000 A 
ATOM     17  N   UNL     1       7.186   7.195  -3.148  0.00  0.00    +0.000 NA
ATOM     18  C   UNL     1       6.303   8.018  -2.536  0.00  0.00    +0.000 A 
ATOM     19  C   UNL     1       4.974   7.695  -2.295  0.00  0.00    +0.000 A 
ATOM     20  N   UNL     1       4.395   6.526  -2.663  0.00  0.00    +0.000 NA
ATOM     21  C   UNL     1       5.286   5.717  -3.281  0.00  0.00    +0.000 A 
ENDBRANCH  12  13
ENDBRANCH   4  12
TORSDOF 4
