REMARK  Name = 
REMARK  5 active torsions:
REMARK  status: ('A' for Active; 'I' for Inactive)
REMARK    1  A    between atoms: C_1  and  C_2
REMARK    2  A    between atoms: C_2  and  N_3
REMARK    3  A    between atoms: C_2  and  C_14
REMARK    4  A    between atoms: N_3  and  C_4
REMARK    5  A    between atoms: C_7  and  C_8
REMARK                            x       y       z     vdW  Elec       q    Type
REMARK                         _______ _______ _______ _____ _____    ______ ____
ROOT
ATOM      1  C   UNL     1       2.960   0.035  -2.405  0.00  0.00    +0.000 A 
ATOM      2  N   UNL     1       2.392  -1.177  -2.544  0.00  0.00    +0.000 NA
ATOM      3  C   UNL     1       2.613  -1.873  -3.690  0.00  0.00    +0.000 A 
ATOM      4  C   UNL     1       3.342  -1.400  -4.771  0.00  0.00    +0.000 A 
ATOM      5  C   UNL     1       3.933  -0.142  -4.627  0.00  0.00    +0.000 A 
ATOM      6  C   UNL     1       3.774   0.555  -3.428  0.00  0.00    +0.000 A 
ATOM      7 CL   UNL     1       4.740   1.974  -3.193  0.00  0.00    +0.000 Cl
ENDROOT
BRANCH   4   8
ATOM      8  C   UNL     1       3.562  -2.144  -6.022  0.00  0.00    +0.000 C 
ATOM      9  N   UNL     1       3.062  -3.422  -6.145  0.00  0.00    +0.000 N 
ATOM     10  O   UNL     1       4.192  -1.652  -6.949  0.00  0.00    +0.000 OA
ATOM     11  H   UNL     1       2.595  -3.945  -5.420  0.00  0.00    +0.000 HD
ATOM     12  H   UNL     1       3.261  -3.900  -7.008  0.00  0.00    +0.000 HD
ENDBRANCH   4   8
BRANCH   1  13
ATOM     13  N   UNL     1       2.668   0.798  -1.248  0.00  0.00    +0.000 N 
ATOM     14  H   UNL     1       3.459   1.423  -1.094  0.00  0.00    +0.000 HD
BRANCH  13  16
ATOM     15  C   UNL     1       0.852  -0.349   0.064  0.00  0.00    +0.000 C 
ATOM     16  C   UNL     1       2.343   0.027  -0.023  0.00  0.00    +0.000 C 
BRANCH  16  17
ATOM     17  C   UNL     1       2.821   0.839   1.235  0.00  0.00    +0.000 C 
ATOM     18  C   UNL     1       2.687   0.003   2.528  0.00  0.00    +0.000 C 
ATOM     19  C   UNL     1       3.038   0.772   3.798  0.00  0.00    +0.000 C 
ATOM     20  C   UNL     1       2.221   2.054   3.892  0.00  0.00    +0.000 C 
ATOM     21  C   UNL     1       2.480   2.932   2.676  0.00  0.00    +0.000 C 
ATOM     22  C   UNL     1       2.125   2.210   1.377  0.00  0.00    +0.000 C 
ENDBRANCH  16  17
ENDBRANCH  13  16
ENDBRANCH   1  13
TORSDOF 4
