REMARK  Name = 
REMARK  5 active torsions:
REMARK  status: ('A' for Active; 'I' for Inactive)
REMARK    1  A    between atoms: C_1  and  N_2
REMARK    2  A    between atoms: N_5  and  C_6
REMARK    3  A    between atoms: C_10  and  C_11
REMARK    4  A    between atoms: C_11  and  N_12
REMARK    5  A    between atoms: C_16  and  C_17
REMARK                            x       y       z     vdW  Elec       q    Type
REMARK                         _______ _______ _______ _____ _____    ______ ____
ROOT
ATOM      1  C   UNL     1      -4.776  -1.362   3.937  0.00  0.00    +0.000 C 
ENDROOT
BRANCH   1   2
ATOM      2  N   UNL     1      -5.225  -2.741   3.760  0.00  0.00    +0.000 N 
ATOM      3  C   UNL     1      -5.442  -3.401   4.983  0.00  0.00    +0.000 A 
ATOM      4  C   UNL     1      -5.895  -4.719   4.975  0.00  0.00    +0.000 A 
ATOM      5  C   UNL     1      -6.084  -5.389   6.188  0.00  0.00    +0.000 A 
ATOM      6  C   UNL     1      -5.817  -4.735   7.391  0.00  0.00    +0.000 A 
ATOM      7  C   UNL     1      -5.390  -3.423   7.306  0.00  0.00    +0.000 A 
ATOM      8  N   UNL     1      -5.210  -2.752   6.141  0.00  0.00    +0.000 NA
ATOM      9  H   UNL     1      -4.562  -3.284   3.215  0.00  0.00    +0.000 HD
BRANCH   6  10
ATOM     10  C   UNL     1      -5.985  -5.460   8.676  0.00  0.00    +0.000 C 
ATOM     11  N   UNL     1      -5.705  -4.813   9.848  0.00  0.00    +0.000 N 
ATOM     12  O   UNL     1      -6.357  -6.624   8.699  0.00  0.00    +0.000 OA
ATOM     13  H   UNL     1      -5.401  -3.857   9.950  0.00  0.00    +0.000 HD
ATOM     14  H   UNL     1      -5.830  -5.354  10.696  0.00  0.00    +0.000 HD
ENDBRANCH   6  10
ENDBRANCH   1   2
BRANCH   1  19
ATOM     15  C   UNL     1      -3.049  -0.017   0.803  0.00  0.00    +0.000 A 
ATOM     16  C   UNL     1      -4.164   0.607   0.242  0.00  0.00    +0.000 A 
ATOM     17  N   UNL     1      -5.412   0.620   0.779  0.00  0.00    +0.000 NA
ATOM     18  C   UNL     1      -5.570  -0.031   1.950  0.00  0.00    +0.000 A 
ATOM     19  C   UNL     1      -4.549  -0.694   2.613  0.00  0.00    +0.000 A 
ATOM     20  C   UNL     1      -3.287  -0.689   2.007  0.00  0.00    +0.000 A 
BRANCH  15  25
ATOM     21  C   UNL     1       1.895  -1.380  -1.361  0.00  0.00    +0.000 C 
ATOM     22  N   UNL     1       0.827  -0.496  -0.907  0.00  0.00    +0.000 NA
ATOM     23  C   UNL     1      -0.416  -0.743  -1.675  0.00  0.00    +0.000 C 
ATOM     24  C   UNL     1      -1.588   0.157  -1.210  0.00  0.00    +0.000 C 
ATOM     25  N   UNL     1      -1.796  -0.044   0.230  0.00  0.00    +0.000 N 
ATOM     26  C   UNL     1      -0.594   0.191   1.049  0.00  0.00    +0.000 C 
ATOM     27  C   UNL     1       0.558  -0.701   0.535  0.00  0.00    +0.000 C 
ENDBRANCH  15  25
ENDBRANCH   1  19
TORSDOF 4
