REMARK  Name = 
REMARK  3 active torsions:
REMARK  status: ('A' for Active; 'I' for Inactive)
REMARK    1  A    between atoms: C_2  and  C_4
REMARK    2  A    between atoms: N_8  and  C_9
REMARK    3  A    between atoms: C_9  and  C_10
REMARK                            x       y       z     vdW  Elec       q    Type
REMARK                         _______ _______ _______ _____ _____    ______ ____
ROOT
ATOM      1  C   UNL     1       3.213  -2.916  -1.823  0.00  0.00    +0.000 A 
ATOM      2  C   UNL     1       2.467  -2.215  -2.739  0.00  0.00    +0.000 A 
ATOM      3  N   UNL     1       3.023  -1.489  -3.743  0.00  0.00    +0.000 NA
ATOM      4  C   UNL     1       4.367  -1.465  -3.790  0.00  0.00    +0.000 A 
ATOM      5  N   UNL     1       5.039  -0.710  -4.752  0.00  0.00    +0.000 N 
ATOM      6  N   UNL     1       5.133  -2.132  -2.888  0.00  0.00    +0.000 NA
ATOM      7  N   UNL     1       4.556  -2.881  -1.889  0.00  0.00    +0.000 NA
ATOM      8  H   UNL     1       6.021  -0.965  -4.698  0.00  0.00    +0.000 HD
ENDROOT
BRANCH   1  10
ATOM      9  N   UNL     1       3.398  -4.362   0.124  0.00  0.00    +0.000 N 
ATOM     10  C   UNL     1       2.571  -3.736  -0.770  0.00  0.00    +0.000 C 
ATOM     11  O   UNL     1       1.353  -3.852  -0.701  0.00  0.00    +0.000 OA
ATOM     12  H   UNL     1       2.985  -4.930   0.853  0.00  0.00    +0.000 HD
ATOM     13  H   UNL     1       4.404  -4.239   0.102  0.00  0.00    +0.000 HD
ENDBRANCH   1  10
BRANCH   5  14
ATOM     14  C   UNL     1       4.490  -0.491  -6.100  0.00  0.00    +0.000 C 
ATOM     15  C   UNL     1       4.530   0.952  -6.592  0.00  0.00    +0.000 C 
ATOM     16  C   UNL     1       3.214   0.291  -6.350  0.00  0.00    +0.000 C 
BRANCH  14  17
ATOM     17  C   UNL     1       4.828  -1.597  -7.097  0.00  0.00    +0.000 A 
ATOM     18  C   UNL     1       3.998  -2.725  -7.239  0.00  0.00    +0.000 A 
ATOM     19  C   UNL     1       4.272  -3.717  -8.183  0.00  0.00    +0.000 A 
ATOM     20  C   UNL     1       5.391  -3.596  -8.994  0.00  0.00    +0.000 A 
ATOM     21  F   UNL     1       5.645  -4.533  -9.917  0.00  0.00    +0.000 F 
ATOM     22  C   UNL     1       6.248  -2.512  -8.866  0.00  0.00    +0.000 A 
ATOM     23  C   UNL     1       5.972  -1.525  -7.919  0.00  0.00    +0.000 A 
ENDBRANCH  14  17
ENDBRANCH   5  14
TORSDOF 3
