REMARK  Name = 
REMARK  8 active torsions:
REMARK  status: ('A' for Active; 'I' for Inactive)
REMARK    1  A    between atoms: C_2  and  C_21
REMARK    2  A    between atoms: N_3  and  C_4
REMARK    3  A    between atoms: C_4  and  C_5
REMARK    4  A    between atoms: C_8  and  C_9
REMARK    5  A    between atoms: C_9  and  O_10
REMARK    6  A    between atoms: C_9  and  C_11
REMARK    7  A    between atoms: C_11  and  O_12
REMARK    8  A    between atoms: C_11  and  C_13
REMARK                            x       y       z     vdW  Elec       q    Type
REMARK                         _______ _______ _______ _____ _____    ______ ____
ROOT
ATOM      1  C   UNL     1       0.000   0.000   0.000  0.00  0.00    +0.000 A 
ATOM      2  C   UNL     1       0.000   0.000   0.000  0.00  0.00    +0.000 A 
ATOM      3  C   UNL     1       0.000   0.000   0.000  0.00  0.00    +0.000 A 
ATOM      4  C   UNL     1       0.000   0.000   0.000  0.00  0.00    +0.000 A 
ATOM      5  C   UNL     1       0.000   0.000   0.000  0.00  0.00    +0.000 A 
ATOM      6  N   UNL     1       0.000   0.000   0.000  0.00  0.00    +0.000 NA
ENDROOT
BRANCH   1   7
ATOM      7  C   UNL     1       0.000   0.000   0.000  0.00  0.00    +0.000 C 
BRANCH   7  10
ATOM      8  O   UNL     1       0.000   0.000   0.000  0.00  0.00    +0.000 OA
ATOM      9  C   UNL     1       0.000   0.000   0.000  0.00  0.00    +0.000 C 
ATOM     10  N   UNL     1       0.000   0.000   0.000  0.00  0.00    +0.000 N 
ATOM     11  H   UNL     1       0.000   0.000   0.000  0.00  0.00    +0.000 HD
BRANCH   9  12
ATOM     12  C   UNL     1       0.000   0.000   0.000  0.00  0.00    +0.000 A 
ATOM     13  C   UNL     1       0.000   0.000   0.000  0.00  0.00    +0.000 A 
ATOM     14  S   UNL     1       0.000   0.000   0.000  0.00  0.00    +0.000 S 
ATOM     15  C   UNL     1       0.000   0.000   0.000  0.00  0.00    +0.000 A 
ATOM     16  N   UNL     1       0.000   0.000   0.000  0.00  0.00    +0.000 NA
ATOM     17  C   UNL     1       0.000   0.000   0.000  0.00  0.00    +0.000 A 
ATOM     18  N   UNL     1       0.000   0.000   0.000  0.00  0.00    +0.000 N 
ATOM     19  C   UNL     1       0.000   0.000   0.000  0.00  0.00    +0.000 A 
ATOM     20  O   UNL     1       0.000   0.000   0.000  0.00  0.00    +0.000 OA
ATOM     21  C   UNL     1       0.000   0.000   0.000  0.00  0.00    +0.000 A 
ATOM     22  H   UNL     1       0.000   0.000   0.000  0.00  0.00    +0.000 HD
ENDBRANCH   9  12
ENDBRANCH   7  10
ENDBRANCH   1   7
BRANCH   4  23
ATOM     23  C   UNL     1       0.000   0.000   0.000  0.00  0.00    +0.000 C 
BRANCH  23  24
ATOM     24  O   UNL     1       0.000   0.000   0.000  0.00  0.00    +0.000 OA
ATOM     25  H   UNL     1       0.000   0.000   0.000  0.00  0.00    +0.000 HD
ENDBRANCH  23  24
BRANCH  23  26
ATOM     26  C   UNL     1       0.000   0.000   0.000  0.00  0.00    +0.000 C 
BRANCH  26  27
ATOM     27  C   UNL     1       0.000   0.000   0.000  0.00  0.00    +0.000 A 
ATOM     28  C   UNL     1       0.000   0.000   0.000  0.00  0.00    +0.000 A 
ATOM     29  C   UNL     1       0.000   0.000   0.000  0.00  0.00    +0.000 A 
ATOM     30  C   UNL     1       0.000   0.000   0.000  0.00  0.00    +0.000 A 
ATOM     31  C   UNL     1       0.000   0.000   0.000  0.00  0.00    +0.000 A 
ATOM     32  N   UNL     1       0.000   0.000   0.000  0.00  0.00    +0.000 NA
ENDBRANCH  26  27
BRANCH  26  33
ATOM     33  O   UNL     1       0.000   0.000   0.000  0.00  0.00    +0.000 OA
ATOM     34  H   UNL     1       0.000   0.000   0.000  0.00  0.00    +0.000 HD
ENDBRANCH  26  33
ENDBRANCH  23  26
ENDBRANCH   4  23
TORSDOF 8
