REMARK  Name = 
REMARK  8 active torsions:
REMARK  status: ('A' for Active; 'I' for Inactive)
REMARK    1  A    between atoms: C_1  and  C_2
REMARK    2  A    between atoms: C_2  and  C_3
REMARK    3  A    between atoms: C_3  and  N_4
REMARK    4  A    between atoms: C_3  and  C_18
REMARK    5  A    between atoms: C_5  and  C_7
REMARK    6  A    between atoms: N_13  and  C_14
REMARK    7  A    between atoms: C_21  and  C_22
REMARK    8  A    between atoms: C_22  and  C_23
REMARK                            x       y       z     vdW  Elec       q    Type
REMARK                         _______ _______ _______ _____ _____    ______ ____
ROOT
ATOM      1  C   UNL     1       2.956   1.359   0.435  0.00  0.00    +0.000 C 
ENDROOT
BRANCH   1   2
ATOM      2  C   UNL     1       4.477   1.314   0.335  0.00  0.00    +0.000 A 
ATOM      3  C   UNL     1       5.086   1.733  -0.856  0.00  0.00    +0.000 A 
ATOM      4  C   UNL     1       6.477   1.798  -0.966  0.00  0.00    +0.000 A 
ATOM      5  C   UNL     1       7.296   1.446   0.115  0.00  0.00    +0.000 A 
ATOM      6  C   UNL     1       6.695   0.959   1.281  0.00  0.00    +0.000 A 
ATOM      7  C   UNL     1       5.302   0.870   1.380  0.00  0.00    +0.000 A 
BRANCH   5   8
ATOM      8  C   UNL     1       8.798   1.605   0.031  0.00  0.00    +0.000 C 
BRANCH   8   9
ATOM      9  C   UNL     1       9.337   2.943   0.500  0.00  0.00    +0.000 A 
ATOM     10  C   UNL     1       8.974   4.129  -0.140  0.00  0.00    +0.000 A 
ATOM     11  C   UNL     1       9.574   5.324   0.252  0.00  0.00    +0.000 A 
ATOM     12  C   UNL     1      10.517   5.310   1.270  0.00  0.00    +0.000 A 
ATOM     13  C   UNL     1      10.814   4.097   1.865  0.00  0.00    +0.000 A 
ATOM     14  N   UNL     1      10.252   2.920   1.503  0.00  0.00    +0.000 NA
ENDBRANCH   8   9
ENDBRANCH   5   8
ENDBRANCH   1   2
BRANCH   1  15
ATOM     15  N   UNL     1       2.421   0.109  -0.065  0.00  0.00    +0.000 N 
ATOM     16  C   UNL     1       1.148  -0.021  -0.567  0.00  0.00    +0.000 C 
ATOM     17  O   UNL     1       0.417   0.935  -0.791  0.00  0.00    +0.000 OA
ATOM     18  H   UNL     1       2.903  -0.718   0.255  0.00  0.00    +0.000 HD
BRANCH  16  19
ATOM     19  C   UNL     1       0.746  -1.398  -0.880  0.00  0.00    +0.000 A 
ATOM     20  C   UNL     1      -0.168  -1.658  -1.892  0.00  0.00    +0.000 A 
ATOM     21  S   UNL     1      -0.424  -3.328  -2.155  0.00  0.00    +0.000 S 
ATOM     22  C   UNL     1       0.636  -3.749  -0.889  0.00  0.00    +0.000 A 
ATOM     23  N   UNL     1       0.889  -5.048  -0.583  0.00  0.00    +0.000 NA
ATOM     24  C   UNL     1       1.708  -5.216   0.406  0.00  0.00    +0.000 A 
ATOM     25  N   UNL     1       2.291  -4.206   1.143  0.00  0.00    +0.000 N 
ATOM     26  C   UNL     1       3.206  -4.498   2.225  0.00  0.00    +0.000 C 
ATOM     27  C   UNL     1       2.039  -2.869   0.863  0.00  0.00    +0.000 A 
ATOM     28  O   UNL     1       2.546  -1.953   1.508  0.00  0.00    +0.000 OA
ATOM     29  C   UNL     1       1.162  -2.638  -0.270  0.00  0.00    +0.000 A 
ENDBRANCH  16  19
ENDBRANCH   1  15
BRANCH   1  31
ATOM     30  C   UNL     1       2.828   3.037   2.352  0.00  0.00    +0.000 C 
ATOM     31  C   UNL     1       2.414   1.660   1.849  0.00  0.00    +0.000 C 
ENDBRANCH   1  31
TORSDOF 6
