REMARK  Name = 
REMARK  9 active torsions:
REMARK  status: ('A' for Active; 'I' for Inactive)
REMARK    1  A    between atoms: N_1  and  C_2
REMARK    2  A    between atoms: C_2  and  C_3
REMARK    3  A    between atoms: C_3  and  N_4
REMARK    4  A    between atoms: C_3  and  C_26
REMARK    5  A    between atoms: N_4  and  C_5
REMARK    6  A    between atoms: C_5  and  C_6
REMARK    7  A    between atoms: C_9  and  C_10
REMARK    8  A    between atoms: C_10  and  N_11
REMARK    9  A    between atoms: C_12  and  C_14
REMARK                            x       y       z     vdW  Elec       q    Type
REMARK                         _______ _______ _______ _____ _____    ______ ____
ROOT
ATOM      1  C   UNL     1       0.685   3.855   0.013  0.00  0.00    +0.000 A 
ATOM      2  C   UNL     1      -0.028   3.949   1.216  0.00  0.00    +0.000 A 
ATOM      3  C   UNL     1      -0.420   5.194   1.714  0.00  0.00    +0.000 A 
ATOM      4  C   UNL     1      -0.100   6.369   1.021  0.00  0.00    +0.000 A 
ATOM      5  C   UNL     1       0.642   6.278  -0.163  0.00  0.00    +0.000 A 
ATOM      6  C   UNL     1       1.023   5.035  -0.666  0.00  0.00    +0.000 A 
ENDROOT
BRANCH   1   7
ATOM      7  C   UNL     1       1.103   2.517  -0.557  0.00  0.00    +0.000 C 
BRANCH   7   8
ATOM      8  N   UNL     1      -0.061   1.688  -0.846  0.00  0.00    +0.000 NA
ATOM      9  H   UNL     1      -0.587   1.566   0.018  0.00  0.00    +0.000 HD
BRANCH   8  10
ATOM     10  C   UNL     1       0.259   0.332  -1.352  0.00  0.00    +0.000 C 
BRANCH  10  11
ATOM     11  C   UNL     1      -1.034  -0.485  -1.505  0.00  0.00    +0.000 A 
ATOM     12  C   UNL     1      -2.211   0.120  -1.957  0.00  0.00    +0.000 A 
ATOM     13  C   UNL     1      -3.370  -0.641  -2.070  0.00  0.00    +0.000 A 
ATOM     14  C   UNL     1      -3.328  -1.990  -1.751  0.00  0.00    +0.000 A 
ATOM     15  C   UNL     1      -2.122  -2.523  -1.325  0.00  0.00    +0.000 A 
ATOM     16  N   UNL     1      -0.980  -1.807  -1.194  0.00  0.00    +0.000 NA
ENDBRANCH  10  11
BRANCH  10  17
ATOM     17  C   UNL     1       1.023   0.264  -2.714  0.00  0.00    +0.000 C 
BRANCH  17  18
ATOM     18  N   UNL     1       2.382   0.831  -2.725  0.00  0.00    +0.000 NA
ATOM     19  H   UNL     1       2.787   0.705  -3.652  0.00  0.00    +0.000 HD
ATOM     20  H   UNL     1       2.972   0.317  -2.073  0.00  0.00    +0.000 HD
ENDBRANCH  17  18
ENDBRANCH  10  17
ENDBRANCH   8  10
ENDBRANCH   7   8
ENDBRANCH   1   7
BRANCH   4  21
ATOM     21  C   UNL     1      -0.487   7.715   1.565  0.00  0.00    +0.000 C 
BRANCH  21  22
ATOM     22  N   UNL     1       0.547   8.227   2.425  0.00  0.00    +0.000 N 
ATOM     23  C   UNL     1       0.382   9.401   3.108  0.00  0.00    +0.000 C 
ATOM     24  O   UNL     1      -0.663  10.045   3.052  0.00  0.00    +0.000 OA
ATOM     25  H   UNL     1       1.477   7.834   2.313  0.00  0.00    +0.000 HD
BRANCH  23  26
ATOM     26  C   UNL     1       1.497   9.824   3.965  0.00  0.00    +0.000 A 
ATOM     27  C   UNL     1       1.253  10.695   5.017  0.00  0.00    +0.000 A 
ATOM     28  S   UNL     1       2.635  11.052   5.947  0.00  0.00    +0.000 S 
ATOM     29  C   UNL     1       3.621  10.093   4.946  0.00  0.00    +0.000 A 
ATOM     30  N   UNL     1       4.956   9.985   5.179  0.00  0.00    +0.000 NA
ATOM     31  C   UNL     1       5.589   9.250   4.327  0.00  0.00    +0.000 A 
ATOM     32  N   UNL     1       5.005   8.605   3.268  0.00  0.00    +0.000 N 
ATOM     33  C   UNL     1       3.658   8.669   3.004  0.00  0.00    +0.000 A 
ATOM     34  O   UNL     1       3.162   8.052   2.067  0.00  0.00    +0.000 OA
ATOM     35  C   UNL     1       2.901   9.491   3.929  0.00  0.00    +0.000 A 
ATOM     36  H   UNL     1       5.556   8.040   2.640  0.00  0.00    +0.000 HD
ENDBRANCH  23  26
ENDBRANCH  21  22
ENDBRANCH   4  21
TORSDOF 9
