REMARK  Name = 
REMARK  8 active torsions:
REMARK  status: ('A' for Active; 'I' for Inactive)
REMARK    1  A    between atoms: C_1  and  C_2
REMARK    2  A    between atoms: C_2  and  C_3
REMARK    3  A    between atoms: C_7  and  C_8
REMARK    4  A    between atoms: C_8  and  C_9
REMARK    5  A    between atoms: C_9  and  N_10
REMARK    6  A    between atoms: C_14  and  C_15
REMARK    7  A    between atoms: N_24  and  C_25
REMARK    8  A    between atoms: C_25  and  C_26
REMARK                            x       y       z     vdW  Elec       q    Type
REMARK                         _______ _______ _______ _____ _____    ______ ____
ROOT
ATOM      1  C   UNL     1       2.880   0.379   1.385  0.00  0.00    +0.000 A 
ATOM      2  C   UNL     1       2.590   1.642   1.923  0.00  0.00    +0.000 A 
ATOM      3  C   UNL     1       2.905   1.960   3.241  0.00  0.00    +0.000 A 
ATOM      4  C   UNL     1       3.493   1.004   4.066  0.00  0.00    +0.000 A 
ATOM      5  C   UNL     1       3.765  -0.280   3.578  0.00  0.00    +0.000 A 
ATOM      6  C   UNL     1       3.499  -0.549   2.222  0.00  0.00    +0.000 A 
ENDROOT
BRANCH   1   8
ATOM      7  C   UNL     1       0.863   0.128  -0.031  0.00  0.00    +0.000 C 
ATOM      8  C   UNL     1       2.409   0.021  -0.035  0.00  0.00    +0.000 C 
ATOM      9  C   UNL     1       3.032   1.005  -1.059  0.00  0.00    +0.000 C 
ATOM     10  C   UNL     1       2.668   0.643  -2.495  0.00  0.00    +0.000 C 
ATOM     11  C   UNL     1       3.013  -0.809  -2.816  0.00  0.00    +0.000 C 
ATOM     12  N   UNL     1       2.398  -1.737  -1.859  0.00  0.00    +0.000 NA
ATOM     13  C   UNL     1       2.805  -1.423  -0.478  0.00  0.00    +0.000 C 
BRANCH  12  14
ATOM     14  C   UNL     1       2.719  -3.154  -2.181  0.00  0.00    +0.000 C 
BRANCH  14  15
ATOM     15  C   UNL     1       2.264  -3.706  -3.551  0.00  0.00    +0.000 C 
ATOM     16  F   UNL     1       1.623  -2.787  -4.302  0.00  0.00    +0.000 F 
ATOM     17  F   UNL     1       3.321  -4.151  -4.269  0.00  0.00    +0.000 F 
ATOM     18  F   UNL     1       1.417  -4.747  -3.388  0.00  0.00    +0.000 F 
ENDBRANCH  14  15
ENDBRANCH  12  14
ENDBRANCH   1   8
BRANCH   5  19
ATOM     19  C   UNL     1       4.259  -1.393   4.484  0.00  0.00    +0.000 C 
BRANCH  19  20
ATOM     20  C   UNL     1       4.487  -2.727   3.742  0.00  0.00    +0.000 C 
BRANCH  20  21
ATOM     21  N   UNL     1       4.952  -3.792   4.638  0.00  0.00    +0.000 N 
ATOM     22  C   UNL     1       5.153  -4.993   3.934  0.00  0.00    +0.000 A 
ATOM     23  C   UNL     1       5.596  -6.133   4.611  0.00  0.00    +0.000 A 
ATOM     24  C   UNL     1       5.781  -7.314   3.893  0.00  0.00    +0.000 A 
ATOM     25  C   UNL     1       5.512  -7.347   2.531  0.00  0.00    +0.000 A 
ATOM     26  C   UNL     1       5.069  -6.178   1.939  0.00  0.00    +0.000 A 
ATOM     27  N   UNL     1       4.904  -5.015   2.613  0.00  0.00    +0.000 NA
ATOM     28  H   UNL     1       4.273  -3.991   5.370  0.00  0.00    +0.000 HD
BRANCH  25  29
ATOM     29  C   UNL     1       5.640  -8.613   1.765  0.00  0.00    +0.000 C 
ATOM     30  N   UNL     1       6.576  -9.527   2.204  0.00  0.00    +0.000 N 
ATOM     31  O   UNL     1       4.950  -8.851   0.806  0.00  0.00    +0.000 OA
ATOM     32  H   UNL     1       7.219  -9.397   2.966  0.00  0.00    +0.000 HD
ATOM     33  H   UNL     1       6.660 -10.370   1.652  0.00  0.00    +0.000 HD
ENDBRANCH  25  29
ENDBRANCH  20  21
ENDBRANCH  19  20
ENDBRANCH   5  19
TORSDOF 7
