REMARK  Name = 
REMARK  9 active torsions:
REMARK  status: ('A' for Active; 'I' for Inactive)
REMARK    1  A    between atoms: C_2  and  C_3
REMARK    2  A    between atoms: C_3  and  C_4
REMARK    3  A    between atoms: C_4  and  C_5
REMARK    4  A    between atoms: C_5  and  N_6
REMARK    5  A    between atoms: C_5  and  C_19
REMARK    6  A    between atoms: C_7  and  C_9
REMARK    7  A    between atoms: C_22  and  C_23
REMARK    8  A    between atoms: C_23  and  O_24
REMARK    9  A    between atoms: C_23  and  C_25
REMARK                            x       y       z     vdW  Elec       q    Type
REMARK                         _______ _______ _______ _____ _____    ______ ____
ROOT
ATOM      1  C   UNL     1       5.230   0.162 -10.452  0.00  0.00    +0.000 C 
ENDROOT
BRANCH   1   2
ATOM      2  C   UNL     1       5.745   0.962  -9.275  0.00  0.00    +0.000 A 
ATOM      3  C   UNL     1       5.928   2.345  -9.421  0.00  0.00    +0.000 A 
ATOM      4  C   UNL     1       6.471   3.107  -8.385  0.00  0.00    +0.000 A 
ATOM      5  C   UNL     1       6.832   2.508  -7.169  0.00  0.00    +0.000 A 
ATOM      6  C   UNL     1       6.661   1.121  -7.037  0.00  0.00    +0.000 A 
ATOM      7  C   UNL     1       6.129   0.357  -8.074  0.00  0.00    +0.000 A 
BRANCH   5   8
ATOM      8  C   UNL     1       7.394   3.355  -6.038  0.00  0.00    +0.000 C 
BRANCH   8   9
ATOM      9  C   UNL     1       6.456   4.470  -5.592  0.00  0.00    +0.000 A 
ATOM     10  C   UNL     1       6.810   5.806  -5.770  0.00  0.00    +0.000 A 
ATOM     11  C   UNL     1       5.925   6.796  -5.350  0.00  0.00    +0.000 A 
ATOM     12  C   UNL     1       4.714   6.430  -4.776  0.00  0.00    +0.000 A 
ATOM     13  C   UNL     1       4.442   5.081  -4.624  0.00  0.00    +0.000 A 
ATOM     14  N   UNL     1       5.290   4.097  -4.995  0.00  0.00    +0.000 NA
ENDBRANCH   8   9
BRANCH   8  15
ATOM     15  O   UNL     1       7.677   2.535  -4.895  0.00  0.00    +0.000 OA
ATOM     16  H   UNL     1       6.843   2.549  -4.384  0.00  0.00    +0.000 HD
ENDBRANCH   8  15
ENDBRANCH   5   8
ENDBRANCH   1   2
BRANCH   1  17
ATOM     17  N   UNL     1       4.408  -0.971 -10.053  0.00  0.00    +0.000 N 
ATOM     18  C   UNL     1       3.032  -0.899 -10.016  0.00  0.00    +0.000 C 
ATOM     19  O   UNL     1       2.404   0.107 -10.322  0.00  0.00    +0.000 OA
ATOM     20  H   UNL     1       4.857  -1.767  -9.622  0.00  0.00    +0.000 HD
BRANCH  18  21
ATOM     21  C   UNL     1       2.370  -2.160  -9.687  0.00  0.00    +0.000 A 
ATOM     22  C   UNL     1       2.818  -3.395 -10.130  0.00  0.00    +0.000 A 
ATOM     23  S   UNL     1       1.753  -4.675  -9.742  0.00  0.00    +0.000 S 
ATOM     24  C   UNL     1       0.666  -3.613  -8.973  0.00  0.00    +0.000 A 
ATOM     25  N   UNL     1      -0.505  -4.061  -8.449  0.00  0.00    +0.000 NA
ATOM     26  C   UNL     1      -1.233  -3.136  -7.915  0.00  0.00    +0.000 A 
ATOM     27  N   UNL     1      -0.885  -1.811  -7.838  0.00  0.00    +0.000 N 
ATOM     28  C   UNL     1       0.329  -1.328  -8.271  0.00  0.00    +0.000 A 
ATOM     29  O   UNL     1       0.690  -0.187  -8.003  0.00  0.00    +0.000 OA
ATOM     30  C   UNL     1       1.134  -2.313  -8.967  0.00  0.00    +0.000 A 
ATOM     31  H   UNL     1      -1.465  -1.150  -7.343  0.00  0.00    +0.000 HD
ENDBRANCH  18  21
ENDBRANCH   1  17
BRANCH   1  32
ATOM     32  C   UNL     1       6.424  -0.312 -11.293  0.00  0.00    +0.000 C 
BRANCH  32  33
ATOM     33  C   UNL     1       5.948  -0.975 -12.574  0.00  0.00    +0.000 C 
BRANCH  33  35
ATOM     34  N   UNL     1       8.091  -1.840 -14.121  0.00  0.00    +0.000 NA
ATOM     35  C   UNL     1       7.119  -1.448 -13.419  0.00  0.00    +0.000 C 
ENDBRANCH  33  35
ENDBRANCH  32  33
ENDBRANCH   1  32
TORSDOF 9
