REMARK  Name = 
REMARK  8 active torsions:
REMARK  status: ('A' for Active; 'I' for Inactive)
REMARK    1  A    between atoms: C_1  and  C_2
REMARK    2  A    between atoms: C_2  and  C_3
REMARK    3  A    between atoms: C_2  and  C_25
REMARK    4  A    between atoms: C_3  and  N_4
REMARK    5  A    between atoms: N_4  and  C_5
REMARK    6  A    between atoms: C_8  and  C_9
REMARK    7  A    between atoms: C_9  and  N_10
REMARK    8  A    between atoms: C_11  and  C_13
REMARK                            x       y       z     vdW  Elec       q    Type
REMARK                         _______ _______ _______ _____ _____    ______ ____
ROOT
ATOM      1  C   UNL     1       3.060  -0.160  -3.685  0.00  0.00    +0.000 C 
ATOM      2  C   UNL     1       4.324  -0.979  -3.973  0.00  0.00    +0.000 C 
ATOM      3  C   UNL     1       4.898  -0.669  -5.353  0.00  0.00    +0.000 C 
ATOM      4  C   UNL     1       5.192   0.827  -5.541  0.00  0.00    +0.000 C 
ATOM      5  C   UNL     1       3.927   1.643  -5.252  0.00  0.00    +0.000 C 
ATOM      6  C   UNL     1       3.351   1.338  -3.873  0.00  0.00    +0.000 C 
ENDROOT
BRANCH   1   7
ATOM      7  N   UNL     1       2.604  -0.492  -2.322  0.00  0.00    +0.000 NA
ATOM      8  H   UNL     1       2.467  -1.502  -2.269  0.00  0.00    +0.000 HD
BRANCH   7   9
ATOM      9  C   UNL     1       1.335   0.173  -1.989  0.00  0.00    +0.000 C 
BRANCH   9  11
ATOM     10  C   UNL     1       0.424  -1.676  -0.461  0.00  0.00    +0.000 C 
ATOM     11  C   UNL     1       0.785  -0.195  -0.594  0.00  0.00    +0.000 C 
BRANCH  11  12
ATOM     12  C   UNL     1      -0.437   0.669  -0.326  0.00  0.00    +0.000 A 
ATOM     13  C   UNL     1      -0.438   1.591   0.718  0.00  0.00    +0.000 A 
ATOM     14  C   UNL     1      -1.555   2.403   0.896  0.00  0.00    +0.000 A 
ATOM     15  C   UNL     1      -2.636   2.277   0.032  0.00  0.00    +0.000 A 
ATOM     16  C   UNL     1      -2.557   1.336  -0.978  0.00  0.00    +0.000 A 
ATOM     17  N   UNL     1      -1.489   0.534  -1.173  0.00  0.00    +0.000 NA
ENDBRANCH  11  12
ENDBRANCH   9  11
ENDBRANCH   7   9
ENDBRANCH   1   7
BRANCH   4  18
ATOM     18  C   UNL     1       5.696   1.149  -6.956  0.00  0.00    +0.000 C 
BRANCH  18  19
ATOM     19  N   UNL     1       6.961   0.517  -7.263  0.00  0.00    +0.000 N 
ATOM     20  C   UNL     1       7.613   0.776  -8.445  0.00  0.00    +0.000 C 
ATOM     21  O   UNL     1       7.204   1.610  -9.248  0.00  0.00    +0.000 OA
ATOM     22  H   UNL     1       7.191  -0.342  -6.775  0.00  0.00    +0.000 HD
BRANCH  20  23
ATOM     23  C   UNL     1       8.868   0.049  -8.668  0.00  0.00    +0.000 A 
ATOM     24  C   UNL     1       9.832   0.591  -9.508  0.00  0.00    +0.000 A 
ATOM     25  S   UNL     1      11.254  -0.343  -9.610  0.00  0.00    +0.000 S 
ATOM     26  C   UNL     1      10.612  -1.532  -8.577  0.00  0.00    +0.000 A 
ATOM     27  N   UNL     1      11.332  -2.642  -8.256  0.00  0.00    +0.000 NA
ATOM     28  C   UNL     1      10.714  -3.476  -7.488  0.00  0.00    +0.000 A 
ATOM     29  N   UNL     1       9.442  -3.300  -7.013  0.00  0.00    +0.000 N 
ATOM     30  C   UNL     1       8.685  -2.190  -7.298  0.00  0.00    +0.000 A 
ATOM     31  O   UNL     1       7.557  -2.051  -6.838  0.00  0.00    +0.000 OA
ATOM     32  C   UNL     1       9.334  -1.215  -8.151  0.00  0.00    +0.000 A 
ATOM     33  H   UNL     1       9.013  -3.991  -6.415  0.00  0.00    +0.000 HD
ENDBRANCH  20  23
ENDBRANCH  18  19
ENDBRANCH   4  18
TORSDOF 7
