REMARK  Name = 
REMARK  6 active torsions:
REMARK  status: ('A' for Active; 'I' for Inactive)
REMARK    1  A    between atoms: N_1  and  C_2
REMARK    2  A    between atoms: C_2  and  C_3
REMARK    3  A    between atoms: C_6  and  C_7
REMARK    4  A    between atoms: C_7  and  O_8
REMARK    5  A    between atoms: O_8  and  C_9
REMARK    6  A    between atoms: C_13  and  C_14
REMARK                            x       y       z     vdW  Elec       q    Type
REMARK                         _______ _______ _______ _____ _____    ______ ____
ROOT
ATOM      1  O   UNL     1       4.358   1.460   6.092  0.00  0.00    +0.000 OA
ENDROOT
BRANCH   1   2
ATOM      2  C   UNL     1       4.822   1.595   7.375  0.00  0.00    +0.000 A 
ATOM      3  C   UNL     1       5.067   0.551   8.265  0.00  0.00    +0.000 A 
ATOM      4  C   UNL     1       5.540   0.854   9.532  0.00  0.00    +0.000 A 
ATOM      5  N   UNL     1       5.780   2.106   9.965  0.00  0.00    +0.000 NA
ATOM      6  C   UNL     1       5.529   3.109   9.076  0.00  0.00    +0.000 A 
ATOM      7  C   UNL     1       5.054   2.904   7.789  0.00  0.00    +0.000 A 
BRANCH   6   8
ATOM      8  C   UNL     1       5.800   4.500   9.562  0.00  0.00    +0.000 C 
ATOM      9  N   UNL     1       6.271   4.586  10.844  0.00  0.00    +0.000 N 
ATOM     10  O   UNL     1       5.619   5.494   8.872  0.00  0.00    +0.000 OA
ATOM     11  H   UNL     1       6.411   3.737  11.382  0.00  0.00    +0.000 HD
ATOM     12  H   UNL     1       6.481   5.489  11.242  0.00  0.00    +0.000 HD
ENDBRANCH   6   8
ENDBRANCH   1   2
BRANCH   1  13
ATOM     13  C   UNL     1       4.184   0.125   5.619  0.00  0.00    +0.000 C 
BRANCH  13  17
ATOM     14  C   UNL     1       2.801   0.100   1.515  0.00  0.00    +0.000 A 
ATOM     15  C   UNL     1       4.172   0.110   1.807  0.00  0.00    +0.000 A 
ATOM     16  C   UNL     1       4.620   0.136   3.130  0.00  0.00    +0.000 A 
ATOM     17  C   UNL     1       3.704   0.145   4.190  0.00  0.00    +0.000 A 
ATOM     18  C   UNL     1       2.334   0.161   3.900  0.00  0.00    +0.000 A 
ATOM     19  C   UNL     1       1.887   0.133   2.576  0.00  0.00    +0.000 A 
BRANCH  14  20
ATOM     20  C   UNL     1       2.321   0.082   0.086  0.00  0.00    +0.000 C 
BRANCH  20  21
ATOM     21  N   UNL     1       2.810  -1.089  -0.634  0.00  0.00    +0.000 NA
ATOM     22  H   UNL     1       2.364  -1.126  -1.548  0.00  0.00    +0.000 HD
ATOM     23  H   UNL     1       2.515  -1.926  -0.134  0.00  0.00    +0.000 HD
ENDBRANCH  20  21
ENDBRANCH  14  20
ENDBRANCH  13  17
ENDBRANCH   1  13
TORSDOF 6
