REMARK  Name = 
REMARK  5 active torsions:
REMARK  status: ('A' for Active; 'I' for Inactive)
REMARK    1  A    between atoms: C_2  and  C_4
REMARK    2  A    between atoms: C_7  and  N_8
REMARK    3  A    between atoms: N_8  and  C_9
REMARK    4  A    between atoms: C_9  and  C_10
REMARK    5  A    between atoms: C_15  and  C_16
REMARK                            x       y       z     vdW  Elec       q    Type
REMARK                         _______ _______ _______ _____ _____    ______ ____
ROOT
ATOM      1  C   UNL     1       5.061   0.865  -5.820  0.00  0.00    +0.000 C 
ATOM      2  C   UNL     1       5.470   2.310  -5.602  0.00  0.00    +0.000 C 
ATOM      3  C   UNL     1       4.111   2.011  -6.140  0.00  0.00    +0.000 C 
ENDROOT
BRANCH   1   4
ATOM      4  C   UNL     1       5.642   0.084  -6.996  0.00  0.00    +0.000 A 
ATOM      5  C   UNL     1       7.029   0.009  -7.204  0.00  0.00    +0.000 A 
ATOM      6  C   UNL     1       7.569  -0.779  -8.220  0.00  0.00    +0.000 A 
ATOM      7  C   UNL     1       6.726  -1.510  -9.048  0.00  0.00    +0.000 A 
ATOM      8  F   UNL     1       7.275  -2.282  -9.997  0.00  0.00    +0.000 F 
ATOM      9  C   UNL     1       5.338  -1.463  -8.898  0.00  0.00    +0.000 A 
ATOM     10  C   UNL     1       4.816  -0.659  -7.865  0.00  0.00    +0.000 A 
BRANCH   9  11
ATOM     11  C   UNL     1       4.440  -2.281  -9.808  0.00  0.00    +0.000 C 
ATOM     12  C   UNL     1       3.476  -1.393 -10.611  0.00  0.00    +0.000 C 
ATOM     13  C   UNL     1       2.480  -2.235 -11.396  0.00  0.00    +0.000 C 
ATOM     14  O   UNL     1       1.787  -3.132 -10.530  0.00  0.00    +0.000 OA
ATOM     15  C   UNL     1       2.669  -4.073  -9.921  0.00  0.00    +0.000 C 
ATOM     16  C   UNL     1       3.675  -3.361  -9.027  0.00  0.00    +0.000 C 
ENDBRANCH   9  11
ENDBRANCH   1   4
BRANCH   1  17
ATOM     17  N   UNL     1       4.773  -0.001  -4.655  0.00  0.00    +0.000 N 
ATOM     18  H   UNL     1       3.889   0.160  -4.186  0.00  0.00    +0.000 HD
BRANCH  17  22
ATOM     19  C   UNL     1       7.707  -0.981  -1.923  0.00  0.00    +0.000 A 
ATOM     20  C   UNL     1       7.935  -0.010  -2.883  0.00  0.00    +0.000 A 
ATOM     21  N   UNL     1       6.996   0.347  -3.798  0.00  0.00    +0.000 NA
ATOM     22  C   UNL     1       5.801  -0.283  -3.726  0.00  0.00    +0.000 A 
ATOM     23  C   UNL     1       5.597  -1.270  -2.752  0.00  0.00    +0.000 A 
ATOM     24  N   UNL     1       6.524  -1.646  -1.829  0.00  0.00    +0.000 NA
BRANCH  19  26
ATOM     25  N   UNL     1       8.501  -2.348  -0.087  0.00  0.00    +0.000 N 
ATOM     26  C   UNL     1       8.787  -1.333  -0.961  0.00  0.00    +0.000 C 
ATOM     27  O   UNL     1       9.865  -0.757  -0.949  0.00  0.00    +0.000 OA
ATOM     28  H   UNL     1       9.205  -2.644   0.576  0.00  0.00    +0.000 HD
ATOM     29  H   UNL     1       7.611  -2.828  -0.138  0.00  0.00    +0.000 HD
ENDBRANCH  19  26
ENDBRANCH  17  22
ENDBRANCH   1  17
TORSDOF 5
