REMARK  Name = 
REMARK  9 active torsions:
REMARK  status: ('A' for Active; 'I' for Inactive)
REMARK    1  A    between atoms: C_1  and  C_2
REMARK    2  A    between atoms: C_2  and  N_3
REMARK    3  A    between atoms: N_3  and  C_4
REMARK    4  A    between atoms: C_7  and  C_8
REMARK    5  A    between atoms: C_12  and  N_13
REMARK    6  A    between atoms: N_13  and  C_14
REMARK    7  A    between atoms: C_14  and  C_15
REMARK    8  A    between atoms: C_14  and  C_16
REMARK    9  A    between atoms: C_14  and  C_17
REMARK                            x       y       z     vdW  Elec       q    Type
REMARK                         _______ _______ _______ _____ _____    ______ ____
ROOT
ATOM      1  C   UNL     1       4.342   1.766   0.089  0.00  0.00    +0.000 A 
ATOM      2  N   UNL     1       4.750   2.607   1.070  0.00  0.00    +0.000 NA
ATOM      3  C   UNL     1       6.081   2.788   1.240  0.00  0.00    +0.000 A 
ATOM      4  C   UNL     1       7.049   2.153   0.487  0.00  0.00    +0.000 A 
ATOM      5  C   UNL     1       6.612   1.251  -0.485  0.00  0.00    +0.000 A 
ATOM      6  C   UNL     1       5.253   1.038  -0.727  0.00  0.00    +0.000 A 
ENDROOT
BRANCH   4   7
ATOM      7  C   UNL     1       8.505   2.403   0.616  0.00  0.00    +0.000 C 
ATOM      8  N   UNL     1       8.954   3.274   1.568  0.00  0.00    +0.000 N 
ATOM      9  O   UNL     1       9.311   1.858  -0.132  0.00  0.00    +0.000 OA
ATOM     10  H   UNL     1       8.387   3.774   2.232  0.00  0.00    +0.000 HD
ATOM     11  H   UNL     1       9.955   3.428   1.596  0.00  0.00    +0.000 HD
ENDBRANCH   4   7
BRANCH   1  12
ATOM     12  N   UNL     1       2.950   1.569  -0.116  0.00  0.00    +0.000 N 
ATOM     13  H   UNL     1       2.801   1.513  -1.120  0.00  0.00    +0.000 HD
BRANCH  12  15
ATOM     14  C   UNL     1       0.654   2.277   0.277  0.00  0.00    +0.000 C 
ATOM     15  C   UNL     1       2.122   2.619   0.473  0.00  0.00    +0.000 C 
ENDBRANCH  12  15
ENDBRANCH   1  12
BRANCH   6  16
ATOM     16  N   UNL     1       4.797   0.229  -1.755  0.00  0.00    +0.000 N 
ATOM     17  H   UNL     1       3.807  -0.017  -1.726  0.00  0.00    +0.000 HD
BRANCH  16  18
ATOM     18  C   UNL     1       5.427  -0.089  -3.058  0.00  0.00    +0.000 C 
ATOM     19  C   UNL     1       6.187   1.114  -3.647  0.00  0.00    +0.000 C 
ATOM     20  C   UNL     1       6.328  -1.323  -2.894  0.00  0.00    +0.000 C 
BRANCH  18  21
ATOM     21  C   UNL     1       4.320  -0.459  -4.087  0.00  0.00    +0.000 A 
ATOM     22  N   UNL     1       3.029  -0.381  -3.683  0.00  0.00    +0.000 NA
ATOM     23  C   UNL     1       2.092  -0.705  -4.597  0.00  0.00    +0.000 A 
ATOM     24  C   UNL     1       2.386  -1.100  -5.881  0.00  0.00    +0.000 A 
ATOM     25  C   UNL     1       3.720  -1.144  -6.197  0.00  0.00    +0.000 A 
ATOM     26  N   UNL     1       4.698  -0.830  -5.329  0.00  0.00    +0.000 NA
ENDBRANCH  18  21
ENDBRANCH  16  18
ENDBRANCH   6  16
TORSDOF 6
