REMARK  Name = 
REMARK  4 active torsions:
REMARK  status: ('A' for Active; 'I' for Inactive)
REMARK    1  A    between atoms: C_2  and  C_4
REMARK    2  A    between atoms: N_8  and  C_9
REMARK    3  A    between atoms: C_9  and  C_10
REMARK    4  A    between atoms: C_15  and  C_16
REMARK                            x       y       z     vdW  Elec       q    Type
REMARK                         _______ _______ _______ _____ _____    ______ ____
ROOT
ATOM      1  C   UNL     1       6.677   6.282   1.708  0.00  0.00    +0.000 A 
ATOM      2  C   UNL     1       6.199   7.513   1.253  0.00  0.00    +0.000 A 
ATOM      3  C   UNL     1       6.629   8.686   1.864  0.00  0.00    +0.000 A 
ATOM      4  C   UNL     1       7.538   8.634   2.923  0.00  0.00    +0.000 A 
ATOM      5  F   UNL     1       7.928   9.804   3.452  0.00  0.00    +0.000 F 
ATOM      6  C   UNL     1       8.045   7.420   3.418  0.00  0.00    +0.000 A 
ATOM      7  C   UNL     1       7.596   6.252   2.777  0.00  0.00    +0.000 A 
ENDROOT
BRANCH   6   8
ATOM      8  C   UNL     1       8.987   7.351   4.561  0.00  0.00    +0.000 A 
ATOM      9  C   UNL     1       9.977   6.354   4.644  0.00  0.00    +0.000 A 
ATOM     10  C   UNL     1      10.843   6.290   5.734  0.00  0.00    +0.000 A 
ATOM     11  F   UNL     1      11.765   5.319   5.782  0.00  0.00    +0.000 F 
ATOM     12  C   UNL     1      10.771   7.210   6.769  0.00  0.00    +0.000 A 
ATOM     13  C   UNL     1       9.804   8.203   6.706  0.00  0.00    +0.000 A 
ATOM     14 CL   UNL     1       9.691   9.363   7.973  0.00  0.00    +0.000 Cl
ATOM     15  C   UNL     1       8.918   8.270   5.627  0.00  0.00    +0.000 A 
ENDBRANCH   6   8
BRANCH   1  16
ATOM     16  C   UNL     1       6.253   4.985   1.056  0.00  0.00    +0.000 C 
BRANCH  16  21
ATOM     17  C   UNL     1       5.826   0.080   1.401  0.00  0.00    +0.000 A 
ATOM     18  C   UNL     1       6.812   0.925   0.953  0.00  0.00    +0.000 A 
ATOM     19  N   UNL     1       6.783   2.260   1.140  0.00  0.00    +0.000 NA
ATOM     20  C   UNL     1       5.723   2.770   1.784  0.00  0.00    +0.000 A 
ATOM     21  N   UNL     1       5.682   4.121   2.066  0.00  0.00    +0.000 N 
ATOM     22  N   UNL     1       4.698   2.034   2.232  0.00  0.00    +0.000 NA
ATOM     23  C   UNL     1       4.766   0.698   2.022  0.00  0.00    +0.000 A 
ATOM     24  H   UNL     1       4.745   4.357   2.365  0.00  0.00    +0.000 HD
BRANCH  17  26
ATOM     25  N   UNL     1       7.082  -1.974   1.106  0.00  0.00    +0.000 N 
ATOM     26  C   UNL     1       5.858  -1.374   1.210  0.00  0.00    +0.000 C 
ATOM     27  O   UNL     1       4.825  -2.028   1.180  0.00  0.00    +0.000 OA
ATOM     28  H   UNL     1       7.082  -2.987   1.073  0.00  0.00    +0.000 HD
ATOM     29  H   UNL     1       7.946  -1.526   1.382  0.00  0.00    +0.000 HD
ENDBRANCH  17  26
ENDBRANCH  16  21
ENDBRANCH   1  16
TORSDOF 4
