REMARK  Name = 
REMARK  6 active torsions:
REMARK  status: ('A' for Active; 'I' for Inactive)
REMARK    1  A    between atoms: C_1  and  O_2
REMARK    2  A    between atoms: O_2  and  C_3
REMARK    3  A    between atoms: C_5  and  C_6
REMARK    4  A    between atoms: C_6  and  N_7
REMARK    5  A    between atoms: N_7  and  C_8
REMARK    6  A    between atoms: C_11  and  C_12
REMARK                            x       y       z     vdW  Elec       q    Type
REMARK                         _______ _______ _______ _____ _____    ______ ____
ROOT
ATOM      1  N   UNL     1       1.864  -4.594   2.057  0.00  0.00    +0.000 N 
ATOM      2  H   UNL     1       1.868  -4.406   1.056  0.00  0.00    +0.000 HD
ENDROOT
BRANCH   1   3
ATOM      3  C   UNL     1       1.383  -5.870   2.362  0.00  0.00    +0.000 A 
ATOM      4  C   UNL     1       1.576  -6.540   3.562  0.00  0.00    +0.000 A 
ATOM      5  N   UNL     1       1.050  -7.747   3.879  0.00  0.00    +0.000 NA
ATOM      6  C   UNL     1       0.250  -8.294   2.934  0.00  0.00    +0.000 A 
ATOM      7  N   UNL     1      -0.053  -7.737   1.748  0.00  0.00    +0.000 NA
ATOM      8  C   UNL     1       0.508  -6.532   1.510  0.00  0.00    +0.000 A 
BRANCH   6   9
ATOM      9  C   UNL     1      -0.359  -9.641   3.260  0.00  0.00    +0.000 C 
ATOM     10  N   UNL     1      -0.049 -10.149   4.503  0.00  0.00    +0.000 N 
ATOM     11  O   UNL     1      -1.088 -10.267   2.500  0.00  0.00    +0.000 OA
ATOM     12  H   UNL     1       0.531  -9.617   5.142  0.00  0.00    +0.000 HD
ATOM     13  H   UNL     1      -0.454 -11.030   4.784  0.00  0.00    +0.000 HD
ENDBRANCH   6   9
ENDBRANCH   1   3
BRANCH   1  14
ATOM     14  C   UNL     1       3.085  -4.132   2.709  0.00  0.00    +0.000 C 
BRANCH  14  17
ATOM     15  C   UNL     1       3.098  -0.423   1.902  0.00  0.00    +0.000 A 
ATOM     16  C   UNL     1       2.669  -1.653   2.380  0.00  0.00    +0.000 A 
ATOM     17  C   UNL     1       3.481  -2.776   2.177  0.00  0.00    +0.000 A 
ATOM     18  C   UNL     1       4.689  -2.603   1.495  0.00  0.00    +0.000 A 
ATOM     19  C   UNL     1       5.034  -1.332   1.062  0.00  0.00    +0.000 A 
ATOM     20  N   UNL     1       4.267  -0.240   1.253  0.00  0.00    +0.000 NA
BRANCH  15  22
ATOM     21  C   UNL     1       2.780   1.873   1.593  0.00  0.00    +0.000 C 
ATOM     22  O   UNL     1       2.261   0.653   2.119  0.00  0.00    +0.000 OA
ENDBRANCH  15  22
ENDBRANCH  14  17
ENDBRANCH   1  14
TORSDOF 5
