REMARK  Name = 
REMARK  8 active torsions:
REMARK  status: ('A' for Active; 'I' for Inactive)
REMARK    1  A    between atoms: N_1  and  C_2
REMARK    2  A    between atoms: C_2  and  C_3
REMARK    3  A    between atoms: C_2  and  C_18
REMARK    4  A    between atoms: C_3  and  C_4
REMARK    5  A    between atoms: C_7  and  C_8
REMARK    6  A    between atoms: C_8  and  C_9
REMARK    7  A    between atoms: C_9  and  C_10
REMARK    8  A    between atoms: C_10  and  N_11
REMARK                            x       y       z     vdW  Elec       q    Type
REMARK                         _______ _______ _______ _____ _____    ______ ____
ROOT
ATOM      1  C   UNL     1       0.921  -0.099   0.055  0.00  0.00    +0.000 C 
ENDROOT
BRANCH   1   2
ATOM      2  C   UNL     1       0.361  -0.862   1.240  0.00  0.00    +0.000 A 
ATOM      3  C   UNL     1       1.181  -1.493   2.181  0.00  0.00    +0.000 A 
ATOM      4  C   UNL     1       0.629  -2.139   3.288  0.00  0.00    +0.000 A 
ATOM      5  C   UNL     1      -0.759  -2.155   3.489  0.00  0.00    +0.000 A 
ATOM      6  C   UNL     1      -1.583  -1.516   2.559  0.00  0.00    +0.000 A 
ATOM      7  C   UNL     1      -1.027  -0.874   1.448  0.00  0.00    +0.000 A 
BRANCH   5   8
ATOM      8  C   UNL     1      -1.333  -2.794   4.729  0.00  0.00    +0.000 C 
BRANCH   8   9
ATOM      9  C   UNL     1      -1.390  -1.780   5.875  0.00  0.00    +0.000 C 
BRANCH   9  10
ATOM     10  C   UNL     1      -1.942  -2.362   7.183  0.00  0.00    +0.000 C 
BRANCH  10  11
ATOM     11  N   UNL     1      -1.179  -3.492   7.720  0.00  0.00    +0.000 NA
ATOM     12  C   UNL     1       0.210  -3.151   8.059  0.00  0.00    +0.000 C 
ATOM     13  C   UNL     1       0.448  -3.844   9.389  0.00  0.00    +0.000 C 
ATOM     14  N   UNL     1      -0.866  -3.755  10.032  0.00  0.00    +0.000 NA
ATOM     15  C   UNL     1      -1.784  -4.036   8.934  0.00  0.00    +0.000 C 
ATOM     16  H   UNL     1      -1.021  -2.785  10.302  0.00  0.00    +0.000 HD
ENDBRANCH  10  11
ENDBRANCH   9  10
ENDBRANCH   8   9
ENDBRANCH   5   8
ENDBRANCH   1   2
BRANCH   1  17
ATOM     17  C   UNL     1       2.302  -0.530  -0.504  0.00  0.00    +0.000 C 
BRANCH  17  18
ATOM     18  C   UNL     1       2.700   0.351  -1.677  0.00  0.00    +0.000 A 
ATOM     19  C   UNL     1       2.407   0.120  -3.013  0.00  0.00    +0.000 A 
ATOM     20  S   UNL     1       2.991   1.341  -4.056  0.00  0.00    +0.000 S 
ATOM     21  C   UNL     1       3.614   2.242  -2.753  0.00  0.00    +0.000 A 
ATOM     22  N   UNL     1       4.220   3.444  -2.949  0.00  0.00    +0.000 NA
ATOM     23  C   UNL     1       4.619   4.019  -1.862  0.00  0.00    +0.000 A 
ATOM     24  N   UNL     1       4.480   3.498  -0.601  0.00  0.00    +0.000 N 
ATOM     25  C   UNL     1       3.882   2.284  -0.352  0.00  0.00    +0.000 A 
ATOM     26  O   UNL     1       3.767   1.848   0.788  0.00  0.00    +0.000 OA
ATOM     27  C   UNL     1       3.404   1.606  -1.545  0.00  0.00    +0.000 A 
ATOM     28  H   UNL     1       4.813   4.000   0.208  0.00  0.00    +0.000 HD
ENDBRANCH  17  18
BRANCH  17  29
ATOM     29  N   UNL     1       2.328  -1.936  -0.921  0.00  0.00    +0.000 NA
ATOM     30  H   UNL     1       3.147  -2.117  -1.496  0.00  0.00    +0.000 HD
ATOM     31  H   UNL     1       1.498  -2.161  -1.463  0.00  0.00    +0.000 HD
ENDBRANCH  17  29
ENDBRANCH   1  17
TORSDOF 8
