REMARK  Name = 
REMARK  6 active torsions:
REMARK  status: ('A' for Active; 'I' for Inactive)
REMARK    1  A    between atoms: C_2  and  C_4
REMARK    2  A    between atoms: C_7  and  C_8
REMARK    3  A    between atoms: C_8  and  N_9
REMARK    4  A    between atoms: N_9  and  C_10
REMARK    5  A    between atoms: C_13  and  C_14
REMARK    6  A    between atoms: C_18  and  O_19
REMARK                            x       y       z     vdW  Elec       q    Type
REMARK                         _______ _______ _______ _____ _____    ______ ____
ROOT
ATOM      1  N   UNL     1       4.780  -0.483   6.032  0.00  0.00    +0.000 N 
ATOM      2  H   UNL     1       4.517  -1.446   5.839  0.00  0.00    +0.000 HD
ENDROOT
BRANCH   1   3
ATOM      3  C   UNL     1       5.517  -0.459   7.231  0.00  0.00    +0.000 A 
ATOM      4  N   UNL     1       6.665   0.251   7.288  0.00  0.00    +0.000 NA
ATOM      5  C   UNL     1       7.341   0.282   8.462  0.00  0.00    +0.000 A 
ATOM      6  C   UNL     1       6.919  -0.349   9.621  0.00  0.00    +0.000 A 
ATOM      7  C   UNL     1       5.722  -1.066   9.564  0.00  0.00    +0.000 A 
ATOM      8  C   UNL     1       5.022  -1.129   8.361  0.00  0.00    +0.000 A 
BRANCH   6   9
ATOM      9  C   UNL     1       7.678  -0.301  10.892  0.00  0.00    +0.000 C 
ATOM     10  N   UNL     1       8.864   0.376  10.937  0.00  0.00    +0.000 N 
ATOM     11  O   UNL     1       7.256  -0.869  11.894  0.00  0.00    +0.000 OA
ATOM     12  H   UNL     1       9.305   0.868  10.176  0.00  0.00    +0.000 HD
ATOM     13  H   UNL     1       9.350   0.375  11.827  0.00  0.00    +0.000 HD
ENDBRANCH   6   9
BRANCH   8  14
ATOM     14  O   UNL     1       3.865  -1.858   8.271  0.00  0.00    +0.000 OA
ATOM     15  H   UNL     1       3.646  -2.211   9.150  0.00  0.00    +0.000 HD
ENDBRANCH   8  14
ENDBRANCH   1   3
BRANCH   1  16
ATOM     16  C   UNL     1       5.463   0.169   4.923  0.00  0.00    +0.000 C 
BRANCH  16  20
ATOM     17  C   UNL     1       3.313   0.001   1.171  0.00  0.00    +0.000 A 
ATOM     18  C   UNL     1       2.601  -0.012   2.375  0.00  0.00    +0.000 A 
ATOM     19  C   UNL     1       3.285   0.029   3.594  0.00  0.00    +0.000 A 
ATOM     20  C   UNL     1       4.687   0.059   3.627  0.00  0.00    +0.000 A 
ATOM     21  C   UNL     1       5.390   0.075   2.411  0.00  0.00    +0.000 A 
ATOM     22  C   UNL     1       4.711   0.036   1.193  0.00  0.00    +0.000 A 
BRANCH  17  24
ATOM     23  N   UNL     1       1.371   0.499  -0.208  0.00  0.00    +0.000 N 
ATOM     24  C   UNL     1       2.630  -0.026  -0.148  0.00  0.00    +0.000 C 
ATOM     25  O   UNL     1       3.182  -0.458  -1.152  0.00  0.00    +0.000 OA
ATOM     26  H   UNL     1       0.965   0.582  -1.131  0.00  0.00    +0.000 HD
ATOM     27  H   UNL     1       1.000   1.092   0.522  0.00  0.00    +0.000 HD
ENDBRANCH  17  24
ENDBRANCH  16  20
ENDBRANCH   1  16
TORSDOF 6
