REMARK  Name = 
REMARK  9 active torsions:
REMARK  status: ('A' for Active; 'I' for Inactive)
REMARK    1  A    between atoms: C_1  and  C_2
REMARK    2  A    between atoms: C_2  and  N_3
REMARK    3  A    between atoms: C_2  and  C_19
REMARK    4  A    between atoms: N_3  and  C_4
REMARK    5  A    between atoms: C_4  and  C_5
REMARK    6  A    between atoms: C_8  and  C_9
REMARK    7  A    between atoms: C_9  and  N_10
REMARK    8  A    between atoms: N_10  and  C_11
REMARK    9  A    between atoms: C_11  and  C_12
REMARK                            x       y       z     vdW  Elec       q    Type
REMARK                         _______ _______ _______ _____ _____    ______ ____
ROOT
ATOM      1  C   UNL     1       0.681  -3.299  -4.484  0.00  0.00    +0.000 C 
ENDROOT
BRANCH   1   2
ATOM      2  C   UNL     1       0.427  -1.922  -5.134  0.00  0.00    +0.000 C 
ATOM      3  C   UNL     1       1.641  -0.978  -5.019  0.00  0.00    +0.000 C 
ATOM      4  C   UNL     1       2.744  -1.264  -6.040  0.00  0.00    +0.000 C 
ATOM      5  C   UNL     1       2.227  -1.288  -7.487  0.00  0.00    +0.000 C 
ATOM      6  C   UNL     1       1.098  -2.319  -7.599  0.00  0.00    +0.000 C 
ATOM      7  C   UNL     1      -0.034  -2.111  -6.594  0.00  0.00    +0.000 C 
BRANCH   5   8
ATOM      8  C   UNL     1       1.825   0.115  -8.014  0.00  0.00    +0.000 C 
BRANCH   8   9
ATOM      9  N   UNL     1       3.016   0.961  -8.001  0.00  0.00    +0.000 NA
ATOM     10  H   UNL     1       3.726   0.549  -8.610  0.00  0.00    +0.000 HD
BRANCH   9  11
ATOM     11  C   UNL     1       2.784   2.328  -8.460  0.00  0.00    +0.000 C 
BRANCH  11  12
ATOM     12  C   UNL     1       4.071   3.083  -8.330  0.00  0.00    +0.000 A 
ATOM     13  C   UNL     1       4.625   4.096  -9.095  0.00  0.00    +0.000 A 
ATOM     14  C   UNL     1       5.878   4.423  -8.524  0.00  0.00    +0.000 A 
ATOM     15  C   UNL     1       6.063   3.613  -7.426  0.00  0.00    +0.000 A 
ATOM     16  N   UNL     1       4.953   2.824  -7.305  0.00  0.00    +0.000 N 
ATOM     17  H   UNL     1       4.798   2.107  -6.605  0.00  0.00    +0.000 HD
ENDBRANCH  11  12
ENDBRANCH   9  11
ENDBRANCH   8   9
ENDBRANCH   5   8
ENDBRANCH   1   2
BRANCH   1  18
ATOM     18  N   UNL     1       0.945  -3.186  -3.049  0.00  0.00    +0.000 NA
ATOM     19  H   UNL     1       0.167  -2.712  -2.599  0.00  0.00    +0.000 HD
BRANCH  18  21
ATOM     20  C   UNL     1       2.272  -5.299  -3.007  0.00  0.00    +0.000 C 
ATOM     21  C   UNL     1       1.123  -4.502  -2.395  0.00  0.00    +0.000 C 
BRANCH  21  22
ATOM     22  C   UNL     1       1.301  -4.238  -0.908  0.00  0.00    +0.000 A 
ATOM     23  C   UNL     1       2.007  -3.181  -0.351  0.00  0.00    +0.000 A 
ATOM     24  S   UNL     1       1.819  -3.058   1.344  0.00  0.00    +0.000 S 
ATOM     25  C   UNL     1       0.797  -4.419   1.388  0.00  0.00    +0.000 A 
ATOM     26  N   UNL     1       0.168  -4.801   2.532  0.00  0.00    +0.000 NA
ATOM     27  C   UNL     1      -0.600  -5.831   2.395  0.00  0.00    +0.000 A 
ATOM     28  N   UNL     1      -0.751  -6.550   1.233  0.00  0.00    +0.000 N 
ATOM     29  C   UNL     1      -0.081  -6.242   0.071  0.00  0.00    +0.000 A 
ATOM     30  O   UNL     1      -0.140  -6.962  -0.919  0.00  0.00    +0.000 OA
ATOM     31  C   UNL     1       0.690  -5.015   0.146  0.00  0.00    +0.000 A 
ATOM     32  H   UNL     1      -1.320  -7.381   1.212  0.00  0.00    +0.000 HD
ENDBRANCH  21  22
ENDBRANCH  18  21
ENDBRANCH   1  18
TORSDOF 8
