REMARK  Name = 
REMARK  5 active torsions:
REMARK  status: ('A' for Active; 'I' for Inactive)
REMARK    1  A    between atoms: C_2  and  C_4
REMARK    2  A    between atoms: C_7  and  C_8
REMARK    3  A    between atoms: C_8  and  O_9
REMARK    4  A    between atoms: O_9  and  C_10
REMARK    5  A    between atoms: C_16  and  C_17
REMARK                            x       y       z     vdW  Elec       q    Type
REMARK                         _______ _______ _______ _____ _____    ______ ____
ROOT
ATOM      1  O   UNL     1       4.866  -5.049  -2.953  0.00  0.00    +0.000 OA
ENDROOT
BRANCH   1   2
ATOM      2  C   UNL     1       5.421  -6.208  -3.465  0.00  0.00    +0.000 A 
ATOM      3  N   UNL     1       5.589  -6.276  -4.813  0.00  0.00    +0.000 NA
ATOM      4  C   UNL     1       6.070  -7.432  -5.316  0.00  0.00    +0.000 A 
ATOM      5  C   UNL     1       6.404  -8.516  -4.532  0.00  0.00    +0.000 A 
ATOM      6  F   UNL     1       6.858  -9.646  -5.088  0.00  0.00    +0.000 F 
ATOM      7  C   UNL     1       6.253  -8.423  -3.156  0.00  0.00    +0.000 A 
ATOM      8  C   UNL     1       5.742  -7.249  -2.567  0.00  0.00    +0.000 A 
BRANCH   8   9
ATOM      9  C   UNL     1       5.536  -7.173  -1.098  0.00  0.00    +0.000 A 
ATOM     10  C   UNL     1       5.765  -5.997  -0.370  0.00  0.00    +0.000 A 
ATOM     11  C   UNL     1       5.493  -5.966   0.991  0.00  0.00    +0.000 A 
ATOM     12  N   UNL     1       5.045  -7.026   1.691  0.00  0.00    +0.000 NA
ATOM     13  C   UNL     1       4.855  -8.163   0.997  0.00  0.00    +0.000 A 
ATOM     14  C   UNL     1       5.081  -8.283  -0.368  0.00  0.00    +0.000 A 
ENDBRANCH   8   9
ENDBRANCH   1   2
BRANCH   1  15
ATOM     15  C   UNL     1       4.484  -4.107  -3.954  0.00  0.00    +0.000 C 
BRANCH  15  19
ATOM     16  C   UNL     1       2.569  -0.740  -2.024  0.00  0.00    +0.000 A 
ATOM     17  C   UNL     1       3.947  -0.717  -2.270  0.00  0.00    +0.000 A 
ATOM     18  C   UNL     1       4.568  -1.807  -2.889  0.00  0.00    +0.000 A 
ATOM     19  C   UNL     1       3.823  -2.930  -3.278  0.00  0.00    +0.000 A 
ATOM     20  C   UNL     1       2.444  -2.953  -3.009  0.00  0.00    +0.000 A 
ATOM     21  C   UNL     1       1.823  -1.868  -2.386  0.00  0.00    +0.000 A 
BRANCH  16  23
ATOM     22  N   UNL     1       2.401   1.636  -1.505  0.00  0.00    +0.000 N 
ATOM     23  C   UNL     1       1.866   0.387  -1.358  0.00  0.00    +0.000 C 
ATOM     24  O   UNL     1       0.824   0.219  -0.737  0.00  0.00    +0.000 OA
ATOM     25  H   UNL     1       1.845   2.402  -1.142  0.00  0.00    +0.000 HD
ATOM     26  H   UNL     1       3.085   1.848  -2.215  0.00  0.00    +0.000 HD
ENDBRANCH  16  23
ENDBRANCH  15  19
ENDBRANCH   1  15
TORSDOF 5
