REMARK  Name = 
REMARK  9 active torsions:
REMARK  status: ('A' for Active; 'I' for Inactive)
REMARK    1  A    between atoms: C_1  and  C_2
REMARK    2  A    between atoms: C_2  and  N_3
REMARK    3  A    between atoms: C_2  and  C_19
REMARK    4  A    between atoms: N_3  and  C_4
REMARK    5  A    between atoms: C_7  and  C_8
REMARK    6  A    between atoms: C_8  and  N_9
REMARK    7  A    between atoms: N_9  and  C_10
REMARK    8  A    between atoms: C_13  and  N_14
REMARK    9  A    between atoms: C_19  and  C_21
REMARK                            x       y       z     vdW  Elec       q    Type
REMARK                         _______ _______ _______ _____ _____    ______ ____
ROOT
ATOM      1  C   UNL     1       2.633  -0.905   2.290  0.00  0.00    +0.000 A 
ATOM      2  C   UNL     1       1.336  -0.705   2.762  0.00  0.00    +0.000 A 
ATOM      3  C   UNL     1       1.052  -0.772   4.129  0.00  0.00    +0.000 A 
ATOM      4  C   UNL     1       2.071  -1.105   5.016  0.00  0.00    +0.000 A 
ATOM      5  N   UNL     1       3.336  -1.353   4.594  0.00  0.00    +0.000 NA
ATOM      6  C   UNL     1       3.578  -1.236   3.260  0.00  0.00    +0.000 A 
ENDROOT
BRANCH   1   7
ATOM      7  N   UNL     1       2.886  -0.822   0.931  0.00  0.00    +0.000 N 
ATOM      8  H   UNL     1       2.105  -0.565   0.330  0.00  0.00    +0.000 HD
BRANCH   7  10
ATOM      9  C   UNL     1       4.528   1.005   0.618  0.00  0.00    +0.000 C 
ATOM     10  C   UNL     1       4.198  -0.468   0.371  0.00  0.00    +0.000 C 
BRANCH  10  11
ATOM     11  C   UNL     1       4.196  -0.731  -1.152  0.00  0.00    +0.000 C 
ATOM     12  O   UNL     1       3.142  -0.582  -1.793  0.00  0.00    +0.000 OA
BRANCH  11  13
ATOM     13  C   UNL     1       5.455  -0.985  -1.874  0.00  0.00    +0.000 A 
ATOM     14  C   UNL     1       5.597  -0.573  -3.191  0.00  0.00    +0.000 A 
ATOM     15  S   UNL     1       7.164  -0.824  -3.820  0.00  0.00    +0.000 S 
ATOM     16  C   UNL     1       7.693  -1.525  -2.363  0.00  0.00    +0.000 A 
ATOM     17  N   UNL     1       8.981  -1.931  -2.206  0.00  0.00    +0.000 NA
ATOM     18  C   UNL     1       9.253  -2.399  -1.034  0.00  0.00    +0.000 A 
ATOM     19  N   UNL     1       8.346  -2.528  -0.015  0.00  0.00    +0.000 N 
ATOM     20  C   UNL     1       7.004  -2.335  -0.210  0.00  0.00    +0.000 A 
ATOM     21  O   UNL     1       6.179  -2.792   0.573  0.00  0.00    +0.000 OA
ATOM     22  C   UNL     1       6.671  -1.626  -1.434  0.00  0.00    +0.000 A 
ATOM     23  H   UNL     1       8.605  -2.991   0.844  0.00  0.00    +0.000 HD
ENDBRANCH  11  13
ENDBRANCH  10  11
ENDBRANCH   7  10
ENDBRANCH   1   7
BRANCH   4  24
ATOM     24  C   UNL     1       1.752  -1.302   6.491  0.00  0.00    +0.000 C 
BRANCH  24  25
ATOM     25  N   UNL     1       2.857  -1.034   7.433  0.00  0.00    +0.000 NA
ATOM     26  H   UNL     1       3.618  -1.661   7.161  0.00  0.00    +0.000 HD
BRANCH  25  27
ATOM     27  C   UNL     1       3.362   0.347   7.378  0.00  0.00    +0.000 C 
ATOM     28  C   UNL     1       2.278   1.374   7.736  0.00  0.00    +0.000 C 
ATOM     29  C   UNL     1       2.837   2.792   7.749  0.00  0.00    +0.000 C 
ATOM     30  C   UNL     1       4.017   2.911   8.712  0.00  0.00    +0.000 C 
ATOM     31  C   UNL     1       5.116   1.904   8.357  0.00  0.00    +0.000 C 
ATOM     32  C   UNL     1       4.571   0.473   8.325  0.00  0.00    +0.000 C 
BRANCH  30  33
ATOM     33  N   UNL     1       4.530   4.279   8.673  0.00  0.00    +0.000 NA
ATOM     34  H   UNL     1       4.860   4.499   7.734  0.00  0.00    +0.000 HD
ATOM     35  H   UNL     1       5.342   4.358   9.285  0.00  0.00    +0.000 HD
ENDBRANCH  30  33
ENDBRANCH  25  27
ENDBRANCH  24  25
ENDBRANCH   4  24
TORSDOF 8
