REMARK  Name = 
REMARK  8 active torsions:
REMARK  status: ('A' for Active; 'I' for Inactive)
REMARK    1  A    between atoms: C_2  and  C_20
REMARK    2  A    between atoms: N_3  and  C_4
REMARK    3  A    between atoms: C_4  and  C_5
REMARK    4  A    between atoms: C_8  and  C_9
REMARK    5  A    between atoms: C_9  and  O_10
REMARK    6  A    between atoms: C_9  and  C_11
REMARK    7  A    between atoms: C_11  and  C_12
REMARK    8  A    between atoms: C_12  and  N_13
REMARK                            x       y       z     vdW  Elec       q    Type
REMARK                         _______ _______ _______ _____ _____    ______ ____
ROOT
ATOM      1  C   UNL     1       3.030  -8.318  -8.876  0.00  0.00    +0.000 C 
ENDROOT
BRANCH   1   2
ATOM      2  C   UNL     1       3.665  -7.535  -7.759  0.00  0.00    +0.000 A 
ATOM      3  C   UNL     1       4.290  -6.315  -8.034  0.00  0.00    +0.000 A 
ATOM      4  C   UNL     1       4.937  -5.604  -7.025  0.00  0.00    +0.000 A 
ATOM      5  C   UNL     1       4.997  -6.103  -5.716  0.00  0.00    +0.000 A 
ATOM      6  C   UNL     1       4.362  -7.326  -5.443  0.00  0.00    +0.000 A 
ATOM      7  C   UNL     1       3.707  -8.038  -6.453  0.00  0.00    +0.000 A 
BRANCH   5   8
ATOM      8  C   UNL     1       5.752  -5.404  -4.601  0.00  0.00    +0.000 C 
BRANCH   8   9
ATOM      9  O   UNL     1       4.835  -5.110  -3.543  0.00  0.00    +0.000 OA
ATOM     10  H   UNL     1       4.053  -4.702  -3.955  0.00  0.00    +0.000 HD
ENDBRANCH   8   9
BRANCH   8  11
ATOM     11  C   UNL     1       6.473  -4.106  -4.999  0.00  0.00    +0.000 C 
BRANCH  11  12
ATOM     12  C   UNL     1       7.261  -3.535  -3.817  0.00  0.00    +0.000 C 
BRANCH  12  13
ATOM     13  N   UNL     1       8.051  -2.332  -4.148  0.00  0.00    +0.000 NA
ATOM     14  C   UNL     1       8.801  -1.888  -2.956  0.00  0.00    +0.000 C 
ATOM     15  C   UNL     1       7.792  -1.092  -2.145  0.00  0.00    +0.000 C 
ATOM     16  C   UNL     1       6.960  -0.392  -3.206  0.00  0.00    +0.000 C 
ATOM     17  C   UNL     1       7.231  -1.159  -4.497  0.00  0.00    +0.000 C 
ENDBRANCH  12  13
ENDBRANCH  11  12
ENDBRANCH   8  11
ENDBRANCH   5   8
ENDBRANCH   1   2
BRANCH   1  20
ATOM     18  O   UNL     1       4.618  -7.873 -11.166  0.00  0.00    +0.000 OA
ATOM     19  C   UNL     1       4.766  -8.912 -10.528  0.00  0.00    +0.000 C 
ATOM     20  N   UNL     1       3.979  -9.237  -9.453  0.00  0.00    +0.000 N 
ATOM     21  H   UNL     1       4.271  -9.996  -8.848  0.00  0.00    +0.000 HD
BRANCH  19  22
ATOM     22  C   UNL     1       5.774  -9.908 -10.914  0.00  0.00    +0.000 A 
ATOM     23  C   UNL     1       6.270  -9.923 -12.211  0.00  0.00    +0.000 A 
ATOM     24  S   UNL     1       7.413 -11.158 -12.492  0.00  0.00    +0.000 S 
ATOM     25  C   UNL     1       7.324 -11.684 -10.875  0.00  0.00    +0.000 A 
ATOM     26  N   UNL     1       8.097 -12.715 -10.434  0.00  0.00    +0.000 NA
ATOM     27  C   UNL     1       7.962 -12.978  -9.177  0.00  0.00    +0.000 A 
ATOM     28  N   UNL     1       7.121 -12.316  -8.326  0.00  0.00    +0.000 N 
ATOM     29  C   UNL     1       6.269 -11.322  -8.744  0.00  0.00    +0.000 A 
ATOM     30  O   UNL     1       5.429 -10.845  -7.984  0.00  0.00    +0.000 OA
ATOM     31  C   UNL     1       6.415 -10.948 -10.140  0.00  0.00    +0.000 A 
ATOM     32  H   UNL     1       7.038 -12.590  -7.358  0.00  0.00    +0.000 HD
ENDBRANCH  19  22
ENDBRANCH   1  20
TORSDOF 8
