REMARK  Name = 
REMARK  8 active torsions:
REMARK  status: ('A' for Active; 'I' for Inactive)
REMARK    1  A    between atoms: C_1  and  C_2
REMARK    2  A    between atoms: C_2  and  N_3
REMARK    3  A    between atoms: C_2  and  C_25
REMARK    4  A    between atoms: N_3  and  C_4
REMARK    5  A    between atoms: C_4  and  C_5
REMARK    6  A    between atoms: C_8  and  C_9
REMARK    7  A    between atoms: C_9  and  N_10
REMARK    8  A    between atoms: C_11  and  C_13
REMARK                            x       y       z     vdW  Elec       q    Type
REMARK                         _______ _______ _______ _____ _____    ______ ____
ROOT
ATOM      1  C   UNL     1      -0.992  -0.019  -1.335  0.00  0.00    +0.000 A 
ATOM      2  N   UNL     1      -1.560  -0.968  -0.561  0.00  0.00    +0.000 NA
ATOM      3  C   UNL     1      -2.905  -1.023  -0.557  0.00  0.00    +0.000 A 
ATOM      4  C   UNL     1      -3.709  -0.176  -1.286  0.00  0.00    +0.000 A 
ATOM      5  C   UNL     1      -3.032   0.778  -2.018  0.00  0.00    +0.000 A 
ATOM      6  N   UNL     1      -1.687   0.874  -2.070  0.00  0.00    +0.000 NA
ENDROOT
BRANCH   1   7
ATOM      7  C   UNL     1       0.532   0.051  -1.377  0.00  0.00    +0.000 C 
BRANCH   7   8
ATOM      8  N   UNL     1       1.153  -1.180  -1.895  0.00  0.00    +0.000 NA
ATOM      9  H   UNL     1       0.743  -1.383  -2.806  0.00  0.00    +0.000 HD
BRANCH   8  11
ATOM     10  C   UNL     1       3.296  -0.812  -0.660  0.00  0.00    +0.000 C 
ATOM     11  C   UNL     1       2.619  -1.159  -1.995  0.00  0.00    +0.000 C 
BRANCH  11  12
ATOM     12  C   UNL     1       3.063  -2.543  -2.562  0.00  0.00    +0.000 C 
ATOM     13  C   UNL     1       2.610  -3.730  -1.686  0.00  0.00    +0.000 C 
ATOM     14  C   UNL     1       3.149  -5.052  -2.212  0.00  0.00    +0.000 C 
ATOM     15  O   UNL     1       4.568  -5.006  -2.339  0.00  0.00    +0.000 OA
ATOM     16  C   UNL     1       4.984  -4.022  -3.282  0.00  0.00    +0.000 C 
ATOM     17  C   UNL     1       4.578  -2.630  -2.818  0.00  0.00    +0.000 C 
ENDBRANCH  11  12
ENDBRANCH   8  11
ENDBRANCH   7   8
ENDBRANCH   1   7
BRANCH   4  18
ATOM     18  C   UNL     1      -5.194  -0.309  -1.292  0.00  0.00    +0.000 C 
BRANCH  18  19
ATOM     19  N   UNL     1      -5.832   0.431  -0.236  0.00  0.00    +0.000 N 
ATOM     20  C   UNL     1      -7.204   0.403  -0.134  0.00  0.00    +0.000 C 
ATOM     21  O   UNL     1      -7.898  -0.159  -0.979  0.00  0.00    +0.000 OA
ATOM     22  H   UNL     1      -5.291   0.618   0.604  0.00  0.00    +0.000 HD
BRANCH  20  23
ATOM     23  C   UNL     1      -7.804   1.135   0.984  0.00  0.00    +0.000 A 
ATOM     24  C   UNL     1      -9.185   1.214   1.112  0.00  0.00    +0.000 A 
ATOM     25  S   UNL     1      -9.685   2.390   2.245  0.00  0.00    +0.000 S 
ATOM     26  C   UNL     1      -8.076   2.741   2.666  0.00  0.00    +0.000 A 
ATOM     27  N   UNL     1      -7.759   3.750   3.525  0.00  0.00    +0.000 NA
ATOM     28  C   UNL     1      -6.504   3.853   3.789  0.00  0.00    +0.000 A 
ATOM     29  N   UNL     1      -5.529   3.005   3.317  0.00  0.00    +0.000 N 
ATOM     30  C   UNL     1      -5.808   1.955   2.476  0.00  0.00    +0.000 A 
ATOM     31  O   UNL     1      -4.952   1.138   2.155  0.00  0.00    +0.000 OA
ATOM     32  C   UNL     1      -7.187   1.890   2.041  0.00  0.00    +0.000 A 
ATOM     33  H   UNL     1      -4.578   3.081   3.641  0.00  0.00    +0.000 HD
ENDBRANCH  20  23
ENDBRANCH  18  19
ENDBRANCH   4  18
TORSDOF 7
