REMARK  Name = 
REMARK  6 active torsions:
REMARK  status: ('A' for Active; 'I' for Inactive)
REMARK    1  A    between atoms: C_1  and  C_2
REMARK    2  A    between atoms: C_2  and  C_3
REMARK    3  A    between atoms: C_2  and  N_15
REMARK    4  A    between atoms: C_9  and  C_10
REMARK    5  A    between atoms: C_18  and  C_19
REMARK    6  A    between atoms: C_19  and  N_20
REMARK                            x       y       z     vdW  Elec       q    Type
REMARK                         _______ _______ _______ _____ _____    ______ ____
ROOT
ATOM      1  C   UNL     1       0.981   0.093   0.064  0.00  0.00    +0.000 A 
ATOM      2  C   UNL     1       0.193  -1.137   0.177  0.00  0.00    +0.000 A 
ATOM      3  C   UNL     1      -1.151  -1.128   0.149  0.00  0.00    +0.000 A 
ATOM      4  C   UNL     1      -1.848   0.105   0.020  0.00  0.00    +0.000 A 
ATOM      5  N   UNL     1      -3.135   0.349  -0.078  0.00  0.00    +0.000 NA
ATOM      6  C   UNL     1      -3.231   1.710  -0.168  0.00  0.00    +0.000 A 
ATOM      7  C   UNL     1      -1.993   2.329  -0.110  0.00  0.00    +0.000 A 
ATOM      8  N   UNL     1      -1.091   1.274  -0.028  0.00  0.00    +0.000 N 
ATOM      9  C   UNL     1       0.308   1.263  -0.012  0.00  0.00    +0.000 A 
ENDROOT
BRANCH   7  10
ATOM     10  C   UNL     1      -1.656   3.727  -0.131  0.00  0.00    +0.000 C 
ATOM     11  N   UNL     1      -2.703   4.603  -0.194  0.00  0.00    +0.000 N 
ATOM     12  O   UNL     1      -0.517   4.181  -0.084  0.00  0.00    +0.000 OA
ATOM     13  H   UNL     1      -3.673   4.332  -0.201  0.00  0.00    +0.000 HD
ATOM     14  H   UNL     1      -2.478   5.589  -0.178  0.00  0.00    +0.000 HD
ENDBRANCH   7  10
BRANCH   1  16
ATOM     15  C   UNL     1       3.041  -0.439   1.366  0.00  0.00    +0.000 C 
ATOM     16  C   UNL     1       2.504   0.003  -0.009  0.00  0.00    +0.000 C 
BRANCH  16  17
ATOM     17  N   UNL     1       2.966  -0.856  -1.145  0.00  0.00    +0.000 NA
ATOM     18  C   UNL     1       2.536  -0.261  -2.433  0.00  0.00    +0.000 C 
ATOM     19  C   UNL     1       3.067  -1.006  -3.658  0.00  0.00    +0.000 C 
ATOM     20  C   UNL     1       4.594  -1.118  -3.641  0.00  0.00    +0.000 C 
ATOM     21  C   UNL     1       4.979  -1.809  -2.330  0.00  0.00    +0.000 C 
ATOM     22  C   UNL     1       4.421  -1.080  -1.103  0.00  0.00    +0.000 C 
BRANCH  20  23
ATOM     23  C   UNL     1       5.317   0.236  -3.789  0.00  0.00    +0.000 C 
BRANCH  23  24
ATOM     24  N   UNL     1       4.982   0.901  -5.043  0.00  0.00    +0.000 NA
ATOM     25  H   UNL     1       5.286   0.327  -5.828  0.00  0.00    +0.000 HD
ATOM     26  H   UNL     1       5.501   1.776  -5.111  0.00  0.00    +0.000 HD
ENDBRANCH  23  24
ENDBRANCH  20  23
ENDBRANCH  16  17
ENDBRANCH   1  16
TORSDOF 5
