REMARK  Name = 
REMARK  8 active torsions:
REMARK  status: ('A' for Active; 'I' for Inactive)
REMARK    1  A    between atoms: C_1  and  N_2
REMARK    2  A    between atoms: N_2  and  C_3
REMARK    3  A    between atoms: C_3  and  C_4
REMARK    4  A    between atoms: C_8  and  C_9
REMARK    5  A    between atoms: C_9  and  N_10
REMARK    6  A    between atoms: N_10  and  C_11
REMARK    7  A    between atoms: C_18  and  C_20
REMARK    8  A    between atoms: N_26  and  C_27
REMARK                            x       y       z     vdW  Elec       q    Type
REMARK                         _______ _______ _______ _____ _____    ______ ____
ROOT
ATOM      1  C   UNL     1       3.091   1.176  -0.588  0.00  0.00    +0.000 C 
ENDROOT
BRANCH   1   2
ATOM      2  C   UNL     1       2.228   2.339  -0.990  0.00  0.00    +0.000 A 
ATOM      3  C   UNL     1       2.593   3.642  -0.678  0.00  0.00    +0.000 A 
ATOM      4  N   UNL     1       1.775   4.706  -0.843  0.00  0.00    +0.000 NA
ATOM      5  C   UNL     1       0.533   4.462  -1.323  0.00  0.00    +0.000 A 
ATOM      6  C   UNL     1       0.073   3.207  -1.711  0.00  0.00    +0.000 A 
ATOM      7  C   UNL     1       0.958   2.136  -1.552  0.00  0.00    +0.000 A 
BRANCH   6   8
ATOM      8  C   UNL     1      -1.361   2.961  -2.120  0.00  0.00    +0.000 C 
BRANCH   8   9
ATOM      9  N   UNL     1      -1.976   4.134  -2.736  0.00  0.00    +0.000 NA
ATOM     10  H   UNL     1      -1.439   4.378  -3.571  0.00  0.00    +0.000 HD
BRANCH   9  11
ATOM     11  C   UNL     1      -3.389   3.960  -3.109  0.00  0.00    +0.000 C 
ATOM     12  C   UNL     1      -3.881   5.268  -3.760  0.00  0.00    +0.000 C 
ATOM     13  C   UNL     1      -4.075   6.390  -2.735  0.00  0.00    +0.000 C 
ATOM     14  N   UNL     1      -4.973   5.995  -1.645  0.00  0.00    +0.000 NA
ATOM     15  C   UNL     1      -4.460   4.802  -0.967  0.00  0.00    +0.000 C 
ATOM     16  C   UNL     1      -4.329   3.630  -1.938  0.00  0.00    +0.000 C 
ATOM     17  H   UNL     1      -5.895   5.792  -2.028  0.00  0.00    +0.000 HD
ENDBRANCH   9  11
ENDBRANCH   8   9
ENDBRANCH   6   8
ENDBRANCH   1   2
BRANCH   1  19
ATOM     18  C   UNL     1       4.286   1.305  -2.802  0.00  0.00    +0.000 C 
ATOM     19  N   UNL     1       4.106   0.663  -1.505  0.00  0.00    +0.000 N 
ATOM     20  C   UNL     1       5.088  -0.289  -1.130  0.00  0.00    +0.000 C 
ATOM     21  O   UNL     1       6.014  -0.550  -1.896  0.00  0.00    +0.000 OA
BRANCH  20  22
ATOM     22  C   UNL     1       4.980  -1.018   0.150  0.00  0.00    +0.000 A 
ATOM     23  C   UNL     1       3.794  -1.468   0.709  0.00  0.00    +0.000 A 
ATOM     24  S   UNL     1       3.980  -2.310   2.175  0.00  0.00    +0.000 S 
ATOM     25  C   UNL     1       5.672  -2.278   2.030  0.00  0.00    +0.000 A 
ATOM     26  N   UNL     1       6.441  -2.952   2.916  0.00  0.00    +0.000 NA
ATOM     27  C   UNL     1       7.705  -2.937   2.636  0.00  0.00    +0.000 A 
ATOM     28  N   UNL     1       8.282  -2.265   1.586  0.00  0.00    +0.000 N 
ATOM     29  C   UNL     1       9.715  -2.329   1.391  0.00  0.00    +0.000 C 
ATOM     30  C   UNL     1       7.532  -1.444   0.735  0.00  0.00    +0.000 A 
ATOM     31  O   UNL     1       8.058  -0.681  -0.071  0.00  0.00    +0.000 OA
ATOM     32  C   UNL     1       6.089  -1.543   0.935  0.00  0.00    +0.000 A 
ENDBRANCH  20  22
ENDBRANCH   1  19
TORSDOF 6
