REMARK  Name = 
REMARK  8 active torsions:
REMARK  status: ('A' for Active; 'I' for Inactive)
REMARK    1  A    between atoms: N_1  and  C_2
REMARK    2  A    between atoms: C_2  and  C_3
REMARK    3  A    between atoms: C_3  and  N_4
REMARK    4  A    between atoms: C_3  and  C_17
REMARK    5  A    between atoms: C_5  and  C_7
REMARK    6  A    between atoms: C_20  and  O_21
REMARK    7  A    between atoms: O_21  and  C_22
REMARK    8  A    between atoms: C_22  and  C_23
REMARK                            x       y       z     vdW  Elec       q    Type
REMARK                         _______ _______ _______ _____ _____    ______ ____
ROOT
ATOM      1  C   UNL     1       2.821  -0.675  -1.121  0.00  0.00    +0.000 C 
ENDROOT
BRANCH   1   2
ATOM      2  C   UNL     1       4.344  -0.624  -1.190  0.00  0.00    +0.000 A 
ATOM      3  C   UNL     1       5.092  -1.800  -1.331  0.00  0.00    +0.000 A 
ATOM      4  C   UNL     1       6.481  -1.741  -1.489  0.00  0.00    +0.000 A 
ATOM      5  C   UNL     1       7.134  -0.508  -1.525  0.00  0.00    +0.000 A 
ATOM      6  C   UNL     1       6.407   0.661  -1.311  0.00  0.00    +0.000 A 
ATOM      7  C   UNL     1       5.024   0.605  -1.160  0.00  0.00    +0.000 A 
BRANCH   5   8
ATOM      8  O   UNL     1       8.477  -0.543  -1.793  0.00  0.00    +0.000 OA
BRANCH   8   9
ATOM      9  C   UNL     1       8.985   0.658  -2.392  0.00  0.00    +0.000 C 
BRANCH   9  10
ATOM     10  C   UNL     1      10.262   0.412  -3.160  0.00  0.00    +0.000 A 
ATOM     11  C   UNL     1      11.198  -0.525  -2.733  0.00  0.00    +0.000 A 
ATOM     12  C   UNL     1      12.367  -0.688  -3.470  0.00  0.00    +0.000 A 
ATOM     13  C   UNL     1      12.577   0.091  -4.602  0.00  0.00    +0.000 A 
ATOM     14  C   UNL     1      11.606   1.012  -4.950  0.00  0.00    +0.000 A 
ATOM     15  N   UNL     1      10.464   1.194  -4.254  0.00  0.00    +0.000 NA
ENDBRANCH   9  10
ENDBRANCH   8   9
ENDBRANCH   5   8
ENDBRANCH   1   2
BRANCH   1  16
ATOM     16  N   UNL     1       2.308  -0.032  -2.321  0.00  0.00    +0.000 N 
ATOM     17  C   UNL     1       1.111  -0.323  -2.915  0.00  0.00    +0.000 C 
ATOM     18  O   UNL     1       0.405  -1.265  -2.575  0.00  0.00    +0.000 OA
ATOM     19  H   UNL     1       2.757   0.841  -2.558  0.00  0.00    +0.000 HD
BRANCH  17  20
ATOM     20  C   UNL     1       0.759   0.551  -4.044  0.00  0.00    +0.000 A 
ATOM     21  C   UNL     1      -0.046   0.086  -5.073  0.00  0.00    +0.000 A 
ATOM     22  S   UNL     1      -0.273   1.227  -6.324  0.00  0.00    +0.000 S 
ATOM     23  C   UNL     1       0.669   2.392  -5.515  0.00  0.00    +0.000 A 
ATOM     24  N   UNL     1       0.897   3.620  -6.059  0.00  0.00    +0.000 NA
ATOM     25  C   UNL     1       1.618   4.404  -5.330  0.00  0.00    +0.000 A 
ATOM     26  N   UNL     1       2.118   4.080  -4.095  0.00  0.00    +0.000 N 
ATOM     27  C   UNL     1       1.914   2.856  -3.506  0.00  0.00    +0.000 A 
ATOM     28  O   UNL     1       2.392   2.596  -2.405  0.00  0.00    +0.000 OA
ATOM     29  C   UNL     1       1.136   1.924  -4.301  0.00  0.00    +0.000 A 
ATOM     30  H   UNL     1       2.672   4.740  -3.572  0.00  0.00    +0.000 HD
ENDBRANCH  17  20
ENDBRANCH   1  16
BRANCH   1  31
ATOM     31  C   UNL     1       2.275   0.032   0.155  0.00  0.00    +0.000 C 
BRANCH  31  32
ATOM     32  N   UNL     1       2.769  -0.531   1.419  0.00  0.00    +0.000 NA
ATOM     33  H   UNL     1       2.594   0.136   2.169  0.00  0.00    +0.000 HD
ATOM     34  H   UNL     1       3.783  -0.638   1.369  0.00  0.00    +0.000 HD
ENDBRANCH  31  32
ENDBRANCH   1  31
TORSDOF 8
