REMARK  Name = 
REMARK  6 active torsions:
REMARK  status: ('A' for Active; 'I' for Inactive)
REMARK    1  A    between atoms: C_2  and  C_3
REMARK    2  A    between atoms: C_7  and  C_8
REMARK    3  A    between atoms: C_8  and  C_9
REMARK    4  A    between atoms: C_12  and  C_13
REMARK    5  A    between atoms: C_13  and  N_14
REMARK    6  A    between atoms: C_15  and  C_17
REMARK                            x       y       z     vdW  Elec       q    Type
REMARK                         _______ _______ _______ _____ _____    ______ ____
ROOT
ATOM      1  C   UNL     1      -7.976  -1.879  -0.333  0.00  0.00    +0.000 C 
ENDROOT
BRANCH   1   5
ATOM      2  C   UNL     1      -3.694  -2.442  -0.086  0.00  0.00    +0.000 A 
ATOM      3  C   UNL     1      -4.262  -1.805  -1.197  0.00  0.00    +0.000 A 
ATOM      4  C   UNL     1      -5.648  -1.648  -1.293  0.00  0.00    +0.000 A 
ATOM      5  C   UNL     1      -6.488  -2.103  -0.269  0.00  0.00    +0.000 A 
ATOM      6  C   UNL     1      -5.924  -2.792   0.812  0.00  0.00    +0.000 A 
ATOM      7  C   UNL     1      -4.541  -2.959   0.904  0.00  0.00    +0.000 A 
BRANCH   2   8
ATOM      8  C   UNL     1      -2.190  -2.510   0.073  0.00  0.00    +0.000 C 
BRANCH   8  13
ATOM      9  C   UNL     1      -0.190   0.559   0.585  0.00  0.00    +0.000 A 
ATOM     10  C   UNL     1      -0.481   0.961   1.884  0.00  0.00    +0.000 A 
ATOM     11  C   UNL     1      -1.362   0.187   2.628  0.00  0.00    +0.000 A 
ATOM     12  C   UNL     1      -1.920  -0.952   2.053  0.00  0.00    +0.000 A 
ATOM     13  C   UNL     1      -1.592  -1.285   0.736  0.00  0.00    +0.000 A 
ATOM     14  N   UNL     1      -0.726  -0.543   0.001  0.00  0.00    +0.000 NA
BRANCH   9  16
ATOM     15  N   UNL     1       1.477   1.954  -0.838  0.00  0.00    +0.000 NA
ATOM     16  C   UNL     1       0.726   1.315  -0.221  0.00  0.00    +0.000 C 
ENDBRANCH   9  16
ENDBRANCH   8  13
ENDBRANCH   2   8
ENDBRANCH   1   5
BRANCH   1  17
ATOM     17  N   UNL     1      -8.638  -2.962  -1.009  0.00  0.00    +0.000 N 
ATOM     18  C   UNL     1      -9.992  -2.943  -1.222  0.00  0.00    +0.000 C 
ATOM     19  O   UNL     1     -10.692  -1.991  -0.888  0.00  0.00    +0.000 OA
ATOM     20  H   UNL     1      -8.129  -3.836  -1.087  0.00  0.00    +0.000 HD
BRANCH  18  21
ATOM     21  C   UNL     1     -10.553  -4.095  -1.936  0.00  0.00    +0.000 A 
ATOM     22  C   UNL     1     -11.749  -3.962  -2.629  0.00  0.00    +0.000 A 
ATOM     23  S   UNL     1     -12.215  -5.374  -3.462  0.00  0.00    +0.000 S 
ATOM     24  C   UNL     1     -10.865  -6.230  -2.881  0.00  0.00    +0.000 A 
ATOM     25  N   UNL     1     -10.664  -7.533  -3.216  0.00  0.00    +0.000 NA
ATOM     26  C   UNL     1      -9.619  -8.068  -2.677  0.00  0.00    +0.000 A 
ATOM     27  N   UNL     1      -8.756  -7.417  -1.835  0.00  0.00    +0.000 N 
ATOM     28  C   UNL     1      -8.902  -6.095  -1.491  0.00  0.00    +0.000 A 
ATOM     29  O   UNL     1      -8.090  -5.533  -0.764  0.00  0.00    +0.000 OA
ATOM     30  C   UNL     1     -10.064  -5.447  -2.069  0.00  0.00    +0.000 A 
ATOM     31  H   UNL     1      -7.954  -7.892  -1.448  0.00  0.00    +0.000 HD
ENDBRANCH  18  21
ENDBRANCH   1  17
TORSDOF 6
