REMARK  Name = 
REMARK  7 active torsions:
REMARK  status: ('A' for Active; 'I' for Inactive)
REMARK    1  A    between atoms: C_1  and  O_2
REMARK    2  A    between atoms: O_2  and  C_3
REMARK    3  A    between atoms: C_5  and  C_6
REMARK    4  A    between atoms: C_6  and  O_7
REMARK    5  A    between atoms: O_7  and  C_8
REMARK    6  A    between atoms: C_12  and  C_13
REMARK    7  A    between atoms: C_19  and  C_20
REMARK                            x       y       z     vdW  Elec       q    Type
REMARK                         _______ _______ _______ _____ _____    ______ ____
ROOT
ATOM      1  O   UNL     1       6.761  -2.262  -3.693  0.00  0.00    +0.000 OA
ENDROOT
BRANCH   1   2
ATOM      2  C   UNL     1       7.798  -3.129  -3.899  0.00  0.00    +0.000 A 
ATOM      3  C   UNL     1       8.387  -3.088  -5.159  0.00  0.00    +0.000 A 
ATOM      4  N   UNL     1       9.417  -3.877  -5.552  0.00  0.00    +0.000 NA
ATOM      5  C   UNL     1       9.885  -4.761  -4.638  0.00  0.00    +0.000 A 
ATOM      6  C   UNL     1       9.375  -4.889  -3.354  0.00  0.00    +0.000 A 
ATOM      7  C   UNL     1       8.313  -4.047  -2.986  0.00  0.00    +0.000 A 
BRANCH   6   8
ATOM      8  C   UNL     1       9.890  -5.868  -2.364  0.00  0.00    +0.000 C 
ATOM      9  N   UNL     1      10.902  -6.715  -2.719  0.00  0.00    +0.000 N 
ATOM     10  O   UNL     1       9.412  -5.927  -1.236  0.00  0.00    +0.000 OA
ATOM     11  H   UNL     1      11.350  -6.767  -3.621  0.00  0.00    +0.000 HD
ATOM     12  H   UNL     1      11.207  -7.375  -2.013  0.00  0.00    +0.000 HD
ENDBRANCH   6   8
ENDBRANCH   1   2
BRANCH   1  13
ATOM     13  C   UNL     1       6.160  -2.269  -2.399  0.00  0.00    +0.000 C 
BRANCH  13  16
ATOM     14  C   UNL     1       4.085   0.945  -2.025  0.00  0.00    +0.000 A 
ATOM     15  C   UNL     1       5.167   0.045  -2.068  0.00  0.00    +0.000 A 
ATOM     16  C   UNL     1       4.991  -1.310  -2.390  0.00  0.00    +0.000 A 
ATOM     17  C   UNL     1       3.709  -1.757  -2.719  0.00  0.00    +0.000 A 
ATOM     18  C   UNL     1       2.629  -0.873  -2.692  0.00  0.00    +0.000 A 
ATOM     19  C   UNL     1       2.802   0.479  -2.347  0.00  0.00    +0.000 A 
BRANCH  14  21
ATOM     20  C   UNL     1       3.565   3.054  -1.007  0.00  0.00    +0.000 C 
ATOM     21  O   UNL     1       4.471   2.225  -1.725  0.00  0.00    +0.000 OA
ENDBRANCH  14  21
BRANCH  19  22
ATOM     22  C   UNL     1       1.628   1.302  -2.391  0.00  0.00    +0.000 C 
ATOM     23  N   UNL     1       0.657   1.936  -2.413  0.00  0.00    +0.000 NA
ENDBRANCH  19  22
ENDBRANCH  13  16
ENDBRANCH   1  13
TORSDOF 6
