REMARK  Name = 
REMARK  4 active torsions:
REMARK  status: ('A' for Active; 'I' for Inactive)
REMARK    1  A    between atoms: C_2  and  C_4
REMARK    2  A    between atoms: N_8  and  C_9
REMARK    3  A    between atoms: C_9  and  C_10
REMARK    4  A    between atoms: C_14  and  C_15
REMARK                            x       y       z     vdW  Elec       q    Type
REMARK                         _______ _______ _______ _____ _____    ______ ____
ROOT
ATOM      1  C   UNL     1       8.024  -2.106  -1.178  0.00  0.00    +0.000 A 
ATOM      2  C   UNL     1       7.340  -3.185  -1.728  0.00  0.00    +0.000 A 
ATOM      3  C   UNL     1       6.566  -3.995  -0.895  0.00  0.00    +0.000 A 
ATOM      4  C   UNL     1       6.496  -3.721   0.468  0.00  0.00    +0.000 A 
ATOM      5  N   UNL     1       5.692  -4.413   1.344  0.00  0.00    +0.000 N 
ATOM      6  N   UNL     1       7.173  -2.690   1.012  0.00  0.00    +0.000 NA
ATOM      7  C   UNL     1       7.926  -1.913   0.189  0.00  0.00    +0.000 A 
ATOM      8  H   UNL     1       5.859  -4.076   2.287  0.00  0.00    +0.000 HD
ENDROOT
BRANCH   1  10
ATOM      9  N   UNL     1       8.500  -1.020  -3.298  0.00  0.00    +0.000 N 
ATOM     10  C   UNL     1       8.841  -1.174  -1.982  0.00  0.00    +0.000 C 
ATOM     11  O   UNL     1       9.760  -0.536  -1.487  0.00  0.00    +0.000 OA
ATOM     12  H   UNL     1       8.996  -0.302  -3.810  0.00  0.00    +0.000 HD
ATOM     13  H   UNL     1       7.610  -1.325  -3.668  0.00  0.00    +0.000 HD
ENDBRANCH   1  10
BRANCH   5  14
ATOM     14  C   UNL     1       5.425  -5.833   1.230  0.00  0.00    +0.000 C 
BRANCH  14  15
ATOM     15  C   UNL     1       6.443  -6.738   1.894  0.00  0.00    +0.000 A 
ATOM     16  C   UNL     1       7.599  -6.278   2.534  0.00  0.00    +0.000 A 
ATOM     17  C   UNL     1       8.464  -7.173   3.161  0.00  0.00    +0.000 A 
ATOM     18  C   UNL     1       8.173  -8.538   3.178  0.00  0.00    +0.000 A 
ATOM     19  C   UNL     1       7.011  -9.044   2.573  0.00  0.00    +0.000 A 
ATOM     20  C   UNL     1       6.180  -8.126   1.904  0.00  0.00    +0.000 A 
BRANCH  19  21
ATOM     21  C   UNL     1       6.639 -10.471   2.689  0.00  0.00    +0.000 A 
ATOM     22  C   UNL     1       6.895 -11.203   3.849  0.00  0.00    +0.000 A 
ATOM     23  C   UNL     1       6.496 -12.535   3.928  0.00  0.00    +0.000 A 
ATOM     24  C   UNL     1       5.846 -13.110   2.845  0.00  0.00    +0.000 A 
ATOM     25  C   UNL     1       5.620 -12.322   1.731  0.00  0.00    +0.000 A 
ATOM     26  N   UNL     1       5.990 -11.022   1.631  0.00  0.00    +0.000 NA
ENDBRANCH  19  21
ENDBRANCH  14  15
ENDBRANCH   5  14
TORSDOF 4
