REMARK  Name = 
REMARK  7 active torsions:
REMARK  status: ('A' for Active; 'I' for Inactive)
REMARK    1  A    between atoms: C_2  and  C_4
REMARK    2  A    between atoms: C_7  and  O_8
REMARK    3  A    between atoms: O_8  and  C_9
REMARK    4  A    between atoms: C_9  and  C_10
REMARK    5  A    between atoms: C_10  and  C_11
REMARK    6  A    between atoms: C_15  and  S_16
REMARK    7  A    between atoms: S_16  and  C_17
REMARK                            x       y       z     vdW  Elec       q    Type
REMARK                         _______ _______ _______ _____ _____    ______ ____
ROOT
ATOM      1  C   UNL     1       4.925  -2.815  -5.162  0.00  0.00    +0.000 C 
ENDROOT
BRANCH   1   2
ATOM      2  O   UNL     1       5.272  -2.848  -3.771  0.00  0.00    +0.000 OA
BRANCH   2   6
ATOM      3  C   UNL     1       2.818  -0.464  -1.466  0.00  0.00    +0.000 A 
ATOM      4  C   UNL     1       3.867  -1.161  -0.863  0.00  0.00    +0.000 A 
ATOM      5  C   UNL     1       4.689  -1.971  -1.652  0.00  0.00    +0.000 A 
ATOM      6  C   UNL     1       4.431  -2.050  -3.012  0.00  0.00    +0.000 A 
ATOM      7  N   UNL     1       3.415  -1.397  -3.615  0.00  0.00    +0.000 NA
ATOM      8  C   UNL     1       2.625  -0.628  -2.829  0.00  0.00    +0.000 A 
BRANCH   3  10
ATOM      9  N   UNL     1       2.370   1.036   0.391  0.00  0.00    +0.000 N 
ATOM     10  C   UNL     1       1.894   0.426  -0.736  0.00  0.00    +0.000 C 
ATOM     11  O   UNL     1       0.760   0.646  -1.142  0.00  0.00    +0.000 OA
ATOM     12  H   UNL     1       1.766   1.739   0.802  0.00  0.00    +0.000 HD
ATOM     13  H   UNL     1       3.356   1.090   0.605  0.00  0.00    +0.000 HD
ENDBRANCH   3  10
ENDBRANCH   2   6
ENDBRANCH   1   2
BRANCH   1  14
ATOM     14  C   UNL     1       5.884  -3.698  -5.963  0.00  0.00    +0.000 C 
BRANCH  14  15
ATOM     15  C   UNL     1       5.543  -3.665  -7.435  0.00  0.00    +0.000 A 
ATOM     16  C   UNL     1       4.629  -4.572  -7.979  0.00  0.00    +0.000 A 
ATOM     17  C   UNL     1       4.232  -4.458  -9.313  0.00  0.00    +0.000 A 
ATOM     18  C   UNL     1       4.739  -3.432 -10.119  0.00  0.00    +0.000 A 
ATOM     19  C   UNL     1       5.658  -2.520  -9.594  0.00  0.00    +0.000 A 
ATOM     20  C   UNL     1       6.056  -2.648  -8.255  0.00  0.00    +0.000 A 
BRANCH  19  21
ATOM     21  S   UNL     1       6.207  -1.079 -10.486  0.00  0.00    +0.000 S 
BRANCH  21  22
ATOM     22  C   UNL     1       6.963  -1.816 -11.971  0.00  0.00    +0.000 C 
ATOM     23  C   UNL     1       8.193  -2.694 -11.730  0.00  0.00    +0.000 C 
ATOM     24  O   UNL     1       9.014  -1.853 -12.581  0.00  0.00    +0.000 OA
ATOM     25  C   UNL     1       7.974  -0.844 -12.604  0.00  0.00    +0.000 C 
ENDBRANCH  21  22
ENDBRANCH  19  21
ENDBRANCH  14  15
ENDBRANCH   1  14
TORSDOF 7
