REMARK  Name = 
REMARK  4 active torsions:
REMARK  status: ('A' for Active; 'I' for Inactive)
REMARK    1  A    between atoms: N_1  and  C_2
REMARK    2  A    between atoms: C_2  and  C_3
REMARK    3  A    between atoms: C_6  and  C_7
REMARK    4  A    between atoms: C_7  and  N_8
REMARK                            x       y       z     vdW  Elec       q    Type
REMARK                         _______ _______ _______ _____ _____    ______ ____
ROOT
ATOM      1  C   UNL     1       3.342  -0.974   1.032  0.00  0.00    +0.000 A 
ATOM      2  C   UNL     1       2.331  -0.963   1.990  0.00  0.00    +0.000 A 
ATOM      3  C   UNL     1       2.539  -1.616   3.204  0.00  0.00    +0.000 A 
ATOM      4  C   UNL     1       3.748  -2.276   3.437  0.00  0.00    +0.000 A 
ATOM      5  C   UNL     1       4.712  -2.199   2.439  0.00  0.00    +0.000 A 
ATOM      6  N   UNL     1       4.537  -1.574   1.253  0.00  0.00    +0.000 NA
ENDROOT
BRANCH   1   7
ATOM      7  C   UNL     1       3.124  -0.338  -0.324  0.00  0.00    +0.000 C 
BRANCH   7   8
ATOM      8  N   UNL     1       2.789   1.086  -0.248  0.00  0.00    +0.000 NA
ATOM      9  H   UNL     1       2.784   1.466  -1.192  0.00  0.00    +0.000 HD
ATOM     10  H   UNL     1       3.553   1.559   0.236  0.00  0.00    +0.000 HD
ENDBRANCH   7   8
ENDBRANCH   1   7
BRANCH   4  11
ATOM     11  C   UNL     1       3.982  -3.087   4.677  0.00  0.00    +0.000 C 
BRANCH  11  12
ATOM     12  N   UNL     1       4.585  -2.328   5.758  0.00  0.00    +0.000 N 
ATOM     13  C   UNL     1       3.884  -1.684   6.742  0.00  0.00    +0.000 A 
ATOM     14  N   UNL     1       4.667  -1.273   7.711  0.00  0.00    +0.000 NA
ATOM     15  C   UNL     1       5.930  -1.670   7.346  0.00  0.00    +0.000 A 
ATOM     16  C   UNL     1       7.143  -1.529   8.036  0.00  0.00    +0.000 A 
ATOM     17  C   UNL     1       8.313  -2.034   7.457  0.00  0.00    +0.000 A 
ATOM     18  C   UNL     1       8.278  -2.658   6.209  0.00  0.00    +0.000 A 
ATOM     19  C   UNL     1       7.077  -2.814   5.508  0.00  0.00    +0.000 A 
ATOM     20  C   UNL     1       5.915  -2.315   6.110  0.00  0.00    +0.000 A 
ENDBRANCH  11  12
ENDBRANCH   4  11
TORSDOF 4
