REMARK  Name = 
REMARK  8 active torsions:
REMARK  status: ('A' for Active; 'I' for Inactive)
REMARK    1  A    between atoms: C_1  and  C_2
REMARK    2  A    between atoms: C_2  and  N_3
REMARK    3  A    between atoms: C_2  and  C_25
REMARK    4  A    between atoms: N_3  and  C_4
REMARK    5  A    between atoms: C_4  and  C_5
REMARK    6  A    between atoms: C_8  and  C_9
REMARK    7  A    between atoms: C_9  and  N_10
REMARK    8  A    between atoms: C_11  and  C_13
REMARK                            x       y       z     vdW  Elec       q    Type
REMARK                         _______ _______ _______ _____ _____    ______ ____
ROOT
ATOM      1  C   UNL     1      -1.058   0.627  -1.220  0.00  0.00    +0.000 A 
ATOM      2  C   UNL     1      -1.759  -0.531  -0.881  0.00  0.00    +0.000 A 
ATOM      3  C   UNL     1      -3.154  -0.537  -0.919  0.00  0.00    +0.000 A 
ATOM      4  C   UNL     1      -3.826   0.619  -1.311  0.00  0.00    +0.000 A 
ATOM      5  N   UNL     1      -3.169   1.762  -1.628  0.00  0.00    +0.000 NA
ATOM      6  C   UNL     1      -1.814   1.738  -1.580  0.00  0.00    +0.000 A 
ENDROOT
BRANCH   1   7
ATOM      7  C   UNL     1       0.446   0.656  -1.271  0.00  0.00    +0.000 C 
BRANCH   7   8
ATOM      8  N   UNL     1       1.016   1.653  -0.365  0.00  0.00    +0.000 NA
ATOM      9  H   UNL     1       0.694   1.454   0.583  0.00  0.00    +0.000 HD
BRANCH   8  11
ATOM     10  C   UNL     1       3.127   1.860  -1.728  0.00  0.00    +0.000 C 
ATOM     11  C   UNL     1       2.490   1.645  -0.345  0.00  0.00    +0.000 C 
BRANCH  11  12
ATOM     12  C   UNL     1       3.009   2.704   0.625  0.00  0.00    +0.000 A 
ATOM     13  C   UNL     1       3.841   2.340   1.696  0.00  0.00    +0.000 A 
ATOM     14  C   UNL     1       4.388   3.312   2.540  0.00  0.00    +0.000 A 
ATOM     15  C   UNL     1       4.103   4.660   2.330  0.00  0.00    +0.000 A 
ATOM     16  C   UNL     1       3.255   5.036   1.292  0.00  0.00    +0.000 A 
ATOM     17  C   UNL     1       2.710   4.066   0.448  0.00  0.00    +0.000 A 
ENDBRANCH  11  12
ENDBRANCH   8  11
ENDBRANCH   7   8
ENDBRANCH   1   7
BRANCH   4  18
ATOM     18  C   UNL     1      -5.339   0.649  -1.347  0.00  0.00    +0.000 C 
BRANCH  18  19
ATOM     19  N   UNL     1      -5.884   1.081  -0.081  0.00  0.00    +0.000 N 
ATOM     20  C   UNL     1      -7.091   0.645   0.395  0.00  0.00    +0.000 C 
ATOM     21  O   UNL     1      -7.776  -0.175  -0.208  0.00  0.00    +0.000 OA
ATOM     22  H   UNL     1      -5.482   1.939   0.288  0.00  0.00    +0.000 HD
BRANCH  20  23
ATOM     23  C   UNL     1      -7.488   1.153   1.713  0.00  0.00    +0.000 A 
ATOM     24  C   UNL     1      -8.346   0.408   2.510  0.00  0.00    +0.000 A 
ATOM     25  S   UNL     1      -8.659   1.119   4.029  0.00  0.00    +0.000 S 
ATOM     26  C   UNL     1      -7.699   2.472   3.654  0.00  0.00    +0.000 A 
ATOM     27  N   UNL     1      -7.564   3.501   4.535  0.00  0.00    +0.000 NA
ATOM     28  C   UNL     1      -6.826   4.470   4.111  0.00  0.00    +0.000 A 
ATOM     29  N   UNL     1      -6.203   4.503   2.892  0.00  0.00    +0.000 N 
ATOM     30  C   UNL     1      -6.285   3.478   1.984  0.00  0.00    +0.000 A 
ATOM     31  O   UNL     1      -5.674   3.513   0.920  0.00  0.00    +0.000 OA
ATOM     32  C   UNL     1      -7.122   2.368   2.401  0.00  0.00    +0.000 A 
ATOM     33  H   UNL     1      -5.620   5.282   2.628  0.00  0.00    +0.000 HD
ENDBRANCH  20  23
ENDBRANCH  18  19
ENDBRANCH   4  18
TORSDOF 7
