REMARK  Name = 
REMARK  7 active torsions:
REMARK  status: ('A' for Active; 'I' for Inactive)
REMARK    1  A    between atoms: C_1  and  C_2
REMARK    2  A    between atoms: C_4  and  C_5
REMARK    3  A    between atoms: C_5  and  N_6
REMARK    4  A    between atoms: C_7  and  C_9
REMARK    5  A    between atoms: C_16  and  C_17
REMARK    6  A    between atoms: C_17  and  N_18
REMARK    7  A    between atoms: C_19  and  C_21
REMARK                            x       y       z     vdW  Elec       q    Type
REMARK                         _______ _______ _______ _____ _____    ______ ____
ROOT
ATOM      1  C   UNL     1       2.553   0.266  -0.151  0.00  0.00    +0.000 C 
ATOM      2  C   UNL     1       1.055   0.127  -0.112  0.00  0.00    +0.000 A 
ATOM      3  C   UNL     1       0.290   1.315  -0.102  0.00  0.00    +0.000 A 
ATOM      4  C   UNL     1      -1.109   1.297  -0.045  0.00  0.00    +0.000 A 
ATOM      5  C   UNL     1      -1.750   0.055  -0.038  0.00  0.00    +0.000 A 
ATOM      6  C   UNL     1      -1.004  -1.134  -0.036  0.00  0.00    +0.000 A 
ATOM      7  C   UNL     1       0.404  -1.123  -0.045  0.00  0.00    +0.000 A 
ENDROOT
BRANCH   4   8
ATOM      8  C   UNL     1      -1.883   2.593  -0.001  0.00  0.00    +0.000 C 
BRANCH   8   9
ATOM      9  N   UNL     1      -2.148   3.112  -1.318  0.00  0.00    +0.000 N 
ATOM     10  C   UNL     1      -2.883   4.263  -1.522  0.00  0.00    +0.000 C 
ATOM     11  O   UNL     1      -3.341   4.922  -0.591  0.00  0.00    +0.000 OA
ATOM     12  H   UNL     1      -1.723   2.660  -2.120  0.00  0.00    +0.000 HD
BRANCH  10  13
ATOM     13  C   UNL     1      -3.065   4.620  -2.910  0.00  0.00    +0.000 A 
ATOM     14  C   UNL     1      -3.678   5.688  -3.526  0.00  0.00    +0.000 A 
ATOM     15  C   UNL     1      -3.532   5.429  -4.901  0.00  0.00    +0.000 A 
ATOM     16  N   UNL     1      -2.873   4.289  -5.128  0.00  0.00    +0.000 NA
ATOM     17  O   UNL     1      -2.577   3.783  -3.873  0.00  0.00    +0.000 OA
ENDBRANCH  10  13
ENDBRANCH   8   9
ENDBRANCH   4   8
BRANCH   7  18
ATOM     18  C   UNL     1       1.144  -2.452   0.009  0.00  0.00    +0.000 C 
BRANCH  18  19
ATOM     19  N   UNL     1       1.337  -3.014  -1.307  0.00  0.00    +0.000 N 
ATOM     20  C   UNL     1       1.812  -4.281  -1.525  0.00  0.00    +0.000 C 
ATOM     21  O   UNL     1       2.076  -5.044  -0.601  0.00  0.00    +0.000 OA
ATOM     22  H   UNL     1       1.389  -2.340  -2.064  0.00  0.00    +0.000 HD
BRANCH  20  23
ATOM     23  C   UNL     1       1.904  -4.712  -2.931  0.00  0.00    +0.000 A 
ATOM     24  C   UNL     1       1.924  -6.063  -3.259  0.00  0.00    +0.000 A 
ATOM     25  S   UNL     1       1.893  -6.355  -4.942  0.00  0.00    +0.000 S 
ATOM     26  C   UNL     1       1.909  -4.690  -5.290  0.00  0.00    +0.000 A 
ATOM     27  N   UNL     1       1.871  -4.237  -6.574  0.00  0.00    +0.000 NA
ATOM     28  C   UNL     1       1.895  -2.951  -6.687  0.00  0.00    +0.000 A 
ATOM     29  N   UNL     1       1.973  -2.076  -5.634  0.00  0.00    +0.000 N 
ATOM     30  C   UNL     1       2.040  -2.489  -4.328  0.00  0.00    +0.000 A 
ATOM     31  O   UNL     1       2.153  -1.681  -3.412  0.00  0.00    +0.000 OA
ATOM     32  C   UNL     1       1.960  -3.925  -4.141  0.00  0.00    +0.000 A 
ATOM     33  H   UNL     1       2.006  -1.079  -5.788  0.00  0.00    +0.000 HD
ENDBRANCH  20  23
ENDBRANCH  18  19
ENDBRANCH   7  18
TORSDOF 6
