REMARK  Name = 
REMARK  6 active torsions:
REMARK  status: ('A' for Active; 'I' for Inactive)
REMARK    1  A    between atoms: C_1  and  O_2
REMARK    2  A    between atoms: O_2  and  C_3
REMARK    3  A    between atoms: N_6  and  C_7
REMARK    4  A    between atoms: C_7  and  C_8
REMARK    5  A    between atoms: C_12  and  C_13
REMARK    6  A    between atoms: C_20  and  C_21
REMARK                            x       y       z     vdW  Elec       q    Type
REMARK                         _______ _______ _______ _____ _____    ______ ____
ROOT
ATOM      1  C   UNL     1       3.135  -0.111   1.263  0.00  0.00    +0.000 A 
ATOM      2  N   UNL     1       4.143   0.744   1.596  0.00  0.00    +0.000 NA
ATOM      3  C   UNL     1       4.809   0.548   2.749  0.00  0.00    +0.000 A 
ATOM      4  N   UNL     1       5.765   1.461   3.169  0.00  0.00    +0.000 N 
ATOM      5  C   UNL     1       4.480  -0.506   3.594  0.00  0.00    +0.000 A 
ATOM      6  C   UNL     1       3.434  -1.366   3.255  0.00  0.00    +0.000 A 
ATOM      7  C   UNL     1       2.733  -1.179   2.061  0.00  0.00    +0.000 A 
ATOM      8  H   UNL     1       6.632   1.066   3.509  0.00  0.00    +0.000 HD
ENDROOT
BRANCH   7   9
ATOM      9  C   UNL     1       1.624  -2.127   1.761  0.00  0.00    +0.000 C 
ATOM     10  N   UNL     1       0.933  -1.989   0.594  0.00  0.00    +0.000 N 
ATOM     11  O   UNL     1       1.330  -3.021   2.545  0.00  0.00    +0.000 OA
ATOM     12  H   UNL     1       1.136  -1.255  -0.072  0.00  0.00    +0.000 HD
ATOM     13  H   UNL     1       0.177  -2.632   0.407  0.00  0.00    +0.000 HD
ENDBRANCH   7   9
BRANCH   1  15
ATOM     14  C   UNL     1       3.027   1.200  -0.683  0.00  0.00    +0.000 C 
ATOM     15  O   UNL     1       2.473   0.124   0.071  0.00  0.00    +0.000 OA
ENDBRANCH   1  15
BRANCH   4  16
ATOM     16  C   UNL     1       5.829   2.775   2.563  0.00  0.00    +0.000 C 
BRANCH  16  17
ATOM     17  C   UNL     1       7.057   2.997   1.711  0.00  0.00    +0.000 A 
ATOM     18  C   UNL     1       8.018   3.939   2.092  0.00  0.00    +0.000 A 
ATOM     19  C   UNL     1       9.066   4.219   1.233  0.00  0.00    +0.000 A 
ATOM     20  N   UNL     1       9.226   3.627   0.031  0.00  0.00    +0.000 NA
ATOM     21  C   UNL     1       8.300   2.699  -0.347  0.00  0.00    +0.000 A 
ATOM     22  C   UNL     1       7.216   2.361   0.473  0.00  0.00    +0.000 A 
BRANCH  21  23
ATOM     23  C   UNL     1       8.429   2.038  -1.714  0.00  0.00    +0.000 C 
ATOM     24  F   UNL     1       9.504   2.454  -2.444  0.00  0.00    +0.000 F 
ATOM     25  F   UNL     1       8.541   0.680  -1.632  0.00  0.00    +0.000 F 
ATOM     26  F   UNL     1       7.339   2.265  -2.506  0.00  0.00    +0.000 F 
ENDBRANCH  21  23
ENDBRANCH  16  17
ENDBRANCH   4  16
TORSDOF 5
