REMARK  Name = 
REMARK  5 active torsions:
REMARK  status: ('A' for Active; 'I' for Inactive)
REMARK    1  A    between atoms: C_2  and  C_4
REMARK    2  A    between atoms: N_8  and  C_9
REMARK    3  A    between atoms: C_9  and  C_10
REMARK    4  A    between atoms: C_10  and  C_13
REMARK    5  A    between atoms: C_17  and  C_18
REMARK                            x       y       z     vdW  Elec       q    Type
REMARK                         _______ _______ _______ _____ _____    ______ ____
ROOT
ATOM      1  C   UNL     1       6.225   3.125   6.231  0.00  0.00    +0.000 C 
ATOM      2  F   UNL     1       7.424   2.534   5.946  0.00  0.00    +0.000 F 
ATOM      3  F   UNL     1       6.367   4.431   5.853  0.00  0.00    +0.000 F 
ENDROOT
BRANCH   1   4
ATOM      4  C   UNL     1       5.868   3.010   7.703  0.00  0.00    +0.000 A 
ATOM      5  C   UNL     1       6.235   1.886   8.449  0.00  0.00    +0.000 A 
ATOM      6  C   UNL     1       5.896   1.802   9.797  0.00  0.00    +0.000 A 
ATOM      7  C   UNL     1       5.197   2.845  10.412  0.00  0.00    +0.000 A 
ATOM      8  C   UNL     1       4.828   4.004   9.706  0.00  0.00    +0.000 A 
ATOM      9  C   UNL     1       5.164   4.052   8.340  0.00  0.00    +0.000 A 
BRANCH   8  10
ATOM     10  C   UNL     1       4.143   5.137  10.377  0.00  0.00    +0.000 A 
ATOM     11  C   UNL     1       3.204   5.941   9.701  0.00  0.00    +0.000 A 
ATOM     12  C   UNL     1       2.568   7.015  10.336  0.00  0.00    +0.000 A 
ATOM     13  C   UNL     1       2.851   7.294  11.666  0.00  0.00    +0.000 A 
ATOM     14  F   UNL     1       2.219   8.316  12.261  0.00  0.00    +0.000 F 
ATOM     15  C   UNL     1       3.773   6.523  12.362  0.00  0.00    +0.000 A 
ATOM     16 CL   UNL     1       4.128   6.854  14.014  0.00  0.00    +0.000 Cl
ATOM     17  C   UNL     1       4.421   5.462  11.721  0.00  0.00    +0.000 A 
ENDBRANCH   8  10
ENDBRANCH   1   4
BRANCH   1  18
ATOM     18  C   UNL     1       5.136   2.465   5.346  0.00  0.00    +0.000 C 
BRANCH  18  23
ATOM     19  C   UNL     1       2.955   0.980   0.989  0.00  0.00    +0.000 A 
ATOM     20  C   UNL     1       2.366   1.343   2.195  0.00  0.00    +0.000 A 
ATOM     21  C   UNL     1       3.161   1.898   3.198  0.00  0.00    +0.000 A 
ATOM     22  C   UNL     1       4.525   2.064   2.989  0.00  0.00    +0.000 A 
ATOM     23  N   UNL     1       5.355   2.681   3.909  0.00  0.00    +0.000 N 
ATOM     24  N   UNL     1       5.113   1.692   1.834  0.00  0.00    +0.000 NA
ATOM     25  C   UNL     1       4.324   1.154   0.863  0.00  0.00    +0.000 A 
ATOM     26  H   UNL     1       6.319   2.579   3.591  0.00  0.00    +0.000 HD
BRANCH  19  28
ATOM     27  N   UNL     1       0.860   0.758  -0.217  0.00  0.00    +0.000 N 
ATOM     28  C   UNL     1       2.183   0.419  -0.137  0.00  0.00    +0.000 C 
ATOM     29  O   UNL     1       2.708  -0.294  -0.982  0.00  0.00    +0.000 OA
ATOM     30  H   UNL     1       0.365   0.452  -1.046  0.00  0.00    +0.000 HD
ATOM     31  H   UNL     1       0.463   1.530   0.300  0.00  0.00    +0.000 HD
ENDBRANCH  19  28
ENDBRANCH  18  23
ENDBRANCH   1  18
TORSDOF 5
