REMARK  Name = 
REMARK  4 active torsions:
REMARK  status: ('A' for Active; 'I' for Inactive)
REMARK    1  A    between atoms: C_2  and  C_4
REMARK    2  A    between atoms: C_7  and  N_8
REMARK    3  A    between atoms: N_8  and  C_9
REMARK    4  A    between atoms: C_9  and  C_10
REMARK                            x       y       z     vdW  Elec       q    Type
REMARK                         _______ _______ _______ _____ _____    ______ ____
ROOT
ATOM      1  C   UNL     1       3.184   1.124  -0.561  0.00  0.00    +0.000 A 
ATOM      2  C   UNL     1       3.099   2.357   0.064  0.00  0.00    +0.000 A 
ATOM      3  N   UNL     1       3.824   3.440  -0.343  0.00  0.00    +0.000 NA
ATOM      4  C   UNL     1       4.655   3.252  -1.392  0.00  0.00    +0.000 A 
ATOM      5  C   UNL     1       4.741   1.984  -1.988  0.00  0.00    +0.000 A 
ATOM      6  N   UNL     1       4.007   0.902  -1.618  0.00  0.00    +0.000 NA
ENDROOT
BRANCH   1   8
ATOM      7  N   UNL     1       2.524  -1.197  -0.772  0.00  0.00    +0.000 N 
ATOM      8  C   UNL     1       2.366  -0.026  -0.079  0.00  0.00    +0.000 C 
ATOM      9  O   UNL     1       1.601   0.069   0.868  0.00  0.00    +0.000 OA
ATOM     10  H   UNL     1       2.016  -2.022  -0.484  0.00  0.00    +0.000 HD
ATOM     11  H   UNL     1       3.182  -1.243  -1.541  0.00  0.00    +0.000 HD
ENDBRANCH   1   8
BRANCH   4  12
ATOM     12  N   UNL     1       5.522   4.271  -1.817  0.00  0.00    +0.000 N 
ATOM     13  H   UNL     1       5.681   4.220  -2.818  0.00  0.00    +0.000 HD
BRANCH  12  14
ATOM     14  C   UNL     1       5.134   5.621  -1.425  0.00  0.00    +0.000 C 
BRANCH  14  15
ATOM     15  C   UNL     1       6.191   6.588  -1.913  0.00  0.00    +0.000 A 
ATOM     16  C   UNL     1       5.908   7.559  -2.879  0.00  0.00    +0.000 A 
ATOM     17  C   UNL     1       6.924   8.418  -3.279  0.00  0.00    +0.000 A 
ATOM     18  N   UNL     1       8.183   8.373  -2.795  0.00  0.00    +0.000 NA
ATOM     19  C   UNL     1       8.438   7.429  -1.864  0.00  0.00    +0.000 A 
ATOM     20  C   UNL     1       7.492   6.529  -1.399  0.00  0.00    +0.000 A 
ENDBRANCH  14  15
ENDBRANCH  12  14
ENDBRANCH   4  12
TORSDOF 4
