REMARK  Name = 
REMARK  4 active torsions:
REMARK  status: ('A' for Active; 'I' for Inactive)
REMARK    1  A    between atoms: C_2  and  C_4
REMARK    2  A    between atoms: C_7  and  N_8
REMARK    3  A    between atoms: N_8  and  C_9
REMARK    4  A    between atoms: C_9  and  C_10
REMARK                            x       y       z     vdW  Elec       q    Type
REMARK                         _______ _______ _______ _____ _____    ______ ____
ROOT
ATOM      1  C   UNL     1       3.630   1.656   0.182  0.00  0.00    +0.000 A 
ATOM      2  N   UNL     1       4.962   1.901   0.234  0.00  0.00    +0.000 NA
ATOM      3  C   UNL     1       5.491   2.481  -0.874  0.00  0.00    +0.000 A 
ATOM      4  C   UNL     1       4.762   2.822  -1.999  0.00  0.00    +0.000 A 
ATOM      5  C   UNL     1       3.409   2.532  -1.903  0.00  0.00    +0.000 A 
ATOM      6  N   UNL     1       2.813   1.955  -0.842  0.00  0.00    +0.000 NA
ENDROOT
BRANCH   1   8
ATOM      7  N   UNL     1       3.874   0.727   2.434  0.00  0.00    +0.000 N 
ATOM      8  C   UNL     1       3.014   0.986   1.391  0.00  0.00    +0.000 C 
ATOM      9  O   UNL     1       1.829   0.676   1.474  0.00  0.00    +0.000 OA
ATOM     10  H   UNL     1       3.519   0.278   3.263  0.00  0.00    +0.000 HD
ATOM     11  H   UNL     1       4.853   0.979   2.355  0.00  0.00    +0.000 HD
ENDBRANCH   1   8
BRANCH   4  12
ATOM     12  N   UNL     1       5.267   3.387  -3.173  0.00  0.00    +0.000 N 
ATOM     13  H   UNL     1       4.836   4.294  -3.375  0.00  0.00    +0.000 HD
BRANCH  12  14
ATOM     14  C   UNL     1       6.694   3.331  -3.589  0.00  0.00    +0.000 C 
ATOM     15  C   UNL     1       6.924   2.440  -4.805  0.00  0.00    +0.000 C 
ATOM     16  C   UNL     1       7.537   2.069  -3.498  0.00  0.00    +0.000 C 
BRANCH  14  17
ATOM     17  C   UNL     1       7.406   4.702  -3.546  0.00  0.00    +0.000 A 
ATOM     18  N   UNL     1       8.560   4.832  -2.856  0.00  0.00    +0.000 NA
ATOM     19  C   UNL     1       9.089   6.067  -2.764  0.00  0.00    +0.000 A 
ATOM     20  C   UNL     1       8.515   7.183  -3.321  0.00  0.00    +0.000 A 
ATOM     21  C   UNL     1       7.349   6.962  -4.008  0.00  0.00    +0.000 A 
ATOM     22  N   UNL     1       6.776   5.750  -4.131  0.00  0.00    +0.000 NA
ENDBRANCH  14  17
ENDBRANCH  12  14
ENDBRANCH   4  12
TORSDOF 4
