REMARK  Name = 
REMARK  7 active torsions:
REMARK  status: ('A' for Active; 'I' for Inactive)
REMARK    1  A    between atoms: N_1  and  C_2
REMARK    2  A    between atoms: C_2  and  C_3
REMARK    3  A    between atoms: C_2  and  C_19
REMARK    4  A    between atoms: C_3  and  C_4
REMARK    5  A    between atoms: C_7  and  S_8
REMARK    6  A    between atoms: S_8  and  N_11
REMARK    7  A    between atoms: N_11  and  C_12
REMARK                            x       y       z     vdW  Elec       q    Type
REMARK                         _______ _______ _______ _____ _____    ______ ____
ROOT
ATOM      1  C   UNL     1       0.986  -0.109  -0.017  0.00  0.00    +0.000 C 
ENDROOT
BRANCH   1   2
ATOM      2  C   UNL     1       0.448  -0.502   1.346  0.00  0.00    +0.000 A 
ATOM      3  C   UNL     1       1.319  -0.824   2.398  0.00  0.00    +0.000 A 
ATOM      4  C   UNL     1       0.817  -1.231   3.637  0.00  0.00    +0.000 A 
ATOM      5  C   UNL     1      -0.565  -1.294   3.838  0.00  0.00    +0.000 A 
ATOM      6  C   UNL     1      -1.446  -0.949   2.811  0.00  0.00    +0.000 A 
ATOM      7  C   UNL     1      -0.937  -0.552   1.572  0.00  0.00    +0.000 A 
BRANCH   5   8
ATOM      8  S   UNL     1      -1.216  -1.888   5.378  0.00  0.00    +0.000 S 
ATOM      9  O   UNL     1      -2.235  -2.868   5.062  0.00  0.00    +0.000 OA
ATOM     10  O   UNL     1      -0.122  -2.195   6.272  0.00  0.00    +0.000 OA
BRANCH   8  11
ATOM     11  N   UNL     1      -2.046  -0.554   6.003  0.00  0.00    +0.000 NA
ATOM     12  H   UNL     1      -2.974  -0.844   6.313  0.00  0.00    +0.000 HD
BRANCH  11  13
ATOM     13  C   UNL     1      -1.318   0.373   6.874  0.00  0.00    +0.000 C 
ATOM     14  C   UNL     1      -2.230   1.500   7.355  0.00  0.00    +0.000 C 
ATOM     15  C   UNL     1      -1.271   2.618   7.764  0.00  0.00    +0.000 C 
ATOM     16  C   UNL     1       0.054   2.316   7.066  0.00  0.00    +0.000 C 
ATOM     17  C   UNL     1      -0.231   1.142   6.142  0.00  0.00    +0.000 C 
ENDBRANCH  11  13
ENDBRANCH   8  11
ENDBRANCH   5   8
ENDBRANCH   1   2
BRANCH   1  18
ATOM     18  C   UNL     1       1.853  -1.187  -0.718  0.00  0.00    +0.000 C 
BRANCH  18  19
ATOM     19  C   UNL     1       2.326  -0.721  -2.088  0.00  0.00    +0.000 A 
ATOM     20  C   UNL     1       1.644  -0.887  -3.286  0.00  0.00    +0.000 A 
ATOM     21  S   UNL     1       2.488  -0.276  -4.641  0.00  0.00    +0.000 S 
ATOM     22  C   UNL     1       3.774   0.270  -3.669  0.00  0.00    +0.000 A 
ATOM     23  N   UNL     1       4.846   0.909  -4.210  0.00  0.00    +0.000 NA
ATOM     24  C   UNL     1       5.736   1.273  -3.347  0.00  0.00    +0.000 A 
ATOM     25  N   UNL     1       5.650   1.062  -1.993  0.00  0.00    +0.000 N 
ATOM     26  C   UNL     1       4.578   0.441  -1.397  0.00  0.00    +0.000 A 
ATOM     27  O   UNL     1       4.505   0.304  -0.182  0.00  0.00    +0.000 OA
ATOM     28  C   UNL     1       3.562  -0.011  -2.332  0.00  0.00    +0.000 A 
ATOM     29  H   UNL     1       6.374   1.390  -1.372  0.00  0.00    +0.000 HD
ENDBRANCH  18  19
BRANCH  18  30
ATOM     30  N   UNL     1       1.142  -2.462  -0.875  0.00  0.00    +0.000 NA
ATOM     31  H   UNL     1       1.706  -3.103  -1.428  0.00  0.00    +0.000 HD
ATOM     32  H   UNL     1       0.262  -2.320  -1.362  0.00  0.00    +0.000 HD
ENDBRANCH  18  30
ENDBRANCH   1  18
TORSDOF 7
