REMARK  Name = 
REMARK  8 active torsions:
REMARK  status: ('A' for Active; 'I' for Inactive)
REMARK    1  A    between atoms: N_1  and  C_2
REMARK    2  A    between atoms: C_2  and  C_3
REMARK    3  A    between atoms: C_2  and  C_18
REMARK    4  A    between atoms: C_3  and  C_4
REMARK    5  A    between atoms: C_7  and  C_8
REMARK    6  A    between atoms: C_8  and  N_9
REMARK    7  A    between atoms: N_9  and  C_10
REMARK    8  A    between atoms: C_10  and  C_11
REMARK                            x       y       z     vdW  Elec       q    Type
REMARK                         _______ _______ _______ _____ _____    ______ ____
ROOT
ATOM      1  C   UNL     1       4.750  -2.742  -3.943  0.00  0.00    +0.000 C 
ENDROOT
BRANCH   1   2
ATOM      2  C   UNL     1       4.182  -4.073  -3.514  0.00  0.00    +0.000 A 
ATOM      3  C   UNL     1       4.406  -4.568  -2.228  0.00  0.00    +0.000 A 
ATOM      4  C   UNL     1       3.885  -5.804  -1.858  0.00  0.00    +0.000 A 
ATOM      5  C   UNL     1       3.138  -6.522  -2.786  0.00  0.00    +0.000 A 
ATOM      6  N   UNL     1       2.912  -6.067  -4.047  0.00  0.00    +0.000 NA
ATOM      7  C   UNL     1       3.436  -4.863  -4.381  0.00  0.00    +0.000 A 
BRANCH   5   8
ATOM      8  C   UNL     1       2.576  -7.883  -2.414  0.00  0.00    +0.000 C 
BRANCH   8   9
ATOM      9  N   UNL     1       3.009  -8.978  -3.295  0.00  0.00    +0.000 NA
ATOM     10  H   UNL     1       2.741  -8.708  -4.246  0.00  0.00    +0.000 HD
BRANCH   9  11
ATOM     11  C   UNL     1       4.469  -9.166  -3.268  0.00  0.00    +0.000 C 
BRANCH  11  12
ATOM     12  C   UNL     1       4.879 -10.339  -4.191  0.00  0.00    +0.000 C 
ATOM     13  C   UNL     1       6.373 -10.617  -4.168  0.00  0.00    +0.000 C 
ATOM     14  C   UNL     1       6.555 -11.486  -2.938  0.00  0.00    +0.000 C 
ATOM     15  C   UNL     1       5.219 -12.199  -2.768  0.00  0.00    +0.000 C 
ATOM     16  N   UNL     1       4.301 -11.622  -3.753  0.00  0.00    +0.000 NA
ATOM     17  H   UNL     1       3.390 -11.428  -3.328  0.00  0.00    +0.000 HD
ENDBRANCH  11  12
ENDBRANCH   9  11
ENDBRANCH   8   9
ENDBRANCH   5   8
ENDBRANCH   1   2
BRANCH   1  18
ATOM     18  C   UNL     1       6.163  -2.831  -4.568  0.00  0.00    +0.000 C 
BRANCH  18  19
ATOM     19  C   UNL     1       6.691  -1.467  -4.975  0.00  0.00    +0.000 A 
ATOM     20  C   UNL     1       7.463  -0.619  -4.193  0.00  0.00    +0.000 A 
ATOM     21  S   UNL     1       7.966   0.793  -5.015  0.00  0.00    +0.000 S 
ATOM     22  C   UNL     1       7.157   0.325  -6.437  0.00  0.00    +0.000 A 
ATOM     23  N   UNL     1       7.215   1.076  -7.569  0.00  0.00    +0.000 NA
ATOM     24  C   UNL     1       6.557   0.582  -8.566  0.00  0.00    +0.000 A 
ATOM     25  N   UNL     1       5.822  -0.577  -8.527  0.00  0.00    +0.000 N 
ATOM     26  C   UNL     1       5.687  -1.338  -7.389  0.00  0.00    +0.000 A 
ATOM     27  O   UNL     1       4.934  -2.306  -7.341  0.00  0.00    +0.000 OA
ATOM     28  C   UNL     1       6.474  -0.864  -6.267  0.00  0.00    +0.000 A 
ATOM     29  H   UNL     1       5.295  -0.880  -9.332  0.00  0.00    +0.000 HD
ENDBRANCH  18  19
BRANCH  18  30
ATOM     30  N   UNL     1       7.155  -3.446  -3.672  0.00  0.00    +0.000 NA
ATOM     31  H   UNL     1       6.905  -4.426  -3.541  0.00  0.00    +0.000 HD
ATOM     32  H   UNL     1       7.088  -3.018  -2.752  0.00  0.00    +0.000 HD
ENDBRANCH  18  30
ENDBRANCH   1  18
TORSDOF 8
