REMARK  Name = 
REMARK  5 active torsions:
REMARK  status: ('A' for Active; 'I' for Inactive)
REMARK    1  A    between atoms: C_2  and  C_4
REMARK    2  A    between atoms: C_7  and  O_8
REMARK    3  A    between atoms: O_8  and  C_9
REMARK    4  A    between atoms: C_9  and  C_10
REMARK    5  A    between atoms: C_14  and  C_15
REMARK                            x       y       z     vdW  Elec       q    Type
REMARK                         _______ _______ _______ _____ _____    ______ ____
ROOT
ATOM      1  C   UNL     1       5.038  -1.137   5.700  0.00  0.00    +0.000 C 
ENDROOT
BRANCH   1   2
ATOM      2  C   UNL     1       6.040  -1.023   6.825  0.00  0.00    +0.000 A 
ATOM      3  N   UNL     1       7.137  -1.785   6.766  0.00  0.00    +0.000 NA
ATOM      4  C   UNL     1       7.953  -1.666   7.809  0.00  0.00    +0.000 A 
ATOM      5  N   UNL     1       7.767  -0.879   8.863  0.00  0.00    +0.000 NA
ATOM      6  C   UNL     1       6.646  -0.153   8.827  0.00  0.00    +0.000 A 
ATOM      7  N   UNL     1       5.753  -0.189   7.833  0.00  0.00    +0.000 NA
BRANCH   6   8
ATOM      8  C   UNL     1       6.366   0.741   9.972  0.00  0.00    +0.000 A 
ATOM      9  C   UNL     1       7.261   0.845  11.059  0.00  0.00    +0.000 A 
ATOM     10  C   UNL     1       7.001   1.690  12.143  0.00  0.00    +0.000 A 
ATOM     11  C   UNL     1       5.840   2.447  12.156  0.00  0.00    +0.000 A 
ATOM     12  F   UNL     1       5.591   3.259  13.191  0.00  0.00    +0.000 F 
ATOM     13  C   UNL     1       4.932   2.374  11.109  0.00  0.00    +0.000 A 
ATOM     14  C   UNL     1       5.195   1.526  10.027  0.00  0.00    +0.000 A 
ENDBRANCH   6   8
ENDBRANCH   1   2
BRANCH   1  15
ATOM     15  O   UNL     1       5.364  -0.219   4.649  0.00  0.00    +0.000 OA
BRANCH  15  19
ATOM     16  C   UNL     1       2.708  -0.413   1.507  0.00  0.00    +0.000 A 
ATOM     17  C   UNL     1       3.782   0.477   1.449  0.00  0.00    +0.000 A 
ATOM     18  C   UNL     1       4.677   0.537   2.520  0.00  0.00    +0.000 A 
ATOM     19  C   UNL     1       4.462  -0.299   3.608  0.00  0.00    +0.000 A 
ATOM     20  N   UNL     1       3.429  -1.162   3.692  0.00  0.00    +0.000 NA
ATOM     21  C   UNL     1       2.569  -1.194   2.646  0.00  0.00    +0.000 A 
BRANCH  16  23
ATOM     22  N   UNL     1       2.087  -0.250  -0.837  0.00  0.00    +0.000 N 
ATOM     23  C   UNL     1       1.700  -0.554   0.437  0.00  0.00    +0.000 C 
ATOM     24  O   UNL     1       0.573  -0.967   0.675  0.00  0.00    +0.000 OA
ATOM     25  H   UNL     1       1.419  -0.466  -1.567  0.00  0.00    +0.000 HD
ATOM     26  H   UNL     1       3.056  -0.158  -1.106  0.00  0.00    +0.000 HD
ENDBRANCH  16  23
ENDBRANCH  15  19
ENDBRANCH   1  15
TORSDOF 5
