REMARK  Name = 
REMARK  5 active torsions:
REMARK  status: ('A' for Active; 'I' for Inactive)
REMARK    1  A    between atoms: C_2  and  C_4
REMARK    2  A    between atoms: C_7  and  O_8
REMARK    3  A    between atoms: O_8  and  C_9
REMARK    4  A    between atoms: C_9  and  C_10
REMARK    5  A    between atoms: C_14  and  C_15
REMARK                            x       y       z     vdW  Elec       q    Type
REMARK                         _______ _______ _______ _____ _____    ______ ____
ROOT
ATOM      1  C   UNL     1       4.950   0.941   5.808  0.00  0.00    +0.000 C 
ENDROOT
BRANCH   1   2
ATOM      2  C   UNL     1       5.883   1.531   6.834  0.00  0.00    +0.000 A 
ATOM      3  C   UNL     1       6.745   0.724   7.575  0.00  0.00    +0.000 A 
ATOM      4  C   UNL     1       7.540   1.321   8.537  0.00  0.00    +0.000 A 
ATOM      5  N   UNL     1       7.533   2.644   8.805  0.00  0.00    +0.000 NA
ATOM      6  C   UNL     1       6.708   3.437   8.076  0.00  0.00    +0.000 A 
ATOM      7  C   UNL     1       5.872   2.907   7.092  0.00  0.00    +0.000 A 
BRANCH   6   8
ATOM      8  C   UNL     1       6.744   4.871   8.407  0.00  0.00    +0.000 A 
ATOM      9  C   UNL     1       7.050   5.311   9.701  0.00  0.00    +0.000 A 
ATOM     10  N   UNL     1       7.086   6.612  10.099  0.00  0.00    +0.000 NA
ATOM     11  C   UNL     1       6.815   7.536   9.151  0.00  0.00    +0.000 A 
ATOM     12  C   UNL     1       6.515   7.212   7.842  0.00  0.00    +0.000 A 
ATOM     13  F   UNL     1       6.259   8.171   6.943  0.00  0.00    +0.000 F 
ATOM     14  C   UNL     1       6.479   5.876   7.464  0.00  0.00    +0.000 A 
ENDBRANCH   6   8
ENDBRANCH   1   2
BRANCH   1  15
ATOM     15  O   UNL     1       5.235   1.512   4.529  0.00  0.00    +0.000 OA
BRANCH  15  19
ATOM     16  C   UNL     1       3.114   0.391   1.195  0.00  0.00    +0.000 A 
ATOM     17  C   UNL     1       2.732  -0.189   2.397  0.00  0.00    +0.000 A 
ATOM     18  C   UNL     1       3.424   0.160   3.557  0.00  0.00    +0.000 A 
ATOM     19  C   UNL     1       4.470   1.077   3.485  0.00  0.00    +0.000 A 
ATOM     20  C   UNL     1       4.774   1.607   2.232  0.00  0.00    +0.000 A 
ATOM     21  N   UNL     1       4.130   1.291   1.080  0.00  0.00    +0.000 NA
BRANCH  16  23
ATOM     22  N   UNL     1       2.867   0.589  -1.210  0.00  0.00    +0.000 N 
ATOM     23  C   UNL     1       2.393   0.015  -0.062  0.00  0.00    +0.000 C 
ATOM     24  O   UNL     1       1.446  -0.761  -0.071  0.00  0.00    +0.000 OA
ATOM     25  H   UNL     1       2.439   0.357  -2.094  0.00  0.00    +0.000 HD
ATOM     26  H   UNL     1       3.668   1.208  -1.169  0.00  0.00    +0.000 HD
ENDBRANCH  16  23
ENDBRANCH  15  19
ENDBRANCH   1  15
TORSDOF 5
