REMARK  Name = 
REMARK  9 active torsions:
REMARK  status: ('A' for Active; 'I' for Inactive)
REMARK    1  A    between atoms: C_1  and  C_2
REMARK    2  A    between atoms: C_2  and  C_3
REMARK    3  A    between atoms: C_2  and  C_4
REMARK    4  A    between atoms: C_2  and  O_5
REMARK    5  A    between atoms: O_5  and  C_6
REMARK    6  A    between atoms: C_6  and  C_7
REMARK    7  A    between atoms: C_10  and  C_11
REMARK    8  A    between atoms: C_11  and  N_12
REMARK    9  A    between atoms: C_17  and  C_18
REMARK                            x       y       z     vdW  Elec       q    Type
REMARK                         _______ _______ _______ _____ _____    ______ ____
ROOT
ATOM      1  N   UNL     1       4.878  -6.270  -4.847  0.00  0.00    +0.000 N 
ATOM      2  C   UNL     1       3.594  -6.661  -4.576  0.00  0.00    +0.000 A 
ATOM      3  N   UNL     1       2.922  -6.919  -5.674  0.00  0.00    +0.000 NA
ATOM      4  C   UNL     1       3.806  -6.690  -6.698  0.00  0.00    +0.000 A 
ATOM      5  C   UNL     1       3.597  -6.795  -8.082  0.00  0.00    +0.000 A 
ATOM      6  C   UNL     1       4.661  -6.508  -8.949  0.00  0.00    +0.000 A 
ATOM      7  C   UNL     1       5.915  -6.152  -8.425  0.00  0.00    +0.000 A 
ATOM      8  C   UNL     1       6.141  -6.046  -7.047  0.00  0.00    +0.000 A 
ATOM      9  C   UNL     1       5.053  -6.307  -6.210  0.00  0.00    +0.000 A 
ENDROOT
BRANCH   6  10
ATOM     10  C   UNL     1       4.524  -6.551 -10.433  0.00  0.00    +0.000 C 
ATOM     11  N   UNL     1       3.314  -6.886 -10.973  0.00  0.00    +0.000 N 
ATOM     12  O   UNL     1       5.466  -6.282 -11.169  0.00  0.00    +0.000 OA
ATOM     13  H   UNL     1       2.479  -7.097 -10.450  0.00  0.00    +0.000 HD
ATOM     14  H   UNL     1       3.250  -6.881 -11.983  0.00  0.00    +0.000 HD
ENDBRANCH   6  10
BRANCH   1  15
ATOM     15  C   UNL     1       5.867  -5.914  -3.849  0.00  0.00    +0.000 C 
BRANCH  15  19
ATOM     16  C   UNL     1       4.752  -2.420  -1.673  0.00  0.00    +0.000 A 
ATOM     17  C   UNL     1       5.442  -2.272  -2.877  0.00  0.00    +0.000 A 
ATOM     18  C   UNL     1       5.802  -3.404  -3.613  0.00  0.00    +0.000 A 
ATOM     19  C   UNL     1       5.476  -4.661  -3.114  0.00  0.00    +0.000 A 
ATOM     20  N   UNL     1       4.791  -4.825  -1.955  0.00  0.00    +0.000 NA
ATOM     21  C   UNL     1       4.440  -3.712  -1.272  0.00  0.00    +0.000 A 
BRANCH  16  22
ATOM     22  C   UNL     1       4.427  -1.247  -0.794  0.00  0.00    +0.000 C 
BRANCH  22  23
ATOM     23  O   UNL     1       3.627  -0.308  -1.505  0.00  0.00    +0.000 OA
BRANCH  23  25
ATOM     24  C   UNL     1       4.537   1.704  -0.432  0.00  0.00    +0.000 C 
ATOM     25  C   UNL     1       3.285   0.899  -0.802  0.00  0.00    +0.000 C 
ATOM     26  C   UNL     1       2.432   0.610   0.440  0.00  0.00    +0.000 C 
ATOM     27  C   UNL     1       2.446   1.728  -1.787  0.00  0.00    +0.000 C 
ENDBRANCH  23  25
ENDBRANCH  22  23
ENDBRANCH  16  22
ENDBRANCH  15  19
ENDBRANCH   1  15
TORSDOF 6
