REMARK  Name = 
REMARK  8 active torsions:
REMARK  status: ('A' for Active; 'I' for Inactive)
REMARK    1  A    between atoms: C_1  and  C_2
REMARK    2  A    between atoms: C_2  and  N_3
REMARK    3  A    between atoms: C_2  and  C_25
REMARK    4  A    between atoms: N_3  and  C_4
REMARK    5  A    between atoms: C_4  and  C_5
REMARK    6  A    between atoms: C_8  and  C_9
REMARK    7  A    between atoms: C_9  and  N_10
REMARK    8  A    between atoms: C_11  and  C_13
REMARK                            x       y       z     vdW  Elec       q    Type
REMARK                         _______ _______ _______ _____ _____    ______ ____
ROOT
ATOM      1  C   UNL     1       3.100  -0.264   3.684  0.00  0.00    +0.000 A 
ATOM      2  C   UNL     1       3.644   0.608   4.623  0.00  0.00    +0.000 A 
ATOM      3  C   UNL     1       4.050   0.105   5.857  0.00  0.00    +0.000 A 
ATOM      4  C   UNL     1       3.891  -1.253   6.144  0.00  0.00    +0.000 A 
ATOM      5  C   UNL     1       3.347  -2.049   5.143  0.00  0.00    +0.000 A 
ATOM      6  N   UNL     1       2.943  -1.587   3.933  0.00  0.00    +0.000 NA
ENDROOT
BRANCH   1   7
ATOM      7  C   UNL     1       2.607   0.265   2.351  0.00  0.00    +0.000 C 
BRANCH   7   8
ATOM      8  N   UNL     1       3.666   0.917   1.570  0.00  0.00    +0.000 NA
ATOM      9  H   UNL     1       4.073   1.680   2.111  0.00  0.00    +0.000 HD
BRANCH   8  11
ATOM     10  C   UNL     1       2.632   0.372  -0.629  0.00  0.00    +0.000 C 
ATOM     11  C   UNL     1       3.184   1.468   0.287  0.00  0.00    +0.000 C 
BRANCH  11  12
ATOM     12  C   UNL     1       4.323   2.190  -0.436  0.00  0.00    +0.000 A 
ATOM     13  C   UNL     1       5.452   1.481  -0.856  0.00  0.00    +0.000 A 
ATOM     14  C   UNL     1       6.509   2.169  -1.441  0.00  0.00    +0.000 A 
ATOM     15  C   UNL     1       6.412   3.543  -1.605  0.00  0.00    +0.000 A 
ATOM     16  C   UNL     1       5.251   4.172  -1.186  0.00  0.00    +0.000 A 
ATOM     17  N   UNL     1       4.210   3.533  -0.607  0.00  0.00    +0.000 NA
ENDBRANCH  11  12
ENDBRANCH   8  11
ENDBRANCH   7   8
ENDBRANCH   1   7
BRANCH   4  18
ATOM     18  C   UNL     1       4.247  -1.867   7.467  0.00  0.00    +0.000 C 
BRANCH  18  19
ATOM     19  N   UNL     1       5.611  -2.339   7.523  0.00  0.00    +0.000 N 
ATOM     20  C   UNL     1       5.976  -3.606   7.144  0.00  0.00    +0.000 C 
ATOM     21  O   UNL     1       5.171  -4.434   6.720  0.00  0.00    +0.000 OA
ATOM     22  H   UNL     1       6.203  -1.875   8.203  0.00  0.00    +0.000 HD
BRANCH  20  23
ATOM     23  C   UNL     1       7.407  -3.903   7.257  0.00  0.00    +0.000 A 
ATOM     24  C   UNL     1       7.995  -4.821   6.404  0.00  0.00    +0.000 A 
ATOM     25  S   UNL     1       9.667  -5.035   6.685  0.00  0.00    +0.000 S 
ATOM     26  C   UNL     1       9.660  -3.929   7.979  0.00  0.00    +0.000 A 
ATOM     27  N   UNL     1      10.774  -3.670   8.698  0.00  0.00    +0.000 NA
ATOM     28  C   UNL     1      10.610  -2.827   9.663  0.00  0.00    +0.000 A 
ATOM     29  N   UNL     1       9.427  -2.204   9.964  0.00  0.00    +0.000 N 
ATOM     30  C   UNL     1       8.284  -2.392   9.229  0.00  0.00    +0.000 A 
ATOM     31  O   UNL     1       7.260  -1.746   9.464  0.00  0.00    +0.000 OA
ATOM     32  C   UNL     1       8.401  -3.373   8.164  0.00  0.00    +0.000 A 
ATOM     33  H   UNL     1       9.375  -1.527  10.709  0.00  0.00    +0.000 HD
ENDBRANCH  20  23
ENDBRANCH  18  19
ENDBRANCH   4  18
TORSDOF 7
