REMARK  Name = 
REMARK  6 active torsions:
REMARK  status: ('A' for Active; 'I' for Inactive)
REMARK    1  A    between atoms: N_1  and  C_2
REMARK    2  A    between atoms: C_2  and  C_3
REMARK    3  A    between atoms: C_6  and  O_7
REMARK    4  A    between atoms: O_7  and  C_8
REMARK    5  A    between atoms: C_8  and  C_9
REMARK    6  A    between atoms: C_12  and  O_13
REMARK                            x       y       z     vdW  Elec       q    Type
REMARK                         _______ _______ _______ _____ _____    ______ ____
ROOT
ATOM      1  C   UNL     1       2.927  -0.573   1.308  0.00  0.00    +0.000 A 
ATOM      2  C   UNL     1       3.267   0.304   2.348  0.00  0.00    +0.000 A 
ATOM      3  C   UNL     1       3.562  -0.188   3.622  0.00  0.00    +0.000 A 
ATOM      4  C   UNL     1       3.503  -1.557   3.876  0.00  0.00    +0.000 A 
ATOM      5  C   UNL     1       3.230  -2.440   2.830  0.00  0.00    +0.000 A 
ATOM      6  C   UNL     1       2.931  -1.950   1.558  0.00  0.00    +0.000 A 
ENDROOT
BRANCH   1   7
ATOM      7  C   UNL     1       2.534  -0.055  -0.051  0.00  0.00    +0.000 C 
BRANCH   7   8
ATOM      8  N   UNL     1       3.605   0.717  -0.667  0.00  0.00    +0.000 NA
ATOM      9  H   UNL     1       3.354   0.914  -1.634  0.00  0.00    +0.000 HD
ATOM     10  H   UNL     1       4.446   0.142  -0.699  0.00  0.00    +0.000 HD
ENDBRANCH   7   8
ENDBRANCH   1   7
BRANCH   4  11
ATOM     11  O   UNL     1       3.724  -1.936   5.174  0.00  0.00    +0.000 OA
BRANCH  11  12
ATOM     12  C   UNL     1       3.152  -3.198   5.532  0.00  0.00    +0.000 C 
BRANCH  12  13
ATOM     13  C   UNL     1       2.958  -3.252   7.017  0.00  0.00    +0.000 A 
ATOM     14  C   UNL     1       2.205  -2.285   7.688  0.00  0.00    +0.000 A 
ATOM     15  C   UNL     1       2.011  -2.393   9.061  0.00  0.00    +0.000 A 
ATOM     16  C   UNL     1       2.576  -3.476   9.712  0.00  0.00    +0.000 A 
ATOM     17  N   UNL     1       3.289  -4.437   9.102  0.00  0.00    +0.000 NA
ATOM     18  C   UNL     1       3.467  -4.305   7.770  0.00  0.00    +0.000 A 
BRANCH  16  19
ATOM     19  O   UNL     1       2.436  -3.637  11.058  0.00  0.00    +0.000 OA
ATOM     20  H   UNL     1       2.014  -2.841  11.408  0.00  0.00    +0.000 HD
ENDBRANCH  16  19
ENDBRANCH  12  13
ENDBRANCH  11  12
ENDBRANCH   4  11
TORSDOF 6
