REMARK  Name = 
REMARK  5 active torsions:
REMARK  status: ('A' for Active; 'I' for Inactive)
REMARK    1  A    between atoms: C_2  and  C_4
REMARK    2  A    between atoms: C_7  and  O_8
REMARK    3  A    between atoms: O_8  and  C_9
REMARK    4  A    between atoms: C_9  and  C_10
REMARK    5  A    between atoms: C_15  and  C_16
REMARK                            x       y       z     vdW  Elec       q    Type
REMARK                         _______ _______ _______ _____ _____    ______ ____
ROOT
ATOM      1  C   UNL     1       5.926  -1.638  -6.831  0.00  0.00    +0.000 A 
ATOM      2  C   UNL     1       6.717  -0.780  -7.605  0.00  0.00    +0.000 A 
ATOM      3  C   UNL     1       7.511  -1.293  -8.624  0.00  0.00    +0.000 A 
ATOM      4  C   UNL     1       7.510  -2.662  -8.886  0.00  0.00    +0.000 A 
ATOM      5  F   UNL     1       8.272  -3.095  -9.901  0.00  0.00    +0.000 F 
ATOM      6  C   UNL     1       6.729  -3.565  -8.143  0.00  0.00    +0.000 A 
ATOM      7  C   UNL     1       5.939  -3.017  -7.113  0.00  0.00    +0.000 A 
ENDROOT
BRANCH   6   8
ATOM      8  C   UNL     1       6.719  -5.020  -8.417  0.00  0.00    +0.000 A 
ATOM      9  C   UNL     1       7.849  -5.709  -8.879  0.00  0.00    +0.000 A 
ATOM     10  N   UNL     1       7.906  -7.041  -9.143  0.00  0.00    +0.000 NA
ATOM     11  C   UNL     1       6.772  -7.744  -8.935  0.00  0.00    +0.000 A 
ATOM     12  C   UNL     1       5.603  -7.172  -8.476  0.00  0.00    +0.000 A 
ATOM     13  F   UNL     1       4.510  -7.919  -8.276  0.00  0.00    +0.000 F 
ATOM     14  C   UNL     1       5.572  -5.807  -8.220  0.00  0.00    +0.000 A 
ENDBRANCH   6   8
BRANCH   1  15
ATOM     15  C   UNL     1       5.007  -1.059  -5.777  0.00  0.00    +0.000 C 
BRANCH  15  16
ATOM     16  O   UNL     1       4.823  -1.984  -4.700  0.00  0.00    +0.000 OA
BRANCH  16  20
ATOM     17  C   UNL     1       2.318  -0.546  -1.768  0.00  0.00    +0.000 A 
ATOM     18  C   UNL     1       2.873  -1.820  -1.637  0.00  0.00    +0.000 A 
ATOM     19  C   UNL     1       3.715  -2.300  -2.642  0.00  0.00    +0.000 A 
ATOM     20  C   UNL     1       3.969  -1.486  -3.735  0.00  0.00    +0.000 A 
ATOM     21  N   UNL     1       3.435  -0.258  -3.894  0.00  0.00    +0.000 NA
ATOM     22  C   UNL     1       2.613   0.182  -2.912  0.00  0.00    +0.000 A 
BRANCH  17  24
ATOM     23  N   UNL     1       1.571  -0.337   0.534  0.00  0.00    +0.000 N 
ATOM     24  C   UNL     1       1.425   0.066  -0.764  0.00  0.00    +0.000 C 
ATOM     25  O   UNL     1       0.618   0.932  -1.071  0.00  0.00    +0.000 OA
ATOM     26  H   UNL     1       1.036   0.180   1.221  0.00  0.00    +0.000 HD
ATOM     27  H   UNL     1       2.382  -0.843   0.860  0.00  0.00    +0.000 HD
ENDBRANCH  17  24
ENDBRANCH  16  20
ENDBRANCH  15  16
ENDBRANCH   1  15
TORSDOF 5
