REMARK  Name = 
REMARK  10 active torsions:
REMARK  status: ('A' for Active; 'I' for Inactive)
REMARK    1  A    between atoms: C_1  and  C_2
REMARK    2  A    between atoms: C_4  and  N_5
REMARK    3  A    between atoms: N_5  and  C_6
REMARK    4  A    between atoms: C_6  and  C_7
REMARK    5  A    between atoms: C_7  and  C_8
REMARK    6  A    between atoms: C_7  and  C_9
REMARK    7  A    between atoms: C_7  and  C_10
REMARK    8  A    between atoms: C_14  and  O_15
REMARK    9  A    between atoms: O_15  and  C_16
REMARK   10  A    between atoms: C_23  and  C_24
REMARK                            x       y       z     vdW  Elec       q    Type
REMARK                         _______ _______ _______ _____ _____    ______ ____
ROOT
ATOM      1  C   UNL     1      -1.137   3.621   0.032  0.00  0.00    +0.000 C 
ENDROOT
BRANCH   1   2
ATOM      2  C   UNL     1      -2.016   4.907   0.045  0.00  0.00    +0.000 C 
ATOM      3  C   UNL     1      -2.936   4.884  -1.203  0.00  0.00    +0.000 C 
ATOM      4  C   UNL     1      -2.917   4.807   1.302  0.00  0.00    +0.000 C 
BRANCH   2   5
ATOM      5  C   UNL     1      -1.232   6.226   0.100  0.00  0.00    +0.000 A 
ATOM      6  C   UNL     1       0.159   6.310   0.177  0.00  0.00    +0.000 A 
ATOM      7  N   UNL     1       0.865   7.466   0.194  0.00  0.00    +0.000 NA
ATOM      8  C   UNL     1       0.156   8.613   0.126  0.00  0.00    +0.000 A 
ATOM      9  C   UNL     1      -1.225   8.660   0.054  0.00  0.00    +0.000 A 
ATOM     10  C   UNL     1      -1.917   7.453   0.067  0.00  0.00    +0.000 A 
BRANCH   9  11
ATOM     11  O   UNL     1      -1.823   9.890  -0.021  0.00  0.00    +0.000 OA
BRANCH  11  12
ATOM     12  C   UNL     1      -3.131   9.962  -0.635  0.00  0.00    +0.000 C 
ATOM     13  C   UNL     1      -3.213   9.620  -2.144  0.00  0.00    +0.000 C 
ATOM     14  C   UNL     1      -4.112  10.846  -2.340  0.00  0.00    +0.000 C 
ATOM     15  C   UNL     1      -3.602  11.388  -0.996  0.00  0.00    +0.000 C 
ENDBRANCH  11  12
ENDBRANCH   9  11
ENDBRANCH   2   5
ENDBRANCH   1   2
BRANCH   1  16
ATOM     16  N   UNL     1      -0.201   3.581  -1.089  0.00  0.00    +0.000 N 
ATOM     17  H   UNL     1      -0.494   4.027  -1.953  0.00  0.00    +0.000 HD
BRANCH  16  21
ATOM     18  C   UNL     1       1.800  -0.632   0.554  0.00  0.00    +0.000 C 
ATOM     19  C   UNL     1       1.768   0.456  -0.484  0.00  0.00    +0.000 A 
ATOM     20  C   UNL     1       0.802   1.471  -0.343  0.00  0.00    +0.000 A 
ATOM     21  C   UNL     1       0.679   2.522  -1.259  0.00  0.00    +0.000 A 
ATOM     22  C   UNL     1       1.588   2.565  -2.320  0.00  0.00    +0.000 A 
ATOM     23  C   UNL     1       2.563   1.575  -2.481  0.00  0.00    +0.000 A 
ATOM     24  C   UNL     1       2.666   0.517  -1.565  0.00  0.00    +0.000 A 
BRANCH  24  25
ATOM     25  C   UNL     1       3.714  -0.527  -1.767  0.00  0.00    +0.000 C 
ATOM     26  N   UNL     1       4.875  -0.140  -2.384  0.00  0.00    +0.000 N 
ATOM     27  O   UNL     1       3.584  -1.685  -1.394  0.00  0.00    +0.000 OA
ATOM     28  H   UNL     1       5.127   0.829  -2.522  0.00  0.00    +0.000 HD
ATOM     29  H   UNL     1       5.611  -0.831  -2.425  0.00  0.00    +0.000 HD
ENDBRANCH  24  25
ENDBRANCH  16  21
ENDBRANCH   1  16
TORSDOF 7
