REMARK  Name = 
REMARK  6 active torsions:
REMARK  status: ('A' for Active; 'I' for Inactive)
REMARK    1  A    between atoms: N_1  and  C_2
REMARK    2  A    between atoms: C_5  and  C_6
REMARK    3  A    between atoms: C_6  and  C_7
REMARK    4  A    between atoms: C_10  and  C_11
REMARK    5  A    between atoms: C_11  and  N_12
REMARK    6  A    between atoms: C_13  and  C_15
REMARK                            x       y       z     vdW  Elec       q    Type
REMARK                         _______ _______ _______ _____ _____    ______ ____
ROOT
ATOM      1  C   UNL     1       2.484   1.345   2.394  0.00  0.00    +0.000 A 
ATOM      2  C   UNL     1       1.850   2.568   2.161  0.00  0.00    +0.000 A 
ATOM      3  C   UNL     1       2.388   3.744   2.669  0.00  0.00    +0.000 A 
ATOM      4  C   UNL     1       3.539   3.674   3.443  0.00  0.00    +0.000 A 
ATOM      5  N   UNL     1       4.174   2.499   3.696  0.00  0.00    +0.000 NA
ATOM      6  C   UNL     1       3.639   1.373   3.166  0.00  0.00    +0.000 A 
ENDROOT
BRANCH   1   7
ATOM      7  C   UNL     1       1.922   0.063   1.838  0.00  0.00    +0.000 C 
BRANCH   7  11
ATOM      8  C   UNL     1      -0.031  -0.383  -1.324  0.00  0.00    +0.000 C 
ATOM      9  C   UNL     1       0.643   0.933  -0.925  0.00  0.00    +0.000 C 
ATOM     10  C   UNL     1       2.136   0.741  -0.664  0.00  0.00    +0.000 C 
ATOM     11  C   UNL     1       2.411  -0.318   0.418  0.00  0.00    +0.000 C 
ATOM     12  C   UNL     1       1.774  -1.646  -0.041  0.00  0.00    +0.000 C 
ATOM     13  C   UNL     1       0.276  -1.519  -0.338  0.00  0.00    +0.000 C 
BRANCH   8  14
ATOM     14  N   UNL     1      -1.479  -0.193  -1.421  0.00  0.00    +0.000 NA
ATOM     15  H   UNL     1      -1.680   0.603  -2.028  0.00  0.00    +0.000 HD
ATOM     16  H   UNL     1      -1.858   0.056  -0.507  0.00  0.00    +0.000 HD
ENDBRANCH   8  14
ENDBRANCH   7  11
ENDBRANCH   1   7
BRANCH   4  17
ATOM     17  C   UNL     1       4.121   4.937   4.030  0.00  0.00    +0.000 C 
BRANCH  17  18
ATOM     18  N   UNL     1       5.095   5.557   3.159  0.00  0.00    +0.000 N 
ATOM     19  C   UNL     1       4.776   6.577   2.304  0.00  0.00    +0.000 C 
ATOM     20  O   UNL     1       3.632   7.016   2.209  0.00  0.00    +0.000 OA
ATOM     21  H   UNL     1       5.973   5.059   3.053  0.00  0.00    +0.000 HD
BRANCH  19  22
ATOM     22  C   UNL     1       5.889   7.180   1.556  0.00  0.00    +0.000 A 
ATOM     23  C   UNL     1       5.767   8.477   1.074  0.00  0.00    +0.000 A 
ATOM     24  S   UNL     1       7.157   9.042   0.264  0.00  0.00    +0.000 S 
ATOM     25  C   UNL     1       7.955   7.557   0.488  0.00  0.00    +0.000 A 
ATOM     26  N   UNL     1       9.207   7.357  -0.007  0.00  0.00    +0.000 NA
ATOM     27  C   UNL     1       9.677   6.172   0.203  0.00  0.00    +0.000 A 
ATOM     28  N   UNL     1       9.019   5.177   0.876  0.00  0.00    +0.000 N 
ATOM     29  C   UNL     1       7.780   5.354   1.446  0.00  0.00    +0.000 A 
ATOM     30  O   UNL     1       7.263   4.478   2.128  0.00  0.00    +0.000 OA
ATOM     31  C   UNL     1       7.185   6.654   1.198  0.00  0.00    +0.000 A 
ATOM     32  H   UNL     1       9.454   4.282   1.031  0.00  0.00    +0.000 HD
ENDBRANCH  19  22
ENDBRANCH  17  18
ENDBRANCH   4  17
TORSDOF 6
