REMARK  Name = 
REMARK  7 active torsions:
REMARK  status: ('A' for Active; 'I' for Inactive)
REMARK    1  A    between atoms: C_1  and  O_2
REMARK    2  A    between atoms: O_2  and  C_3
REMARK    3  A    between atoms: C_7  and  C_8
REMARK    4  A    between atoms: C_12  and  C_13
REMARK    5  A    between atoms: C_13  and  N_14
REMARK    6  A    between atoms: N_14  and  C_15
REMARK    7  A    between atoms: C_18  and  C_19
REMARK                            x       y       z     vdW  Elec       q    Type
REMARK                         _______ _______ _______ _____ _____    ______ ____
ROOT
ATOM      1  C   UNL     1       3.204   1.679   8.228  0.00  0.00    +0.000 C 
ATOM      2  C   UNL     1       1.932   1.949   9.008  0.00  0.00    +0.000 C 
ATOM      3  C   UNL     1       2.371   2.941   7.984  0.00  0.00    +0.000 C 
ENDROOT
BRANCH   1   8
ATOM      4  C   UNL     1       3.362  -0.023   4.752  0.00  0.00    +0.000 A 
ATOM      5  C   UNL     1       3.074  -1.350   5.108  0.00  0.00    +0.000 A 
ATOM      6  C   UNL     1       2.857  -1.709   6.439  0.00  0.00    +0.000 A 
ATOM      7  C   UNL     1       2.902  -0.741   7.442  0.00  0.00    +0.000 A 
ATOM      8  C   UNL     1       3.171   0.602   7.146  0.00  0.00    +0.000 A 
ATOM      9  C   UNL     1       3.416   0.924   5.795  0.00  0.00    +0.000 A 
BRANCH   4  14
ATOM     10  C   UNL     1       3.405   1.984   1.521  0.00  0.00    +0.000 A 
ATOM     11  C   UNL     1       4.039   1.054   0.710  0.00  0.00    +0.000 A 
ATOM     12  N   UNL     1       4.457  -0.163   1.126  0.00  0.00    +0.000 NA
ATOM     13  C   UNL     1       4.225  -0.465   2.426  0.00  0.00    +0.000 A 
ATOM     14  C   UNL     1       3.590   0.374   3.345  0.00  0.00    +0.000 A 
ATOM     15  C   UNL     1       3.178   1.626   2.850  0.00  0.00    +0.000 A 
BRANCH  10  17
ATOM     16  C   UNL     1       2.460   4.150   1.763  0.00  0.00    +0.000 C 
ATOM     17  O   UNL     1       3.056   3.163   0.929  0.00  0.00    +0.000 OA
ENDBRANCH  10  17
ENDBRANCH   4  14
ENDBRANCH   1   8
BRANCH   1  18
ATOM     18  N   UNL     1       4.543   1.970   8.750  0.00  0.00    +0.000 N 
ATOM     19  H   UNL     1       5.187   2.384   8.080  0.00  0.00    +0.000 HD
BRANCH  18  20
ATOM     20  C   UNL     1       5.205   1.320   9.803  0.00  0.00    +0.000 A 
ATOM     21  C   UNL     1       4.610   0.397  10.667  0.00  0.00    +0.000 A 
ATOM     22  C   UNL     1       5.309  -0.099  11.778  0.00  0.00    +0.000 A 
ATOM     23  C   UNL     1       6.612   0.331  12.055  0.00  0.00    +0.000 A 
ATOM     24  C   UNL     1       7.218   1.258  11.206  0.00  0.00    +0.000 A 
ATOM     25  C   UNL     1       6.515   1.742  10.099  0.00  0.00    +0.000 A 
BRANCH  23  26
ATOM     26  C   UNL     1       7.290  -0.154  13.286  0.00  0.00    +0.000 C 
ATOM     27  N   UNL     1       8.659  -0.115  13.312  0.00  0.00    +0.000 N 
ATOM     28  O   UNL     1       6.656  -0.584  14.241  0.00  0.00    +0.000 OA
ATOM     29  H   UNL     1       9.228   0.030  12.494  0.00  0.00    +0.000 HD
ATOM     30  H   UNL     1       9.102  -0.500  14.137  0.00  0.00    +0.000 HD
ENDBRANCH  23  26
ENDBRANCH  18  20
ENDBRANCH   1  18
TORSDOF 6
