REMARK  Name = 
REMARK  6 active torsions:
REMARK  status: ('A' for Active; 'I' for Inactive)
REMARK    1  A    between atoms: C_2  and  C_21
REMARK    2  A    between atoms: N_3  and  C_4
REMARK    3  A    between atoms: C_4  and  C_5
REMARK    4  A    between atoms: C_8  and  C_9
REMARK    5  A    between atoms: C_9  and  N_10
REMARK    6  A    between atoms: C_11  and  C_13
REMARK                            x       y       z     vdW  Elec       q    Type
REMARK                         _______ _______ _______ _____ _____    ______ ____
ROOT
ATOM      1  C   UNL     1      11.050 -11.858  -6.711  0.00  0.00    +0.000 A 
ATOM      2  C   UNL     1      10.698 -11.715  -5.367  0.00  0.00    +0.000 A 
ATOM      3  C   UNL     1      10.499 -10.443  -4.836  0.00  0.00    +0.000 A 
ATOM      4  C   UNL     1      10.676  -9.333  -5.659  0.00  0.00    +0.000 A 
ATOM      5  N   UNL     1      11.019  -9.446  -6.968  0.00  0.00    +0.000 NA
ATOM      6  C   UNL     1      11.210 -10.695  -7.455  0.00  0.00    +0.000 A 
ENDROOT
BRANCH   1   7
ATOM      7  C   UNL     1      11.272 -13.204  -7.333  0.00  0.00    +0.000 C 
BRANCH   7  10
ATOM      8  O   UNL     1      13.364 -13.016  -9.208  0.00  0.00    +0.000 OA
ATOM      9  C   UNL     1      13.600 -13.497  -8.105  0.00  0.00    +0.000 C 
ATOM     10  N   UNL     1      12.629 -13.654  -7.151  0.00  0.00    +0.000 N 
ATOM     11  H   UNL     1      12.896 -13.897  -6.203  0.00  0.00    +0.000 HD
BRANCH   9  12
ATOM     12  C   UNL     1      14.942 -13.980  -7.747  0.00  0.00    +0.000 A 
ATOM     13  C   UNL     1      15.850 -14.298  -8.748  0.00  0.00    +0.000 A 
ATOM     14  S   UNL     1      17.350 -14.857  -8.159  0.00  0.00    +0.000 S 
ATOM     15  C   UNL     1      16.857 -14.650  -6.546  0.00  0.00    +0.000 A 
ATOM     16  N   UNL     1      17.702 -14.919  -5.515  0.00  0.00    +0.000 NA
ATOM     17  C   UNL     1      17.213 -14.683  -4.344  0.00  0.00    +0.000 A 
ATOM     18  N   UNL     1      15.946 -14.211  -4.109  0.00  0.00    +0.000 N 
ATOM     19  C   UNL     1      15.035 -13.995  -5.112  0.00  0.00    +0.000 A 
ATOM     20  O   UNL     1      13.872 -13.701  -4.858  0.00  0.00    +0.000 OA
ATOM     21  C   UNL     1      15.553 -14.195  -6.454  0.00  0.00    +0.000 A 
ATOM     22  H   UNL     1      15.613 -14.079  -3.165  0.00  0.00    +0.000 HD
ENDBRANCH   9  12
ENDBRANCH   7  10
ENDBRANCH   1   7
BRANCH   4  23
ATOM     23  C   UNL     1      10.497  -7.938  -5.111  0.00  0.00    +0.000 C 
BRANCH  23  24
ATOM     24  N   UNL     1       9.151  -7.430  -5.277  0.00  0.00    +0.000 N 
ATOM     25  C   UNL     1       8.191  -7.580  -4.296  0.00  0.00    +0.000 C 
ATOM     26  O   UNL     1       8.403  -8.197  -3.255  0.00  0.00    +0.000 OA
ATOM     27  H   UNL     1       8.862  -7.188  -6.216  0.00  0.00    +0.000 HD
BRANCH  25  28
ATOM     28  C   UNL     1       6.853  -6.868  -4.626  0.00  0.00    +0.000 C 
ATOM     29  C   UNL     1       5.780  -7.049  -3.545  0.00  0.00    +0.000 C 
ATOM     30  C   UNL     1       6.091  -6.271  -2.268  0.00  0.00    +0.000 C 
ATOM     31  C   UNL     1       6.421  -4.816  -2.581  0.00  0.00    +0.000 C 
ATOM     32  C   UNL     1       7.467  -4.696  -3.686  0.00  0.00    +0.000 C 
ATOM     33  N   UNL     1       7.081  -5.427  -4.897  0.00  0.00    +0.000 NA
ATOM     34  H   UNL     1       7.824  -5.328  -5.586  0.00  0.00    +0.000 HD
ENDBRANCH  25  28
ENDBRANCH  23  24
ENDBRANCH   4  23
TORSDOF 6
