REMARK  Name = 
REMARK  12 active torsions:
REMARK  status: ('A' for Active; 'I' for Inactive)
REMARK    1  A    between atoms: C_1  and  C_2
REMARK    2  A    between atoms: C_2  and  N_3
REMARK    3  A    between atoms: C_2  and  C_22
REMARK    4  A    between atoms: N_3  and  C_4
REMARK    5  A    between atoms: C_4  and  C_5
REMARK    6  A    between atoms: C_8  and  C_9
REMARK    7  A    between atoms: C_9  and  O_10
REMARK    8  A    between atoms: C_9  and  C_11
REMARK    9  A    between atoms: C_11  and  N_12
REMARK   10  A    between atoms: C_16  and  C_17
REMARK   11  A    between atoms: C_17  and  O_19
REMARK   12  A    between atoms: C_22  and  C_24
REMARK                            x       y       z     vdW  Elec       q    Type
REMARK                         _______ _______ _______ _____ _____    ______ ____
ROOT
ATOM      1  C   UNL     1      -6.255  -0.818  -5.347  0.00  0.00    +0.000 A 
ATOM      2  C   UNL     1      -6.754   0.158  -4.484  0.00  0.00    +0.000 A 
ATOM      3  C   UNL     1      -6.365   0.180  -3.149  0.00  0.00    +0.000 A 
ATOM      4  C   UNL     1      -5.474  -0.786  -2.651  0.00  0.00    +0.000 A 
ATOM      5  C   UNL     1      -5.005  -1.786  -3.514  0.00  0.00    +0.000 A 
ATOM      6  C   UNL     1      -5.389  -1.800  -4.852  0.00  0.00    +0.000 A 
ENDROOT
BRANCH   1   7
ATOM      7  C   UNL     1      -6.655  -0.824  -6.794  0.00  0.00    +0.000 C 
BRANCH   7   8
ATOM      8  N   UNL     1      -6.229   0.411  -7.459  0.00  0.00    +0.000 NA
ATOM      9  H   UNL     1      -5.212   0.493  -7.371  0.00  0.00    +0.000 HD
BRANCH   8  11
ATOM     10  C   UNL     1      -6.205   1.735  -9.496  0.00  0.00    +0.000 C 
ATOM     11  C   UNL     1      -6.583   0.381  -8.894  0.00  0.00    +0.000 C 
BRANCH  11  12
ATOM     12  C   UNL     1      -5.894  -0.831  -9.606  0.00  0.00    +0.000 C 
ATOM     13  O   UNL     1      -4.741  -1.160  -9.321  0.00  0.00    +0.000 OA
BRANCH  12  14
ATOM     14  C   UNL     1      -6.672  -1.590 -10.599  0.00  0.00    +0.000 A 
ATOM     15  C   UNL     1      -7.691  -1.015 -11.340  0.00  0.00    +0.000 A 
ATOM     16  S   UNL     1      -8.335  -2.055 -12.529  0.00  0.00    +0.000 S 
ATOM     17  C   UNL     1      -7.280  -3.301 -12.092  0.00  0.00    +0.000 A 
ATOM     18  N   UNL     1      -7.252  -4.480 -12.780  0.00  0.00    +0.000 NA
ATOM     19  C   UNL     1      -6.349  -5.306 -12.378  0.00  0.00    +0.000 A 
ATOM     20  N   UNL     1      -5.502  -5.098 -11.315  0.00  0.00    +0.000 N 
ATOM     21  C   UNL     1      -5.682  -4.035 -10.446  0.00  0.00    +0.000 A 
ATOM     22  O   UNL     1      -5.282  -4.082  -9.288  0.00  0.00    +0.000 OA
ATOM     23  C   UNL     1      -6.505  -2.974 -10.990  0.00  0.00    +0.000 A 
ATOM     24  H   UNL     1      -4.913  -5.844 -10.985  0.00  0.00    +0.000 HD
ENDBRANCH  12  14
ENDBRANCH  11  12
ENDBRANCH   8  11
ENDBRANCH   7   8
ENDBRANCH   1   7
BRANCH   4  25
ATOM     25  C   UNL     1      -5.064  -0.744  -1.196  0.00  0.00    +0.000 C 
BRANCH  25  26
ATOM     26  O   UNL     1      -3.657  -0.544  -1.040  0.00  0.00    +0.000 OA
ATOM     27  H   UNL     1      -3.224  -0.813  -1.867  0.00  0.00    +0.000 HD
ENDBRANCH  25  26
BRANCH  25  28
ATOM     28  C   UNL     1      -5.487  -2.038  -0.449  0.00  0.00    +0.000 C 
BRANCH  28  29
ATOM     29  N   UNL     1      -5.158  -2.031   1.001  0.00  0.00    +0.000 NA
ATOM     30  C   UNL     1      -5.545  -3.309   1.640  0.00  0.00    +0.000 C 
ATOM     31  C   UNL     1      -7.035  -3.171   1.882  0.00  0.00    +0.000 C 
ATOM     32  C   UNL     1      -7.148  -1.738   2.366  0.00  0.00    +0.000 C 
ATOM     33  C   UNL     1      -5.965  -1.004   1.733  0.00  0.00    +0.000 C 
BRANCH  33  34
ATOM     34  C   UNL     1      -5.067  -0.312   2.774  0.00  0.00    +0.000 C 
ATOM     35  O   UNL     1      -5.470   0.181   3.817  0.00  0.00    +0.000 OA
BRANCH  34  36
ATOM     36  O   UNL     1      -3.771  -0.235   2.383  0.00  0.00    +0.000 OA
ATOM     37  H   UNL     1      -3.667  -0.709   1.522  0.00  0.00    +0.000 HD
ENDBRANCH  34  36
ENDBRANCH  33  34
ENDBRANCH  28  29
ENDBRANCH  25  28
ENDBRANCH   4  25
TORSDOF 11
