REMARK  Name = 
REMARK  10 active torsions:
REMARK  status: ('A' for Active; 'I' for Inactive)
REMARK    1  A    between atoms: C_1  and  C_2
REMARK    2  A    between atoms: N_4  and  C_5
REMARK    3  A    between atoms: C_9  and  C_10
REMARK    4  A    between atoms: C_10  and  C_11
REMARK    5  A    between atoms: C_10  and  C_12
REMARK    6  A    between atoms: C_10  and  C_13
REMARK    7  A    between atoms: C_13  and  N_14
REMARK    8  A    between atoms: N_14  and  C_15
REMARK    9  A    between atoms: C_18  and  C_19
REMARK   10  A    between atoms: C_26  and  C_27
REMARK                            x       y       z     vdW  Elec       q    Type
REMARK                         _______ _______ _______ _____ _____    ______ ____
ROOT
ATOM      1  C   UNL     1      -1.449   1.031  -5.345  0.00  0.00    +0.000 C 
ATOM      2  C   UNL     1      -0.968  -0.248  -6.076  0.00  0.00    +0.000 C 
ATOM      3  C   UNL     1      -2.474   0.654  -4.256  0.00  0.00    +0.000 C 
ENDROOT
BRANCH   1   8
ATOM      4  C   UNL     1       1.787   1.440  -3.249  0.00  0.00    +0.000 A 
ATOM      5  C   UNL     1       2.180   2.728  -3.616  0.00  0.00    +0.000 A 
ATOM      6  C   UNL     1       1.400   3.506  -4.464  0.00  0.00    +0.000 A 
ATOM      7  C   UNL     1       0.216   2.997  -4.997  0.00  0.00    +0.000 A 
ATOM      8  C   UNL     1      -0.219   1.702  -4.682  0.00  0.00    +0.000 A 
ATOM      9  C   UNL     1       0.566   0.971  -3.763  0.00  0.00    +0.000 A 
BRANCH   4  13
ATOM     10  C   UNL     1       1.850  -2.297  -3.195  0.00  0.00    +0.000 C 
ATOM     11  C   UNL     1       2.537  -1.758  -1.942  0.00  0.00    +0.000 C 
ATOM     12  C   UNL     1       2.039  -0.357  -1.539  0.00  0.00    +0.000 C 
ATOM     13  N   UNL     1       2.583   0.672  -2.426  0.00  0.00    +0.000 N 
ATOM     14  C   UNL     1       4.039   0.608  -2.630  0.00  0.00    +0.000 C 
ATOM     15  C   UNL     1       4.474  -0.825  -3.008  0.00  0.00    +0.000 C 
ATOM     16  C   UNL     1       5.995  -0.936  -3.020  0.00  0.00    +0.000 C 
ATOM     17  O   UNL     1       3.973  -1.800  -2.072  0.00  0.00    +0.000 OA
ENDBRANCH   4  13
ENDBRANCH   1   8
BRANCH   1  18
ATOM     18  C   UNL     1      -2.126   1.961  -6.396  0.00  0.00    +0.000 C 
BRANCH  18  19
ATOM     19  N   UNL     1      -3.300   1.366  -7.058  0.00  0.00    +0.000 N 
ATOM     20  H   UNL     1      -3.964   0.965  -6.401  0.00  0.00    +0.000 HD
BRANCH  19  21
ATOM     21  C   UNL     1      -3.957   2.178  -7.997  0.00  0.00    +0.000 A 
ATOM     22  C   UNL     1      -3.281   3.103  -8.799  0.00  0.00    +0.000 A 
ATOM     23  C   UNL     1      -3.967   3.844  -9.759  0.00  0.00    +0.000 A 
ATOM     24  C   UNL     1      -5.325   3.616  -9.921  0.00  0.00    +0.000 A 
ATOM     25  N   UNL     1      -6.029   2.704  -9.190  0.00  0.00    +0.000 NA
ATOM     26  C   UNL     1      -5.320   2.009  -8.269  0.00  0.00    +0.000 A 
BRANCH  24  27
ATOM     27  C   UNL     1      -6.074   4.381 -10.957  0.00  0.00    +0.000 C 
ATOM     28  N   UNL     1      -7.409   4.093 -11.051  0.00  0.00    +0.000 N 
ATOM     29  O   UNL     1      -5.541   5.210 -11.684  0.00  0.00    +0.000 OA
ATOM     30  H   UNL     1      -7.810   3.384 -10.449  0.00  0.00    +0.000 HD
ATOM     31  H   UNL     1      -7.968   4.554 -11.753  0.00  0.00    +0.000 HD
ENDBRANCH  24  27
ENDBRANCH  19  21
ENDBRANCH  18  19
ENDBRANCH   1  18
TORSDOF 6
