REMARK  Name = 
REMARK  5 active torsions:
REMARK  status: ('A' for Active; 'I' for Inactive)
REMARK    1  A    between atoms: N_1  and  C_2
REMARK    2  A    between atoms: C_2  and  C_3
REMARK    3  A    between atoms: C_6  and  O_7
REMARK    4  A    between atoms: O_7  and  C_8
REMARK    5  A    between atoms: C_8  and  C_9
REMARK                            x       y       z     vdW  Elec       q    Type
REMARK                         _______ _______ _______ _____ _____    ______ ____
ROOT
ATOM      1  C   UNL     1       2.867   1.030  -0.957  0.00  0.00    +0.000 A 
ATOM      2  C   UNL     1       2.360   2.324  -0.768  0.00  0.00    +0.000 A 
ATOM      3  C   UNL     1       2.809   3.386  -1.558  0.00  0.00    +0.000 A 
ATOM      4  C   UNL     1       3.775   3.172  -2.539  0.00  0.00    +0.000 A 
ATOM      5  C   UNL     1       4.249   1.877  -2.764  0.00  0.00    +0.000 A 
ATOM      6  C   UNL     1       3.807   0.817  -1.970  0.00  0.00    +0.000 A 
ENDROOT
BRANCH   1   7
ATOM      7  C   UNL     1       2.418  -0.111  -0.082  0.00  0.00    +0.000 C 
BRANCH   7   8
ATOM      8  N   UNL     1       0.986  -0.347  -0.206  0.00  0.00    +0.000 NA
ATOM      9  H   UNL     1       0.742  -1.193   0.305  0.00  0.00    +0.000 HD
ATOM     10  H   UNL     1       0.768  -0.528  -1.185  0.00  0.00    +0.000 HD
ENDBRANCH   7   8
ENDBRANCH   1   7
BRANCH   4  11
ATOM     11  O   UNL     1       4.191   4.288  -3.219  0.00  0.00    +0.000 OA
BRANCH  11  12
ATOM     12  C   UNL     1       5.472   4.162  -3.840  0.00  0.00    +0.000 C 
BRANCH  12  13
ATOM     13  C   UNL     1       6.084   5.504  -4.140  0.00  0.00    +0.000 A 
ATOM     14  C   UNL     1       5.765   6.665  -3.431  0.00  0.00    +0.000 A 
ATOM     15  C   UNL     1       6.450   7.847  -3.703  0.00  0.00    +0.000 A 
ATOM     16  C   UNL     1       7.439   7.816  -4.670  0.00  0.00    +0.000 A 
ATOM     17 CL   UNL     1       8.353   9.218  -5.041  0.00  0.00    +0.000 Cl
ATOM     18  N   UNL     1       7.784   6.720  -5.375  0.00  0.00    +0.000 NA
ATOM     19  C   UNL     1       7.100   5.591  -5.090  0.00  0.00    +0.000 A 
ENDBRANCH  12  13
ENDBRANCH  11  12
ENDBRANCH   4  11
TORSDOF 5
