REMARK  Name = 
REMARK  4 active torsions:
REMARK  status: ('A' for Active; 'I' for Inactive)
REMARK    1  A    between atoms: C_2  and  C_4
REMARK    2  A    between atoms: C_7  and  O_8
REMARK    3  A    between atoms: O_8  and  C_9
REMARK    4  A    between atoms: C_9  and  C_10
REMARK                            x       y       z     vdW  Elec       q    Type
REMARK                         _______ _______ _______ _____ _____    ______ ____
ROOT
ATOM      1  C   UNL     1       3.139   0.902   0.810  0.00  0.00    +0.000 A 
ATOM      2  C   UNL     1       2.701   1.135   2.117  0.00  0.00    +0.000 A 
ATOM      3  C   UNL     1       3.448   1.974   2.947  0.00  0.00    +0.000 A 
ATOM      4  C   UNL     1       4.590   2.568   2.427  0.00  0.00    +0.000 A 
ATOM      5  N   UNL     1       5.042   2.352   1.174  0.00  0.00    +0.000 NA
ATOM      6  C   UNL     1       4.316   1.510   0.399  0.00  0.00    +0.000 A 
ENDROOT
BRANCH   1   8
ATOM      7  N   UNL     1       1.080  -0.120   0.023  0.00  0.00    +0.000 N 
ATOM      8  C   UNL     1       2.431   0.016  -0.135  0.00  0.00    +0.000 C 
ATOM      9  O   UNL     1       3.021  -0.544  -1.049  0.00  0.00    +0.000 OA
ATOM     10  H   UNL     1       0.597  -0.648  -0.694  0.00  0.00    +0.000 HD
ATOM     11  H   UNL     1       0.530   0.514   0.585  0.00  0.00    +0.000 HD
ENDBRANCH   1   8
BRANCH   4  12
ATOM     12  O   UNL     1       5.304   3.387   3.275  0.00  0.00    +0.000 OA
BRANCH  12  13
ATOM     13  C   UNL     1       6.167   4.277   2.557  0.00  0.00    +0.000 C 
BRANCH  13  14
ATOM     14  C   UNL     1       7.004   5.079   3.528  0.00  0.00    +0.000 A 
ATOM     15  N   UNL     1       6.766   6.424   3.561  0.00  0.00    +0.000 NA
ATOM     16  C   UNL     1       7.508   7.174   4.404  0.00  0.00    +0.000 A 
ATOM     17  C   UNL     1       8.485   6.655   5.235  0.00  0.00    +0.000 A 
ATOM     18  C   UNL     1       8.726   5.286   5.191  0.00  0.00    +0.000 A 
ATOM     19  C   UNL     1       7.984   4.481   4.325  0.00  0.00    +0.000 A 
ATOM     20 CL   UNL     1       8.340   2.795   4.274  0.00  0.00    +0.000 Cl
ENDBRANCH  13  14
ENDBRANCH  12  13
ENDBRANCH   4  12
TORSDOF 4
