REMARK  Name = 
REMARK  4 active torsions:
REMARK  status: ('A' for Active; 'I' for Inactive)
REMARK    1  A    between atoms: C_2  and  C_3
REMARK    2  A    between atoms: C_6  and  C_7
REMARK    3  A    between atoms: C_7  and  N_8
REMARK    4  A    between atoms: C_12  and  C_13
REMARK                            x       y       z     vdW  Elec       q    Type
REMARK                         _______ _______ _______ _____ _____    ______ ____
ROOT
ATOM      1  N   UNL     1       3.377  -2.570  -0.804  0.00  0.00    +0.000 N 
ATOM      2  C   UNL     1       2.818  -3.782  -0.426  0.00  0.00    +0.000 A 
ATOM      3  C   UNL     1       2.036  -3.985   0.698  0.00  0.00    +0.000 A 
ATOM      4  C   UNL     1       1.522  -5.252   0.970  0.00  0.00    +0.000 A 
ATOM      5  C   UNL     1       1.824  -6.266   0.087  0.00  0.00    +0.000 A 
ATOM      6  N   UNL     1       2.573  -6.061  -1.018  0.00  0.00    +0.000 NA
ATOM      7  N   UNL     1       3.060  -4.810  -1.269  0.00  0.00    +0.000 NA
ATOM      8  H   UNL     1       3.951  -2.728  -1.628  0.00  0.00    +0.000 HD
ENDROOT
BRANCH   5   9
ATOM      9  C   UNL     1       1.352  -7.653   0.311  0.00  0.00    +0.000 C 
ATOM     10  N   UNL     1       1.720  -8.568  -0.636  0.00  0.00    +0.000 N 
ATOM     11  O   UNL     1       0.677  -7.968   1.288  0.00  0.00    +0.000 OA
ATOM     12  H   UNL     1       2.281  -8.292  -1.435  0.00  0.00    +0.000 HD
ATOM     13  H   UNL     1       1.439  -9.533  -0.527  0.00  0.00    +0.000 HD
ENDBRANCH   5   9
BRANCH   1  14
ATOM     14  C   UNL     1       3.649  -1.396   0.020  0.00  0.00    +0.000 C 
ATOM     15  C   UNL     1       4.683  -1.326   1.127  0.00  0.00    +0.000 C 
ATOM     16  C   UNL     1       5.058  -0.836  -0.227  0.00  0.00    +0.000 C 
BRANCH  14  20
ATOM     17  C   UNL     1       0.408   1.489   0.439  0.00  0.00    +0.000 A 
ATOM     18  C   UNL     1       0.498   0.409   1.320  0.00  0.00    +0.000 A 
ATOM     19  C   UNL     1       1.535  -0.514   1.182  0.00  0.00    +0.000 A 
ATOM     20  C   UNL     1       2.479  -0.426   0.141  0.00  0.00    +0.000 A 
ATOM     21  C   UNL     1       2.326   0.628  -0.769  0.00  0.00    +0.000 A 
ATOM     22  C   UNL     1       1.332   1.596  -0.605  0.00  0.00    +0.000 A 
ATOM     23 CL   UNL     1       1.332   2.933  -1.696  0.00  0.00    +0.000 Cl
BRANCH  17  25
ATOM     24  N   UNL     1      -1.425   3.259   0.884  0.00  0.00    +0.000 NA
ATOM     25  C   UNL     1      -0.598   2.468   0.660  0.00  0.00    +0.000 C 
ENDBRANCH  17  25
ENDBRANCH  14  20
ENDBRANCH   1  14
TORSDOF 4
