REMARK  Name = 
REMARK  9 active torsions:
REMARK  status: ('A' for Active; 'I' for Inactive)
REMARK    1  A    between atoms: C_1  and  O_2
REMARK    2  A    between atoms: O_2  and  C_3
REMARK    3  A    between atoms: C_6  and  C_7
REMARK    4  A    between atoms: C_7  and  O_8
REMARK    5  A    between atoms: O_8  and  C_9
REMARK    6  A    between atoms: C_9  and  C_10
REMARK    7  A    between atoms: C_13  and  C_14
REMARK    8  A    between atoms: C_14  and  N_15
REMARK    9  A    between atoms: C_16  and  C_18
REMARK                            x       y       z     vdW  Elec       q    Type
REMARK                         _______ _______ _______ _____ _____    ______ ____
ROOT
ATOM      1  C   UNL     1       4.836   7.859   2.399  0.00  0.00    +0.000 A 
ATOM      2  C   UNL     1       4.092   7.345   3.457  0.00  0.00    +0.000 A 
ATOM      3  C   UNL     1       3.642   8.211   4.456  0.00  0.00    +0.000 A 
ATOM      4  C   UNL     1       3.928   9.575   4.372  0.00  0.00    +0.000 A 
ATOM      5  C   UNL     1       4.685   9.995   3.283  0.00  0.00    +0.000 A 
ATOM      6  N   UNL     1       5.145   9.177   2.307  0.00  0.00    +0.000 NA
ENDROOT
BRANCH   1   7
ATOM      7  C   UNL     1       5.385   6.943   1.330  0.00  0.00    +0.000 C 
BRANCH   7   8
ATOM      8  O   UNL     1       4.331   6.211   0.702  0.00  0.00    +0.000 OA
BRANCH   8   9
ATOM      9  C   UNL     1       4.838   5.361  -0.324  0.00  0.00    +0.000 C 
BRANCH   9  13
ATOM     10  C   UNL     1       1.796   3.111  -2.243  0.00  0.00    +0.000 A 
ATOM     11  C   UNL     1       1.446   4.362  -1.768  0.00  0.00    +0.000 A 
ATOM     12  C   UNL     1       2.432   5.119  -1.129  0.00  0.00    +0.000 A 
ATOM     13  C   UNL     1       3.719   4.598  -0.971  0.00  0.00    +0.000 A 
ATOM     14  C   UNL     1       3.961   3.337  -1.501  0.00  0.00    +0.000 A 
ATOM     15  N   UNL     1       3.033   2.589  -2.129  0.00  0.00    +0.000 NA
BRANCH  10  17
ATOM     16  C   UNL     1       1.287   1.115  -3.326  0.00  0.00    +0.000 C 
ATOM     17  O   UNL     1       0.807   2.377  -2.865  0.00  0.00    +0.000 OA
ENDBRANCH  10  17
ENDBRANCH   9  13
ENDBRANCH   8   9
ENDBRANCH   7   8
ENDBRANCH   1   7
BRANCH   4  18
ATOM     18  C   UNL     1       3.474  10.556   5.415  0.00  0.00    +0.000 C 
BRANCH  18  19
ATOM     19  N   UNL     1       4.452  10.709   6.465  0.00  0.00    +0.000 N 
ATOM     20  C   UNL     1       4.238  11.544   7.533  0.00  0.00    +0.000 C 
ATOM     21  O   UNL     1       3.181  12.149   7.688  0.00  0.00    +0.000 OA
ATOM     22  H   UNL     1       5.405  10.436   6.246  0.00  0.00    +0.000 HD
BRANCH  20  23
ATOM     23  C   UNL     1       5.329  11.642   8.512  0.00  0.00    +0.000 A 
ATOM     24  C   UNL     1       5.056  11.967   9.834  0.00  0.00    +0.000 A 
ATOM     25  S   UNL     1       6.447  12.042  10.821  0.00  0.00    +0.000 S 
ATOM     26  C   UNL     1       7.466  11.673   9.509  0.00  0.00    +0.000 A 
ATOM     27  N   UNL     1       8.816  11.612   9.663  0.00  0.00    +0.000 NA
ATOM     28  C   UNL     1       9.465  11.330   8.581  0.00  0.00    +0.000 A 
ATOM     29  N   UNL     1       8.884  11.091   7.363  0.00  0.00    +0.000 N 
ATOM     30  C   UNL     1       7.526  11.121   7.167  0.00  0.00    +0.000 A 
ATOM     31  O   UNL     1       7.034  10.852   6.076  0.00  0.00    +0.000 OA
ATOM     32  C   UNL     1       6.751  11.459   8.344  0.00  0.00    +0.000 A 
ATOM     33  H   UNL     1       9.444  10.846   6.560  0.00  0.00    +0.000 HD
ENDBRANCH  20  23
ENDBRANCH  18  19
ENDBRANCH   4  18
TORSDOF 8
