REMARK  Name = 
REMARK  5 active torsions:
REMARK  status: ('A' for Active; 'I' for Inactive)
REMARK    1  A    between atoms: C_2  and  C_20
REMARK    2  A    between atoms: N_3  and  C_4
REMARK    3  A    between atoms: C_4  and  C_5
REMARK    4  A    between atoms: C_8  and  C_9
REMARK    5  A    between atoms: C_10  and  C_11
REMARK                            x       y       z     vdW  Elec       q    Type
REMARK                         _______ _______ _______ _____ _____    ______ ____
ROOT
ATOM      1  C   UNL     1       2.168  -2.659   0.431  0.00  0.00    +0.000 C 
ENDROOT
BRANCH   1   2
ATOM      2  C   UNL     1       3.180  -3.781   0.312  0.00  0.00    +0.000 A 
ATOM      3  N   UNL     1       4.481  -3.447   0.236  0.00  0.00    +0.000 NA
ATOM      4  C   UNL     1       5.360  -4.464   0.113  0.00  0.00    +0.000 A 
ATOM      5  C   UNL     1       5.013  -5.802   0.082  0.00  0.00    +0.000 A 
ATOM      6  C   UNL     1       3.649  -6.025   0.102  0.00  0.00    +0.000 A 
ATOM      7  N   UNL     1       2.718  -5.047   0.206  0.00  0.00    +0.000 NA
BRANCH   5   8
ATOM      8  C   UNL     1       5.984  -6.897  -0.001  0.00  0.00    +0.000 C 
ATOM      9  C   UNL     1       7.178  -6.838   0.602  0.00  0.00    +0.000 C 
BRANCH   9  10
ATOM     10  C   UNL     1       8.151  -7.961   0.467  0.00  0.00    +0.000 C 
ATOM     11  O   UNL     1       8.283  -8.539  -0.608  0.00  0.00    +0.000 OA
ATOM     12  N   UNL     1       8.898  -8.232   1.585  0.00  0.00    +0.000 N 
ATOM     13  C   UNL     1       8.672  -7.785   2.949  0.00  0.00    +0.000 C 
ATOM     14  C   UNL     1      10.050  -7.889   3.573  0.00  0.00    +0.000 C 
ATOM     15  C   UNL     1      10.635  -9.139   2.917  0.00  0.00    +0.000 C 
ATOM     16  C   UNL     1       9.991  -9.186   1.534  0.00  0.00    +0.000 C 
ENDBRANCH   9  10
ENDBRANCH   5   8
ENDBRANCH   1   2
BRANCH   1  19
ATOM     17  O   UNL     1       0.531  -0.390  -0.152  0.00  0.00    +0.000 OA
ATOM     18  C   UNL     1       0.806  -1.201  -1.027  0.00  0.00    +0.000 C 
ATOM     19  N   UNL     1       1.651  -2.273  -0.863  0.00  0.00    +0.000 N 
ATOM     20  H   UNL     1       1.642  -3.004  -1.558  0.00  0.00    +0.000 HD
BRANCH  18  21
ATOM     21  C   UNL     1       0.121  -1.266  -2.312  0.00  0.00    +0.000 A 
ATOM     22  C   UNL     1      -1.245  -1.090  -2.444  0.00  0.00    +0.000 A 
ATOM     23  S   UNL     1      -1.828  -1.741  -3.921  0.00  0.00    +0.000 S 
ATOM     24  C   UNL     1      -0.250  -2.133  -4.438  0.00  0.00    +0.000 A 
ATOM     25  N   UNL     1      -0.007  -2.851  -5.568  0.00  0.00    +0.000 NA
ATOM     26  C   UNL     1       1.250  -3.008  -5.832  0.00  0.00    +0.000 A 
ATOM     27  N   UNL     1       2.285  -2.470  -5.103  0.00  0.00    +0.000 N 
ATOM     28  C   UNL     1       2.087  -1.720  -3.967  0.00  0.00    +0.000 A 
ATOM     29  O   UNL     1       3.011  -1.169  -3.380  0.00  0.00    +0.000 OA
ATOM     30  C   UNL     1       0.695  -1.639  -3.569  0.00  0.00    +0.000 A 
ATOM     31  H   UNL     1       3.240  -2.553  -5.416  0.00  0.00    +0.000 HD
ENDBRANCH  18  21
ENDBRANCH   1  19
TORSDOF 5
