REMARK  Name = 
REMARK  7 active torsions:
REMARK  status: ('A' for Active; 'I' for Inactive)
REMARK    1  A    between atoms: C_2  and  C_3
REMARK    2  A    between atoms: C_3  and  N_4
REMARK    3  A    between atoms: C_3  and  C_21
REMARK    4  A    between atoms: C_5  and  C_7
REMARK    5  A    between atoms: C_10  and  C_11
REMARK    6  A    between atoms: C_11  and  N_12
REMARK    7  A    between atoms: C_13  and  C_15
REMARK                            x       y       z     vdW  Elec       q    Type
REMARK                         _______ _______ _______ _____ _____    ______ ____
ROOT
ATOM      1  N   UNL     1      13.550 -13.086  -6.651  0.00  0.00    +0.000 N 
ATOM      2  C   UNL     1      12.772 -12.699  -7.713  0.00  0.00    +0.000 C 
ATOM      3  O   UNL     1      13.193 -12.715  -8.866  0.00  0.00    +0.000 OA
ATOM      4  H   UNL     1      13.125 -13.298  -5.752  0.00  0.00    +0.000 HD
ENDROOT
BRANCH   2   5
ATOM      5  C   UNL     1      11.350 -12.266  -7.356  0.00  0.00    +0.000 C 
ATOM      6  C   UNL     1      11.319 -11.073  -6.406  0.00  0.00    +0.000 C 
ATOM      7  C   UNL     1      11.452  -9.841  -7.300  0.00  0.00    +0.000 C 
ATOM      8  C   UNL     1      11.051 -10.281  -8.718  0.00  0.00    +0.000 C 
ATOM      9  C   UNL     1      10.580 -11.736  -8.571  0.00  0.00    +0.000 C 
BRANCH   8  10
ATOM     10  C   UNL     1      10.004  -9.377  -9.367  0.00  0.00    +0.000 C 
BRANCH  10  11
ATOM     11  N   UNL     1      10.482  -8.009  -9.485  0.00  0.00    +0.000 N 
ATOM     12  C   UNL     1       9.599  -6.943  -9.485  0.00  0.00    +0.000 C 
ATOM     13  O   UNL     1       8.385  -7.092  -9.370  0.00  0.00    +0.000 OA
ATOM     14  H   UNL     1      11.408  -7.850  -9.865  0.00  0.00    +0.000 HD
BRANCH  12  15
ATOM     15  C   UNL     1      10.278  -5.561  -9.644  0.00  0.00    +0.000 C 
ATOM     16  C   UNL     1       9.274  -4.420  -9.630  0.00  0.00    +0.000 C 
ATOM     17  C   UNL     1       9.048  -4.169  -8.151  0.00  0.00    +0.000 C 
ATOM     18  C   UNL     1      10.371  -4.534  -7.498  0.00  0.00    +0.000 C 
ATOM     19  N   UNL     1      11.167  -5.251  -8.502  0.00  0.00    +0.000 NA
ATOM     20  H   UNL     1      11.572  -6.097  -8.104  0.00  0.00    +0.000 HD
ENDBRANCH  12  15
ENDBRANCH  10  11
ENDBRANCH   8  10
ENDBRANCH   2   5
BRANCH   1  21
ATOM     21  C   UNL     1      14.903 -13.578  -6.869  0.00  0.00    +0.000 C 
BRANCH  21  22
ATOM     22  C   UNL     1      14.830 -15.074  -7.073  0.00  0.00    +0.000 A 
ATOM     23  C   UNL     1      15.250 -15.724  -8.223  0.00  0.00    +0.000 A 
ATOM     24  S   UNL     1      15.012 -17.417  -8.160  0.00  0.00    +0.000 S 
ATOM     25  C   UNL     1      14.349 -17.331  -6.594  0.00  0.00    +0.000 A 
ATOM     26  N   UNL     1      13.919 -18.439  -5.934  0.00  0.00    +0.000 NA
ATOM     27  C   UNL     1      13.489 -18.212  -4.736  0.00  0.00    +0.000 A 
ATOM     28  N   UNL     1      13.438 -16.976  -4.139  0.00  0.00    +0.000 N 
ATOM     29  C   UNL     1      13.764 -15.819  -4.803  0.00  0.00    +0.000 A 
ATOM     30  O   UNL     1      13.552 -14.706  -4.331  0.00  0.00    +0.000 OA
ATOM     31  C   UNL     1      14.314 -16.033  -6.128  0.00  0.00    +0.000 A 
ATOM     32  H   UNL     1      13.065 -16.869  -3.207  0.00  0.00    +0.000 HD
ENDBRANCH  21  22
BRANCH  21  34
ATOM     33  N   UNL     1      16.568 -12.994  -4.904  0.00  0.00    +0.000 NA
ATOM     34  C   UNL     1      15.830 -13.244  -5.760  0.00  0.00    +0.000 C 
ENDBRANCH  21  34
ENDBRANCH   1  21
TORSDOF 7
