REMARK  Name = 
REMARK  8 active torsions:
REMARK  status: ('A' for Active; 'I' for Inactive)
REMARK    1  A    between atoms: C_1  and  C_2
REMARK    2  A    between atoms: C_2  and  O_3
REMARK    3  A    between atoms: C_5  and  O_6
REMARK    4  A    between atoms: O_6  and  C_7
REMARK    5  A    between atoms: C_9  and  C_10
REMARK    6  A    between atoms: C_10  and  C_11
REMARK    7  A    between atoms: C_11  and  N_12
REMARK    8  A    between atoms: C_16  and  C_17
REMARK                            x       y       z     vdW  Elec       q    Type
REMARK                         _______ _______ _______ _____ _____    ______ ____
ROOT
ATOM      1  C   UNL     1       6.460  -0.891   0.574  0.00  0.00    +0.000 A 
ATOM      2  C   UNL     1       7.759  -0.493   0.905  0.00  0.00    +0.000 A 
ATOM      3  C   UNL     1       8.763  -1.442   1.166  0.00  0.00    +0.000 A 
ATOM      4  C   UNL     1       8.426  -2.804   1.100  0.00  0.00    +0.000 A 
ATOM      5  C   UNL     1       7.139  -3.206   0.742  0.00  0.00    +0.000 A 
ATOM      6  C   UNL     1       6.169  -2.247   0.467  0.00  0.00    +0.000 A 
ATOM      7  F   UNL     1       4.945  -2.664   0.104  0.00  0.00    +0.000 F 
ENDROOT
BRANCH   1   8
ATOM      8  O   UNL     1       5.437   0.000   0.338  0.00  0.00    +0.000 OA
BRANCH   8  12
ATOM      9  C   UNL     1       3.507   2.636   3.443  0.00  0.00    +0.000 C 
ATOM     10  C   UNL     1       3.997   1.626   2.419  0.00  0.00    +0.000 C 
ATOM     11  C   UNL     1       5.525   1.376   2.490  0.00  0.00    +0.000 C 
ATOM     12  C   UNL     1       5.536   1.313   0.940  0.00  0.00    +0.000 C 
ATOM     13  C   UNL     1       4.232   2.148   0.975  0.00  0.00    +0.000 C 
BRANCH  10  14
ATOM     14  O   UNL     1       3.160   0.452   2.489  0.00  0.00    +0.000 OA
ATOM     15  H   UNL     1       3.389   0.014   3.327  0.00  0.00    +0.000 HD
ENDBRANCH  10  14
ENDBRANCH   8  12
ENDBRANCH   1   8
BRANCH   3  16
ATOM     16  C   UNL     1      10.162  -0.937   1.477  0.00  0.00    +0.000 C 
BRANCH  16  17
ATOM     17  C   UNL     1      11.178  -2.047   1.745  0.00  0.00    +0.000 C 
BRANCH  17  18
ATOM     18  N   UNL     1      12.524  -1.536   2.016  0.00  0.00    +0.000 N 
ATOM     19  C   UNL     1      13.419  -2.599   2.271  0.00  0.00    +0.000 A 
ATOM     20  C   UNL     1      14.750  -2.313   2.546  0.00  0.00    +0.000 A 
ATOM     21  C   UNL     1      15.635  -3.364   2.810  0.00  0.00    +0.000 A 
ATOM     22  C   UNL     1      15.174  -4.682   2.793  0.00  0.00    +0.000 A 
ATOM     23  C   UNL     1      13.842  -4.875   2.494  0.00  0.00    +0.000 A 
ATOM     24  N   UNL     1      12.971  -3.872   2.232  0.00  0.00    +0.000 NA
ATOM     25  H   UNL     1      12.548  -0.905   2.812  0.00  0.00    +0.000 HD
BRANCH  22  26
ATOM     26  C   UNL     1      16.102  -5.789   3.097  0.00  0.00    +0.000 C 
ATOM     27  N   UNL     1      15.639  -7.079   3.104  0.00  0.00    +0.000 N 
ATOM     28  O   UNL     1      17.282  -5.571   3.351  0.00  0.00    +0.000 OA
ATOM     29  H   UNL     1      14.693  -7.370   2.917  0.00  0.00    +0.000 HD
ATOM     30  H   UNL     1      16.313  -7.797   3.326  0.00  0.00    +0.000 HD
ENDBRANCH  22  26
ENDBRANCH  17  18
ENDBRANCH  16  17
ENDBRANCH   3  16
TORSDOF 7
