REMARK  Name = 
REMARK  6 active torsions:
REMARK  status: ('A' for Active; 'I' for Inactive)
REMARK    1  A    between atoms: C_2  and  C_4
REMARK    2  A    between atoms: N_8  and  C_9
REMARK    3  A    between atoms: C_9  and  C_10
REMARK    4  A    between atoms: C_10  and  C_13
REMARK    5  A    between atoms: C_17  and  N_18
REMARK    6  A    between atoms: C_22  and  O_23
REMARK                            x       y       z     vdW  Elec       q    Type
REMARK                         _______ _______ _______ _____ _____    ______ ____
ROOT
ATOM      1  C   UNL     1       6.063  -5.519  -4.501  0.00  0.00    +0.000 C 
ATOM      2  F   UNL     1       5.874  -6.525  -3.593  0.00  0.00    +0.000 F 
ATOM      3  F   UNL     1       5.236  -4.509  -4.092  0.00  0.00    +0.000 F 
ENDROOT
BRANCH   1   4
ATOM      4  C   UNL     1       5.739  -5.964  -5.915  0.00  0.00    +0.000 A 
ATOM      5  C   UNL     1       5.962  -7.280  -6.324  0.00  0.00    +0.000 A 
ATOM      6  C   UNL     1       5.624  -7.670  -7.616  0.00  0.00    +0.000 A 
ATOM      7  C   UNL     1       5.049  -6.751  -8.502  0.00  0.00    +0.000 A 
ATOM      8  C   UNL     1       4.796  -5.421  -8.134  0.00  0.00    +0.000 A 
ATOM      9  C   UNL     1       5.181  -5.051  -6.834  0.00  0.00    +0.000 A 
BRANCH   8  10
ATOM     10  N   UNL     1       4.154  -4.542  -8.985  0.00  0.00    +0.000 N 
ATOM     11  C   UNL     1       3.342  -3.427  -8.484  0.00  0.00    +0.000 C 
ATOM     12  C   UNL     1       1.957  -3.479  -9.134  0.00  0.00    +0.000 C 
ATOM     13  C   UNL     1       2.040  -3.548 -10.659  0.00  0.00    +0.000 C 
ATOM     14  C   UNL     1       2.970  -4.669 -11.131  0.00  0.00    +0.000 C 
ATOM     15  C   UNL     1       4.346  -4.568 -10.447  0.00  0.00    +0.000 C 
BRANCH  14  16
ATOM     16  O   UNL     1       2.375  -5.934 -10.820  0.00  0.00    +0.000 OA
ATOM     17  H   UNL     1       2.538  -6.069  -9.865  0.00  0.00    +0.000 HD
ENDBRANCH  14  16
ENDBRANCH   8  10
ENDBRANCH   1   4
BRANCH   1  18
ATOM     18  C   UNL     1       7.532  -5.037  -4.385  0.00  0.00    +0.000 C 
BRANCH  18  23
ATOM     19  C   UNL     1      11.591  -3.094  -1.962  0.00  0.00    +0.000 A 
ATOM     20  C   UNL     1      11.214  -2.982  -3.295  0.00  0.00    +0.000 A 
ATOM     21  C   UNL     1       9.971  -3.475  -3.693  0.00  0.00    +0.000 A 
ATOM     22  C   UNL     1       9.134  -4.082  -2.760  0.00  0.00    +0.000 A 
ATOM     23  N   UNL     1       7.851  -4.490  -3.057  0.00  0.00    +0.000 N 
ATOM     24  N   UNL     1       9.511  -4.234  -1.474  0.00  0.00    +0.000 NA
ATOM     25  C   UNL     1      10.725  -3.749  -1.102  0.00  0.00    +0.000 A 
ATOM     26  H   UNL     1       7.476  -5.007  -2.264  0.00  0.00    +0.000 HD
BRANCH  19  28
ATOM     27  N   UNL     1      13.355  -1.437  -2.086  0.00  0.00    +0.000 N 
ATOM     28  C   UNL     1      12.855  -2.536  -1.442  0.00  0.00    +0.000 C 
ATOM     29  O   UNL     1      13.407  -3.004  -0.457  0.00  0.00    +0.000 OA
ATOM     30  H   UNL     1      14.152  -0.987  -1.652  0.00  0.00    +0.000 HD
ATOM     31  H   UNL     1      12.796  -0.877  -2.715  0.00  0.00    +0.000 HD
ENDBRANCH  19  28
ENDBRANCH  18  23
ENDBRANCH   1  18
TORSDOF 6
