REMARK  Name = 
REMARK  10 active torsions:
REMARK  status: ('A' for Active; 'I' for Inactive)
REMARK    1  A    between atoms: C_1  and  C_2
REMARK    2  A    between atoms: C_2  and  C_3
REMARK    3  A    between atoms: C_2  and  C_4
REMARK    4  A    between atoms: C_2  and  C_5
REMARK    5  A    between atoms: C_9  and  C_10
REMARK    6  A    between atoms: C_10  and  O_12
REMARK    7  A    between atoms: N_16  and  C_17
REMARK    8  A    between atoms: C_17  and  C_18
REMARK    9  A    between atoms: C_21  and  C_22
REMARK   10  A    between atoms: C_22  and  N_23
REMARK                            x       y       z     vdW  Elec       q    Type
REMARK                         _______ _______ _______ _____ _____    ______ ____
ROOT
ATOM      1  C   UNL     1       2.936  -0.968  -1.124  0.00  0.00    +0.000 A 
ATOM      2  N   UNL     1       3.544  -0.561  -2.237  0.00  0.00    +0.000 NA
ATOM      3  C   UNL     1       3.668  -1.657  -3.042  0.00  0.00    +0.000 A 
ATOM      4  C   UNL     1       4.212  -1.817  -4.328  0.00  0.00    +0.000 A 
ATOM      5  C   UNL     1       4.181  -3.082  -4.903  0.00  0.00    +0.000 A 
ATOM      6  C   UNL     1       3.613  -4.137  -4.173  0.00  0.00    +0.000 A 
ATOM      7  N   UNL     1       3.057  -4.021  -2.921  0.00  0.00    +0.000 NA
ATOM      8  C   UNL     1       3.130  -2.780  -2.420  0.00  0.00    +0.000 A 
ATOM      9  N   UNL     1       2.765  -2.348  -1.163  0.00  0.00    +0.000 N 
ENDROOT
BRANCH   1  11
ATOM     10  C   UNL     1       2.838   1.409  -0.344  0.00  0.00    +0.000 C 
ATOM     11  C   UNL     1       2.513  -0.055   0.024  0.00  0.00    +0.000 C 
ATOM     12  C   UNL     1       3.290  -0.384   1.307  0.00  0.00    +0.000 C 
ATOM     13  C   UNL     1       1.011  -0.165   0.347  0.00  0.00    +0.000 C 
ENDBRANCH   1  11
BRANCH   5  14
ATOM     14  C   UNL     1       4.772  -3.324  -6.250  0.00  0.00    +0.000 C 
ATOM     15  O   UNL     1       5.259  -4.376  -6.564  0.00  0.00    +0.000 OA
BRANCH  14  16
ATOM     16  O   UNL     1       4.710  -2.270  -7.109  0.00  0.00    +0.000 OA
ATOM     17  H   UNL     1       4.248  -1.455  -6.844  0.00  0.00    +0.000 HD
ENDBRANCH  14  16
ENDBRANCH   5  14
BRANCH   9  18
ATOM     18  C   UNL     1       2.303  -3.216  -0.090  0.00  0.00    +0.000 C 
BRANCH  18  19
ATOM     19  C   UNL     1       3.366  -3.715   0.841  0.00  0.00    +0.000 A 
ATOM     20  C   UNL     1       3.090  -3.970   2.195  0.00  0.00    +0.000 A 
ATOM     21  C   UNL     1       4.066  -4.566   2.986  0.00  0.00    +0.000 A 
ATOM     22  C   UNL     1       5.300  -4.879   2.421  0.00  0.00    +0.000 A 
ATOM     23  N   UNL     1       5.595  -4.604   1.126  0.00  0.00    +0.000 NA
ATOM     24  C   UNL     1       4.626  -4.042   0.376  0.00  0.00    +0.000 A 
BRANCH  22  25
ATOM     25  C   UNL     1       6.360  -5.565   3.251  0.00  0.00    +0.000 C 
BRANCH  25  26
ATOM     26  N   UNL     1       6.752  -4.789   4.434  0.00  0.00    +0.000 NA
ATOM     27  H   UNL     1       6.959  -3.839   4.128  0.00  0.00    +0.000 HD
ATOM     28  H   UNL     1       7.619  -5.172   4.809  0.00  0.00    +0.000 HD
ENDBRANCH  25  26
ENDBRANCH  22  25
ENDBRANCH  18  19
ENDBRANCH   9  18
TORSDOF 7
