REMARK  Name = 
REMARK  7 active torsions:
REMARK  status: ('A' for Active; 'I' for Inactive)
REMARK    1  A    between atoms: N_1  and  C_2
REMARK    2  A    between atoms: C_2  and  C_3
REMARK    3  A    between atoms: C_2  and  C_10
REMARK    4  A    between atoms: C_3  and  N_4
REMARK    5  A    between atoms: C_13  and  C_14
REMARK    6  A    between atoms: C_14  and  N_15
REMARK    7  A    between atoms: C_16  and  C_18
REMARK                            x       y       z     vdW  Elec       q    Type
REMARK                         _______ _______ _______ _____ _____    ______ ____
ROOT
ATOM      1  C   UNL     1       3.029  -0.183  -1.443  0.00  0.00    +0.000 A 
ATOM      2  C   UNL     1       3.445   0.845  -2.304  0.00  0.00    +0.000 A 
ATOM      3  C   UNL     1       3.825   0.564  -3.618  0.00  0.00    +0.000 A 
ATOM      4  C   UNL     1       3.756  -0.744  -4.077  0.00  0.00    +0.000 A 
ATOM      5  N   UNL     1       3.346  -1.758  -3.282  0.00  0.00    +0.000 NA
ATOM      6  C   UNL     1       2.984  -1.455  -2.013  0.00  0.00    +0.000 A 
ENDROOT
BRANCH   1   7
ATOM      7  C   UNL     1       2.624   0.060   0.018  0.00  0.00    +0.000 C 
BRANCH   7   8
ATOM      8  N   UNL     1       3.193   1.319   0.526  0.00  0.00    +0.000 NA
ATOM      9  H   UNL     1       2.764   2.107   0.048  0.00  0.00    +0.000 HD
ATOM     10  H   UNL     1       4.193   1.344   0.339  0.00  0.00    +0.000 HD
ENDBRANCH   7   8
BRANCH   7  11
ATOM     11  C   UNL     1       3.011  -1.163   0.939  0.00  0.00    +0.000 C 
BRANCH  11  12
ATOM     12  N   UNL     1       2.735  -1.160   2.399  0.00  0.00    +0.000 NA
ATOM     13  C   UNL     1       3.434  -0.102   3.159  0.00  0.00    +0.000 C 
ATOM     14  C   UNL     1       4.961  -0.258   3.140  0.00  0.00    +0.000 C 
ATOM     15  O   UNL     1       5.350  -1.512   3.720  0.00  0.00    +0.000 OA
ATOM     16  C   UNL     1       4.713  -2.616   3.063  0.00  0.00    +0.000 C 
ATOM     17  C   UNL     1       3.179  -2.453   2.991  0.00  0.00    +0.000 C 
ENDBRANCH  11  12
ENDBRANCH   7  11
ENDBRANCH   1   7
BRANCH   4  18
ATOM     18  C   UNL     1       4.230  -1.100  -5.467  0.00  0.00    +0.000 C 
BRANCH  18  19
ATOM     19  N   UNL     1       5.625  -1.472  -5.435  0.00  0.00    +0.000 N 
ATOM     20  C   UNL     1       6.483  -1.227  -6.471  0.00  0.00    +0.000 C 
ATOM     21  O   UNL     1       6.134  -0.632  -7.485  0.00  0.00    +0.000 OA
ATOM     22  H   UNL     1       5.868  -2.153  -4.723  0.00  0.00    +0.000 HD
BRANCH  20  23
ATOM     23  C   UNL     1       7.878  -1.639  -6.263  0.00  0.00    +0.000 A 
ATOM     24  C   UNL     1       8.893  -1.036  -6.993  0.00  0.00    +0.000 A 
ATOM     25  S   UNL     1      10.455  -1.570  -6.561  0.00  0.00    +0.000 S 
ATOM     26  C   UNL     1       9.827  -2.667  -5.421  0.00  0.00    +0.000 A 
ATOM     27  N   UNL     1      10.650  -3.465  -4.688  0.00  0.00    +0.000 NA
ATOM     28  C   UNL     1      10.036  -4.267  -3.884  0.00  0.00    +0.000 A 
ATOM     29  N   UNL     1       8.677  -4.346  -3.746  0.00  0.00    +0.000 N 
ATOM     30  C   UNL     1       7.809  -3.546  -4.447  0.00  0.00    +0.000 A 
ATOM     31  O   UNL     1       6.597  -3.620  -4.275  0.00  0.00    +0.000 OA
ATOM     32  C   UNL     1       8.445  -2.622  -5.367  0.00  0.00    +0.000 A 
ATOM     33  H   UNL     1       8.258  -4.994  -3.096  0.00  0.00    +0.000 HD
ENDBRANCH  20  23
ENDBRANCH  18  19
ENDBRANCH   4  18
TORSDOF 7
