REMARK  Name = 
REMARK  10 active torsions:
REMARK  status: ('A' for Active; 'I' for Inactive)
REMARK    1  A    between atoms: C_1  and  C_2
REMARK    2  A    between atoms: C_2  and  N_3
REMARK    3  A    between atoms: C_2  and  C_20
REMARK    4  A    between atoms: N_3  and  C_4
REMARK    5  A    between atoms: C_4  and  C_5
REMARK    6  A    between atoms: C_8  and  C_9
REMARK    7  A    between atoms: C_9  and  O_10
REMARK    8  A    between atoms: C_9  and  C_11
REMARK    9  A    between atoms: C_11  and  N_12
REMARK   10  A    between atoms: N_12  and  C_13
REMARK                            x       y       z     vdW  Elec       q    Type
REMARK                         _______ _______ _______ _____ _____    ______ ____
ROOT
ATOM      1  C   UNL     1       6.252  -8.743   1.187  0.00  0.00    +0.000 A 
ATOM      2  C   UNL     1       6.007  -9.293   2.451  0.00  0.00    +0.000 A 
ATOM      3  C   UNL     1       5.241  -8.598   3.392  0.00  0.00    +0.000 A 
ATOM      4  C   UNL     1       4.729  -7.320   3.108  0.00  0.00    +0.000 A 
ATOM      5  C   UNL     1       4.951  -6.793   1.829  0.00  0.00    +0.000 A 
ATOM      6  C   UNL     1       5.701  -7.493   0.881  0.00  0.00    +0.000 A 
ENDROOT
BRANCH   1   7
ATOM      7  C   UNL     1       7.118  -9.453   0.174  0.00  0.00    +0.000 C 
BRANCH   7   8
ATOM      8  N   UNL     1       6.547 -10.736  -0.230  0.00  0.00    +0.000 NA
ATOM      9  H   UNL     1       6.450 -11.317   0.601  0.00  0.00    +0.000 HD
BRANCH   8  11
ATOM     10  C   UNL     1       7.546 -10.708  -2.520  0.00  0.00    +0.000 C 
ATOM     11  C   UNL     1       7.402 -11.453  -1.188  0.00  0.00    +0.000 C 
BRANCH  11  12
ATOM     12  C   UNL     1       6.800 -12.826  -1.428  0.00  0.00    +0.000 A 
ATOM     13  C   UNL     1       5.449 -13.138  -1.402  0.00  0.00    +0.000 A 
ATOM     14  S   UNL     1       5.127 -14.776  -1.763  0.00  0.00    +0.000 S 
ATOM     15  C   UNL     1       6.779 -15.111  -2.000  0.00  0.00    +0.000 A 
ATOM     16  N   UNL     1       7.205 -16.350  -2.371  0.00  0.00    +0.000 NA
ATOM     17  C   UNL     1       8.484 -16.439  -2.536  0.00  0.00    +0.000 A 
ATOM     18  N   UNL     1       9.377 -15.412  -2.354  0.00  0.00    +0.000 N 
ATOM     19  C   UNL     1       8.993 -14.149  -1.976  0.00  0.00    +0.000 A 
ATOM     20  O   UNL     1       9.815 -13.248  -1.824  0.00  0.00    +0.000 OA
ATOM     21  C   UNL     1       7.564 -13.994  -1.786  0.00  0.00    +0.000 A 
ATOM     22  H   UNL     1      10.363 -15.555  -2.502  0.00  0.00    +0.000 HD
ENDBRANCH  11  12
ENDBRANCH   8  11
ENDBRANCH   7   8
ENDBRANCH   1   7
BRANCH   4  23
ATOM     23  C   UNL     1       3.952  -6.552   4.167  0.00  0.00    +0.000 C 
BRANCH  23  24
ATOM     24  O   UNL     1       3.515  -5.293   3.640  0.00  0.00    +0.000 OA
ATOM     25  H   UNL     1       4.229  -4.658   3.811  0.00  0.00    +0.000 HD
ENDBRANCH  23  24
BRANCH  23  26
ATOM     26  C   UNL     1       4.791  -6.333   5.462  0.00  0.00    +0.000 C 
BRANCH  26  27
ATOM     27  N   UNL     1       4.051  -5.630   6.520  0.00  0.00    +0.000 NA
ATOM     28  H   UNL     1       3.188  -6.127   6.738  0.00  0.00    +0.000 HD
BRANCH  27  29
ATOM     29  C   UNL     1       4.804  -5.513   7.742  0.00  0.00    +0.000 C 
ATOM     30  C   UNL     1       5.243  -6.815   8.397  0.00  0.00    +0.000 C 
ATOM     31  C   UNL     1       5.453  -6.396   9.840  0.00  0.00    +0.000 C 
ATOM     32  C   UNL     1       4.463  -5.256  10.043  0.00  0.00    +0.000 C 
ATOM     33  N   UNL     1       3.881  -4.988   8.726  0.00  0.00    +0.000 NA
ATOM     34  H   UNL     1       3.748  -3.991   8.573  0.00  0.00    +0.000 HD
ENDBRANCH  27  29
ENDBRANCH  26  27
ENDBRANCH  23  26
ENDBRANCH   4  23
TORSDOF 9
