REMARK  Name = 
REMARK  8 active torsions:
REMARK  status: ('A' for Active; 'I' for Inactive)
REMARK    1  A    between atoms: N_1  and  C_2
REMARK    2  A    between atoms: C_2  and  C_3
REMARK    3  A    between atoms: C_7  and  O_8
REMARK    4  A    between atoms: O_8  and  C_9
REMARK    5  A    between atoms: C_9  and  C_10
REMARK    6  A    between atoms: C_10  and  O_11
REMARK    7  A    between atoms: C_10  and  C_12
REMARK    8  A    between atoms: C_16  and  C_17
REMARK                            x       y       z     vdW  Elec       q    Type
REMARK                         _______ _______ _______ _____ _____    ______ ____
ROOT
ATOM      1  C   UNL     1       0.947  -7.003   0.231  0.00  0.00    +0.000 C 
ENDROOT
BRANCH   1   2
ATOM      2  C   UNL     1       1.415  -8.373   0.700  0.00  0.00    +0.000 A 
ATOM      3  N   UNL     1       1.457  -8.621   2.021  0.00  0.00    +0.000 NA
ATOM      4  C   UNL     1       1.871  -9.844   2.392  0.00  0.00    +0.000 A 
ATOM      5  C   UNL     1       2.259 -10.819   1.501  0.00  0.00    +0.000 A 
ATOM      6  C   UNL     1       2.207 -10.487   0.160  0.00  0.00    +0.000 A 
ATOM      7  N   UNL     1       1.791  -9.256  -0.253  0.00  0.00    +0.000 NA
BRANCH   6   8
ATOM      8  C   UNL     1       2.624 -11.510  -0.888  0.00  0.00    +0.000 C 
ATOM      9  F   UNL     1       3.005 -12.706  -0.348  0.00  0.00    +0.000 F 
ATOM     10  F   UNL     1       1.625 -11.808  -1.766  0.00  0.00    +0.000 F 
ATOM     11  F   UNL     1       3.680 -11.096  -1.641  0.00  0.00    +0.000 F 
ENDBRANCH   6   8
ENDBRANCH   1   2
BRANCH   1  12
ATOM     12  O   UNL     1       0.337  -7.093  -1.073  0.00  0.00    +0.000 OA
ATOM     13  H   UNL     1       0.787  -7.833  -1.524  0.00  0.00    +0.000 HD
ENDBRANCH   1  12
BRANCH   1  14
ATOM     14  C   UNL     1       2.155  -6.061   0.164  0.00  0.00    +0.000 C 
BRANCH  14  15
ATOM     15  O   UNL     1       1.716  -4.744  -0.192  0.00  0.00    +0.000 OA
BRANCH  15  20
ATOM     16  C   UNL     1       3.074  -1.406  -0.715  0.00  0.00    +0.000 A 
ATOM     17  C   UNL     1       4.440  -1.611  -0.484  0.00  0.00    +0.000 A 
ATOM     18  C   UNL     1       4.925  -2.883  -0.177  0.00  0.00    +0.000 A 
ATOM     19  C   UNL     1       4.047  -3.964  -0.077  0.00  0.00    +0.000 A 
ATOM     20  C   UNL     1       2.681  -3.779  -0.291  0.00  0.00    +0.000 A 
ATOM     21  C   UNL     1       2.204  -2.505  -0.622  0.00  0.00    +0.000 A 
BRANCH  16  22
ATOM     22  C   UNL     1       2.545  -0.025  -1.004  0.00  0.00    +0.000 C 
BRANCH  22  23
ATOM     23  N   UNL     1       3.171   0.564  -2.183  0.00  0.00    +0.000 NA
ATOM     24  H   UNL     1       2.725   1.456  -2.384  0.00  0.00    +0.000 HD
ATOM     25  H   UNL     1       2.984  -0.039  -2.984  0.00  0.00    +0.000 HD
ENDBRANCH  22  23
ENDBRANCH  16  22
ENDBRANCH  15  20
ENDBRANCH  14  15
ENDBRANCH   1  14
TORSDOF 8
