REMARK  Name = 
REMARK  6 active torsions:
REMARK  status: ('A' for Active; 'I' for Inactive)
REMARK    1  A    between atoms: C_1  and  C_2
REMARK    2  A    between atoms: C_3  and  C_4
REMARK    3  A    between atoms: C_7  and  C_8
REMARK    4  A    between atoms: C_15  and  C_16
REMARK    5  A    between atoms: C_15  and  C_17
REMARK    6  A    between atoms: C_20  and  C_21
REMARK                            x       y       z     vdW  Elec       q    Type
REMARK                         _______ _______ _______ _____ _____    ______ ____
ROOT
ATOM      1  C   UNL     1       2.801   0.159  -1.454  0.00  0.00    +0.000 C 
ATOM      2  C   UNL     1       2.574   0.008   0.058  0.00  0.00    +0.000 C 
ATOM      3  C   UNL     1       3.215  -1.286   0.681  0.00  0.00    +0.000 C 
ATOM      4  C   UNL     1       4.391  -0.817   1.562  0.00  0.00    +0.000 C 
ATOM      5  C   UNL     1       4.551   0.667   1.281  0.00  0.00    +0.000 C 
ATOM      6  C   UNL     1       3.137   1.183   0.927  0.00  0.00    +0.000 C 
ATOM      7  C   UNL     1       2.307   1.307   2.232  0.00  0.00    +0.000 C 
ENDROOT
BRANCH   3   8
ATOM      8  C   UNL     1       3.559  -2.394  -0.297  0.00  0.00    +0.000 A 
ATOM      9  C   UNL     1       4.797  -2.442  -0.955  0.00  0.00    +0.000 A 
ATOM     10  C   UNL     1       5.057  -3.409  -1.923  0.00  0.00    +0.000 A 
ATOM     11  C   UNL     1       4.084  -4.358  -2.253  0.00  0.00    +0.000 A 
ATOM     12  C   UNL     1       2.853  -4.339  -1.590  0.00  0.00    +0.000 A 
ATOM     13  C   UNL     1       2.592  -3.361  -0.620  0.00  0.00    +0.000 A 
BRANCH  11  14
ATOM     14  C   UNL     1       4.389  -5.308  -3.354  0.00  0.00    +0.000 C 
ATOM     15  N   UNL     1       3.741  -6.510  -3.357  0.00  0.00    +0.000 N 
ATOM     16  O   UNL     1       5.212  -5.040  -4.221  0.00  0.00    +0.000 OA
ATOM     17  H   UNL     1       3.204  -6.854  -2.575  0.00  0.00    +0.000 HD
ATOM     18  H   UNL     1       4.033  -7.171  -4.066  0.00  0.00    +0.000 HD
ENDBRANCH  11  14
ENDBRANCH   3   8
BRANCH   6  19
ATOM     19  C   UNL     1       3.192   2.562   0.262  0.00  0.00    +0.000 A 
ATOM     20  C   UNL     1       2.031   3.231  -0.130  0.00  0.00    +0.000 A 
ATOM     21  C   UNL     1       2.129   4.519  -0.671  0.00  0.00    +0.000 A 
ATOM     22  C   UNL     1       3.379   5.118  -0.829  0.00  0.00    +0.000 A 
ATOM     23  C   UNL     1       4.481   4.381  -0.434  0.00  0.00    +0.000 A 
ATOM     24  N   UNL     1       4.411   3.135   0.106  0.00  0.00    +0.000 NA
BRANCH  22  25
ATOM     25  C   UNL     1       3.462   6.489  -1.390  0.00  0.00    +0.000 C 
ATOM     26  N   UNL     1       4.689   7.070  -1.558  0.00  0.00    +0.000 N 
ATOM     27  O   UNL     1       2.450   7.101  -1.703  0.00  0.00    +0.000 OA
ATOM     28  H   UNL     1       5.581   6.651  -1.349  0.00  0.00    +0.000 HD
ATOM     29  H   UNL     1       4.693   8.004  -1.948  0.00  0.00    +0.000 HD
ENDBRANCH  22  25
ENDBRANCH   6  19
TORSDOF 4
