REMARK  Name = 
REMARK  9 active torsions:
REMARK  status: ('A' for Active; 'I' for Inactive)
REMARK    1  A    between atoms: C_2  and  C_17
REMARK    2  A    between atoms: N_3  and  C_4
REMARK    3  A    between atoms: C_4  and  C_5
REMARK    4  A    between atoms: N_8  and  C_9
REMARK    5  A    between atoms: C_9  and  C_10
REMARK    6  A    between atoms: C_10  and  C_11
REMARK    7  A    between atoms: C_11  and  O_12
REMARK    8  A    between atoms: C_14  and  C_15
REMARK    9  A    between atoms: C_15  and  O_16
REMARK                            x       y       z     vdW  Elec       q    Type
REMARK                         _______ _______ _______ _____ _____    ______ ____
ROOT
ATOM      1  O   UNL     1       0.872   1.256   0.712  0.00  0.00    +0.000 OA
ATOM      2  C   UNL     1       2.067   0.981   0.640  0.00  0.00    +0.000 C 
ATOM      3  N   UNL     1       2.835   1.288  -0.449  0.00  0.00    +0.000 N 
ATOM      4  H   UNL     1       3.748   0.854  -0.528  0.00  0.00    +0.000 HD
ENDROOT
BRANCH   2   5
ATOM      5  C   UNL     1       2.789   0.360   1.758  0.00  0.00    +0.000 A 
ATOM      6  C   UNL     1       2.336   0.512   3.060  0.00  0.00    +0.000 A 
ATOM      7  S   UNL     1       3.335  -0.248   4.218  0.00  0.00    +0.000 S 
ATOM      8  C   UNL     1       4.385  -0.835   3.014  0.00  0.00    +0.000 A 
ATOM      9  N   UNL     1       5.471  -1.592   3.332  0.00  0.00    +0.000 NA
ATOM     10  C   UNL     1       6.157  -1.992   2.318  0.00  0.00    +0.000 A 
ATOM     11  N   UNL     1       5.870  -1.703   1.014  0.00  0.00    +0.000 N 
ATOM     12  C   UNL     1       4.819  -0.900   0.646  0.00  0.00    +0.000 A 
ATOM     13  O   UNL     1       4.641  -0.580  -0.524  0.00  0.00    +0.000 OA
ATOM     14  C   UNL     1       3.991  -0.441   1.749  0.00  0.00    +0.000 A 
ATOM     15  H   UNL     1       6.461  -2.025   0.262  0.00  0.00    +0.000 HD
ENDBRANCH   2   5
BRANCH   3  16
ATOM     16  C   UNL     1       2.332   1.902  -1.656  0.00  0.00    +0.000 C 
BRANCH  16  17
ATOM     17  C   UNL     1       3.429   2.775  -2.298  0.00  0.00    +0.000 C 
ATOM     18  C   UNL     1       3.857   3.916  -1.364  0.00  0.00    +0.000 C 
ATOM     19  C   UNL     1       2.797   5.008  -1.261  0.00  0.00    +0.000 C 
ATOM     20  N   UNL     1       2.440   5.536  -2.588  0.00  0.00    +0.000 NA
ATOM     21  C   UNL     1       1.923   4.466  -3.459  0.00  0.00    +0.000 C 
ATOM     22  C   UNL     1       2.975   3.352  -3.661  0.00  0.00    +0.000 C 
BRANCH  20  23
ATOM     23  C   UNL     1       1.493   6.658  -2.486  0.00  0.00    +0.000 C 
BRANCH  23  24
ATOM     24  C   UNL     1       2.064   7.873  -1.740  0.00  0.00    +0.000 C 
BRANCH  24  25
ATOM     25  C   UNL     1       3.343   8.414  -2.372  0.00  0.00    +0.000 C 
BRANCH  25  26
ATOM     26  O   UNL     1       3.836   9.507  -1.604  0.00  0.00    +0.000 OA
ATOM     27  H   UNL     1       3.131  10.173  -1.553  0.00  0.00    +0.000 HD
ENDBRANCH  25  26
ENDBRANCH  24  25
ENDBRANCH  23  24
ENDBRANCH  20  23
BRANCH  22  28
ATOM     28  C   UNL     1       4.162   3.888  -4.490  0.00  0.00    +0.000 C 
BRANCH  28  29
ATOM     29  O   UNL     1       5.172   2.907  -4.712  0.00  0.00    +0.000 OA
ATOM     30  H   UNL     1       4.814   2.026  -4.521  0.00  0.00    +0.000 HD
ENDBRANCH  28  29
ENDBRANCH  22  28
ENDBRANCH  16  17
ENDBRANCH   3  16
TORSDOF 9
