REMARK  Name = 
REMARK  6 active torsions:
REMARK  status: ('A' for Active; 'I' for Inactive)
REMARK    1  A    between atoms: C_2  and  C_4
REMARK    2  A    between atoms: N_8  and  C_9
REMARK    3  A    between atoms: C_9  and  C_10
REMARK    4  A    between atoms: C_14  and  C_15
REMARK    5  A    between atoms: C_19  and  O_20
REMARK    6  A    between atoms: O_20  and  C_21
REMARK                            x       y       z     vdW  Elec       q    Type
REMARK                         _______ _______ _______ _____ _____    ______ ____
ROOT
ATOM      1  C   UNL     1       4.631   4.686  -3.846  0.00  0.00    +0.000 C 
ATOM      2  C   UNL     1       3.565   3.629  -3.568  0.00  0.00    +0.000 C 
ATOM      3  C   UNL     1       4.191   4.348  -2.429  0.00  0.00    +0.000 C 
ENDROOT
BRANCH   1   8
ATOM      4  C   UNL     1       1.731   7.041  -7.318  0.00  0.00    +0.000 A 
ATOM      5  C   UNL     1       2.313   8.057  -6.577  0.00  0.00    +0.000 A 
ATOM      6  C   UNL     1       3.137   7.708  -5.517  0.00  0.00    +0.000 A 
ATOM      7  C   UNL     1       3.379   6.360  -5.245  0.00  0.00    +0.000 A 
ATOM      8  N   UNL     1       4.350   6.069  -4.257  0.00  0.00    +0.000 N 
ATOM      9  N   UNL     1       2.720   5.380  -5.897  0.00  0.00    +0.000 NA
ATOM     10  C   UNL     1       1.894   5.734  -6.910  0.00  0.00    +0.000 A 
ATOM     11  H   UNL     1       5.190   6.597  -4.480  0.00  0.00    +0.000 HD
BRANCH   4  13
ATOM     12  N   UNL     1       1.508   8.340  -9.338  0.00  0.00    +0.000 N 
ATOM     13  C   UNL     1       1.014   7.310  -8.571  0.00  0.00    +0.000 C 
ATOM     14  O   UNL     1       0.093   6.618  -8.967  0.00  0.00    +0.000 OA
ATOM     15  H   UNL     1       1.143   8.417 -10.276  0.00  0.00    +0.000 HD
ATOM     16  H   UNL     1       2.424   8.735  -9.167  0.00  0.00    +0.000 HD
ENDBRANCH   4  13
ENDBRANCH   1   8
BRANCH   1  17
ATOM     17  C   UNL     1       5.918   4.077  -4.417  0.00  0.00    +0.000 A 
ATOM     18  C   UNL     1       7.045   3.832  -3.623  0.00  0.00    +0.000 A 
ATOM     19  C   UNL     1       8.052   2.976  -4.059  0.00  0.00    +0.000 A 
ATOM     20  C   UNL     1       7.955   2.367  -5.311  0.00  0.00    +0.000 A 
ATOM     21  C   UNL     1       6.882   2.648  -6.172  0.00  0.00    +0.000 A 
ATOM     22  C   UNL     1       5.905   3.549  -5.724  0.00  0.00    +0.000 A 
BRANCH  21  23
ATOM     23  C   UNL     1       6.699   1.918  -7.438  0.00  0.00    +0.000 A 
ATOM     24  C   UNL     1       6.314   2.543  -8.625  0.00  0.00    +0.000 A 
ATOM     25  N   UNL     1       6.073   1.901  -9.793  0.00  0.00    +0.000 NA
ATOM     26  C   UNL     1       6.221   0.557  -9.784  0.00  0.00    +0.000 A 
ATOM     27  C   UNL     1       6.624  -0.176  -8.678  0.00  0.00    +0.000 A 
ATOM     28  C   UNL     1       6.837   0.519  -7.488  0.00  0.00    +0.000 A 
BRANCH  27  29
ATOM     29  O   UNL     1       6.741  -1.524  -8.843  0.00  0.00    +0.000 OA
BRANCH  29  30
ATOM     30  C   UNL     1       7.660  -2.161  -7.971  0.00  0.00    +0.000 C 
ATOM     31  F   UNL     1       7.025  -2.458  -6.809  0.00  0.00    +0.000 F 
ATOM     32  F   UNL     1       8.007  -3.342  -8.540  0.00  0.00    +0.000 F 
ENDBRANCH  29  30
ENDBRANCH  27  29
ENDBRANCH  21  23
ENDBRANCH   1  17
TORSDOF 6
