REMARK  Name = 
REMARK  7 active torsions:
REMARK  status: ('A' for Active; 'I' for Inactive)
REMARK    1  A    between atoms: N_1  and  C_2
REMARK    2  A    between atoms: C_2  and  C_3
REMARK    3  A    between atoms: C_3  and  N_4
REMARK    4  A    between atoms: C_3  and  C_17
REMARK    5  A    between atoms: C_5  and  C_7
REMARK    6  A    between atoms: C_20  and  O_21
REMARK    7  A    between atoms: O_21  and  C_22
REMARK                            x       y       z     vdW  Elec       q    Type
REMARK                         _______ _______ _______ _____ _____    ______ ____
ROOT
ATOM      1  C   UNL     1       2.888   0.571   1.260  0.00  0.00    +0.000 C 
ENDROOT
BRANCH   1   2
ATOM      2  C   UNL     1       4.414   0.683   1.323  0.00  0.00    +0.000 A 
ATOM      3  C   UNL     1       5.024   1.856   0.853  0.00  0.00    +0.000 A 
ATOM      4  C   UNL     1       6.413   1.949   0.730  0.00  0.00    +0.000 A 
ATOM      5  C   UNL     1       7.231   0.887   1.111  0.00  0.00    +0.000 A 
ATOM      6  C   UNL     1       6.639  -0.279   1.603  0.00  0.00    +0.000 A 
ATOM      7  C   UNL     1       5.243  -0.384   1.708  0.00  0.00    +0.000 A 
BRANCH   5   8
ATOM      8  O   UNL     1       8.599   0.879   0.990  0.00  0.00    +0.000 OA
BRANCH   8   9
ATOM      9  C   UNL     1       9.237   2.163   1.081  0.00  0.00    +0.000 C 
ATOM     10  C   UNL     1       9.491   2.763  -0.286  0.00  0.00    +0.000 C 
ATOM     11  C   UNL     1      10.927   2.418  -0.613  0.00  0.00    +0.000 C 
ATOM     12  O   UNL     1      11.584   2.012   0.585  0.00  0.00    +0.000 OA
ATOM     13  C   UNL     1      10.638   2.009   1.660  0.00  0.00    +0.000 C 
ENDBRANCH   8   9
ENDBRANCH   5   8
ENDBRANCH   1   2
BRANCH   1  14
ATOM     14  N   UNL     1       2.361  -0.117   2.434  0.00  0.00    +0.000 N 
ATOM     15  C   UNL     1       1.008  -0.241   2.656  0.00  0.00    +0.000 C 
ATOM     16  O   UNL     1       0.165   0.082   1.827  0.00  0.00    +0.000 OA
ATOM     17  H   UNL     1       2.965  -0.117   3.250  0.00  0.00    +0.000 HD
BRANCH  15  18
ATOM     18  C   UNL     1       0.603  -0.825   3.942  0.00  0.00    +0.000 A 
ATOM     19  C   UNL     1      -0.588  -1.531   4.032  0.00  0.00    +0.000 A 
ATOM     20  S   UNL     1      -0.923  -2.093   5.608  0.00  0.00    +0.000 S 
ATOM     21  C   UNL     1       0.486  -1.366   6.225  0.00  0.00    +0.000 A 
ATOM     22  N   UNL     1       0.772  -1.404   7.553  0.00  0.00    +0.000 NA
ATOM     23  C   UNL     1       1.847  -0.769   7.885  0.00  0.00    +0.000 A 
ATOM     24  N   UNL     1       2.677  -0.123   7.005  0.00  0.00    +0.000 N 
ATOM     25  C   UNL     1       2.465  -0.117   5.647  0.00  0.00    +0.000 A 
ATOM     26  O   UNL     1       3.279   0.370   4.871  0.00  0.00    +0.000 OA
ATOM     27  C   UNL     1       1.234  -0.757   5.233  0.00  0.00    +0.000 A 
ATOM     28  H   UNL     1       3.525   0.321   7.326  0.00  0.00    +0.000 HD
ENDBRANCH  15  18
ENDBRANCH   1  14
BRANCH   1  29
ATOM     29  C   UNL     1       2.463  -0.104  -0.085  0.00  0.00    +0.000 C 
BRANCH  29  30
ATOM     30  N   UNL     1       2.950   0.566  -1.303  0.00  0.00    +0.000 NA
ATOM     31  H   UNL     1       2.757  -0.036  -2.102  0.00  0.00    +0.000 HD
ATOM     32  H   UNL     1       3.967   0.644  -1.256  0.00  0.00    +0.000 HD
ENDBRANCH  29  30
ENDBRANCH   1  29
TORSDOF 7
