REMARK  Name = 
REMARK  8 active torsions:
REMARK  status: ('A' for Active; 'I' for Inactive)
REMARK    1  A    between atoms: C_1  and  N_2
REMARK    2  A    between atoms: N_2  and  C_3
REMARK    3  A    between atoms: N_2  and  C_11
REMARK    4  A    between atoms: C_3  and  C_4
REMARK    5  A    between atoms: C_11  and  C_12
REMARK    6  A    between atoms: C_15  and  C_16
REMARK    7  A    between atoms: C_16  and  N_17
REMARK    8  A    between atoms: C_18  and  C_20
REMARK                            x       y       z     vdW  Elec       q    Type
REMARK                         _______ _______ _______ _____ _____    ______ ____
ROOT
ATOM      1  C   UNL     1       4.512  -1.011   1.148  0.00  0.00    +0.000 C 
ATOM      2  C   UNL     1       5.012  -2.454   1.325  0.00  0.00    +0.000 C 
ATOM      3  C   UNL     1       6.540  -2.513   1.404  0.00  0.00    +0.000 C 
ATOM      4  C   UNL     1       7.092  -1.618   2.527  0.00  0.00    +0.000 C 
ATOM      5  C   UNL     1       6.575  -0.181   2.364  0.00  0.00    +0.000 C 
ATOM      6  C   UNL     1       5.051  -0.123   2.280  0.00  0.00    +0.000 C 
ENDROOT
BRANCH   1   7
ATOM      7  C   UNL     1       2.965  -0.973   1.063  0.00  0.00    +0.000 C 
BRANCH   7   9
ATOM      8  C   UNL     1       2.833   0.949  -0.415  0.00  0.00    +0.000 C 
ATOM      9  N   UNL     1       2.391   0.377   0.862  0.00  0.00    +0.000 NA
BRANCH   9  10
ATOM     10  C   UNL     1       0.915   0.310   0.934  0.00  0.00    +0.000 C 
BRANCH  10  11
ATOM     11  C   UNL     1       0.229   1.662   0.841  0.00  0.00    +0.000 A 
ATOM     12  C   UNL     1       0.480   2.657   1.800  0.00  0.00    +0.000 A 
ATOM     13  C   UNL     1      -0.150   3.900   1.721  0.00  0.00    +0.000 A 
ATOM     14  C   UNL     1      -1.046   4.164   0.686  0.00  0.00    +0.000 A 
ATOM     15  C   UNL     1      -1.302   3.185  -0.270  0.00  0.00    +0.000 A 
ATOM     16 CL   UNL     1      -2.413   3.509  -1.545  0.00  0.00    +0.000 Cl
ATOM     17  C   UNL     1      -0.668   1.942  -0.202  0.00  0.00    +0.000 A 
ENDBRANCH  10  11
ENDBRANCH   9  10
ENDBRANCH   7   9
ENDBRANCH   1   7
BRANCH   4  18
ATOM     18  C   UNL     1       8.632  -1.612   2.559  0.00  0.00    +0.000 C 
BRANCH  18  19
ATOM     19  N   UNL     1       9.198  -2.921   2.798  0.00  0.00    +0.000 N 
ATOM     20  C   UNL     1       9.343  -3.443   4.059  0.00  0.00    +0.000 C 
ATOM     21  O   UNL     1       9.013  -2.823   5.066  0.00  0.00    +0.000 OA
ATOM     22  H   UNL     1       9.615  -3.402   2.007  0.00  0.00    +0.000 HD
BRANCH  20  23
ATOM     23  C   UNL     1       9.852  -4.817   4.142  0.00  0.00    +0.000 A 
ATOM     24  C   UNL     1       9.551  -5.590   5.255  0.00  0.00    +0.000 A 
ATOM     25  S   UNL     1      10.184  -7.171   5.183  0.00  0.00    +0.000 S 
ATOM     26  C   UNL     1      10.927  -6.861   3.684  0.00  0.00    +0.000 A 
ATOM     27  N   UNL     1      11.672  -7.818   3.063  0.00  0.00    +0.000 NA
ATOM     28  C   UNL     1      12.209  -7.438   1.953  0.00  0.00    +0.000 A 
ATOM     29  N   UNL     1      12.062  -6.192   1.400  0.00  0.00    +0.000 N 
ATOM     30  C   UNL     1      11.274  -5.214   1.962  0.00  0.00    +0.000 A 
ATOM     31  O   UNL     1      11.086  -4.143   1.393  0.00  0.00    +0.000 OA
ATOM     32  C   UNL     1      10.675  -5.580   3.231  0.00  0.00    +0.000 A 
ATOM     33  H   UNL     1      12.494  -5.967   0.516  0.00  0.00    +0.000 HD
ENDBRANCH  20  23
ENDBRANCH  18  19
ENDBRANCH   4  18
TORSDOF 7
