REMARK  Name = 
REMARK  5 active torsions:
REMARK  status: ('A' for Active; 'I' for Inactive)
REMARK    1  A    between atoms: C_2  and  C_4
REMARK    2  A    between atoms: C_7  and  O_8
REMARK    3  A    between atoms: O_8  and  C_9
REMARK    4  A    between atoms: C_9  and  C_10
REMARK    5  A    between atoms: C_14  and  C_15
REMARK                            x       y       z     vdW  Elec       q    Type
REMARK                         _______ _______ _______ _____ _____    ______ ____
ROOT
ATOM      1  C   UNL     1       4.949  -3.903  -4.493  0.00  0.00    +0.000 C 
ENDROOT
BRANCH   1   2
ATOM      2  C   UNL     1       5.870  -5.001  -4.977  0.00  0.00    +0.000 A 
ATOM      3  C   UNL     1       7.107  -4.676  -5.545  0.00  0.00    +0.000 A 
ATOM      4  C   UNL     1       7.976  -5.683  -5.953  0.00  0.00    +0.000 A 
ATOM      5  C   UNL     1       7.630  -7.024  -5.770  0.00  0.00    +0.000 A 
ATOM      6  C   UNL     1       6.423  -7.391  -5.148  0.00  0.00    +0.000 A 
ATOM      7  C   UNL     1       5.550  -6.354  -4.773  0.00  0.00    +0.000 A 
BRANCH   6   8
ATOM      8  C   UNL     1       6.112  -8.800  -4.827  0.00  0.00    +0.000 A 
ATOM      9  C   UNL     1       7.112  -9.702  -4.436  0.00  0.00    +0.000 A 
ATOM     10  C   UNL     1       6.791 -11.004  -4.054  0.00  0.00    +0.000 A 
ATOM     11  C   UNL     1       5.461 -11.381  -4.071  0.00  0.00    +0.000 A 
ATOM     12  N   UNL     1       4.460 -10.566  -4.455  0.00  0.00    +0.000 NA
ATOM     13  C   UNL     1       4.810  -9.307  -4.825  0.00  0.00    +0.000 A 
ENDBRANCH   6   8
ENDBRANCH   1   2
BRANCH   1  14
ATOM     14  O   UNL     1       3.584  -4.285  -4.691  0.00  0.00    +0.000 OA
BRANCH  14  18
ATOM     15  C   UNL     1       0.901  -1.507  -3.271  0.00  0.00    +0.000 A 
ATOM     16  C   UNL     1       0.432  -2.702  -3.824  0.00  0.00    +0.000 A 
ATOM     17  C   UNL     1       1.353  -3.633  -4.306  0.00  0.00    +0.000 A 
ATOM     18  C   UNL     1       2.705  -3.336  -4.213  0.00  0.00    +0.000 A 
ATOM     19  N   UNL     1       3.184  -2.186  -3.692  0.00  0.00    +0.000 NA
ATOM     20  C   UNL     1       2.271  -1.292  -3.244  0.00  0.00    +0.000 A 
BRANCH  15  22
ATOM     21  N   UNL     1      -1.200  -0.849  -2.246  0.00  0.00    +0.000 N 
ATOM     22  C   UNL     1       0.015  -0.457  -2.729  0.00  0.00    +0.000 C 
ATOM     23  O   UNL     1       0.375   0.711  -2.674  0.00  0.00    +0.000 OA
ATOM     24  H   UNL     1      -1.740  -0.136  -1.770  0.00  0.00    +0.000 HD
ATOM     25  H   UNL     1      -1.415  -1.813  -2.034  0.00  0.00    +0.000 HD
ENDBRANCH  15  22
ENDBRANCH  14  18
ENDBRANCH   1  14
TORSDOF 5
