REMARK  Name = 
REMARK  8 active torsions:
REMARK  status: ('A' for Active; 'I' for Inactive)
REMARK    1  A    between atoms: C_1  and  O_2
REMARK    2  A    between atoms: O_2  and  C_3
REMARK    3  A    between atoms: C_6  and  C_7
REMARK    4  A    between atoms: C_7  and  C_8
REMARK    5  A    between atoms: C_7  and  N_9
REMARK    6  A    between atoms: N_9  and  C_10
REMARK    7  A    between atoms: C_13  and  C_14
REMARK    8  A    between atoms: C_18  and  C_19
REMARK                            x       y       z     vdW  Elec       q    Type
REMARK                         _______ _______ _______ _____ _____    ______ ____
ROOT
ATOM      1  N   UNL     1       4.668   3.424   4.966  0.00  0.00    +0.000 N 
ATOM      2  H   UNL     1       4.094   2.603   5.129  0.00  0.00    +0.000 HD
ENDROOT
BRANCH   1   3
ATOM      3  C   UNL     1       5.367   3.697   6.152  0.00  0.00    +0.000 A 
ATOM      4  N   UNL     1       6.693   3.934   6.109  0.00  0.00    +0.000 NA
ATOM      5  C   UNL     1       7.329   4.275   7.263  0.00  0.00    +0.000 A 
ATOM      6  C   UNL     1       6.700   4.431   8.484  0.00  0.00    +0.000 A 
ATOM      7  C   UNL     1       5.335   4.160   8.525  0.00  0.00    +0.000 A 
ATOM      8  C   UNL     1       4.653   3.769   7.361  0.00  0.00    +0.000 A 
ATOM      9  C   UNL     1       3.214   3.352   7.479  0.00  0.00    +0.000 C 
BRANCH   6  10
ATOM     10  C   UNL     1       7.381   4.867   9.729  0.00  0.00    +0.000 C 
ATOM     11  N   UNL     1       8.739   5.030   9.721  0.00  0.00    +0.000 N 
ATOM     12  O   UNL     1       6.750   5.079  10.755  0.00  0.00    +0.000 OA
ATOM     13  H   UNL     1       9.356   4.851   8.947  0.00  0.00    +0.000 HD
ATOM     14  H   UNL     1       9.157   5.342  10.590  0.00  0.00    +0.000 HD
ENDBRANCH   6  10
ENDBRANCH   1   3
BRANCH   1  15
ATOM     15  C   UNL     1       5.451   3.287   3.731  0.00  0.00    +0.000 C 
ATOM     16  C   UNL     1       4.674   2.345   2.795  0.00  0.00    +0.000 C 
BRANCH  15  20
ATOM     17  C   UNL     1       6.004   6.698   1.237  0.00  0.00    +0.000 A 
ATOM     18  C   UNL     1       4.900   6.703   2.078  0.00  0.00    +0.000 A 
ATOM     19  C   UNL     1       4.727   5.638   2.962  0.00  0.00    +0.000 A 
ATOM     20  C   UNL     1       5.659   4.595   2.987  0.00  0.00    +0.000 A 
ATOM     21  C   UNL     1       6.763   4.725   2.142  0.00  0.00    +0.000 A 
ATOM     22  N   UNL     1       6.956   5.743   1.269  0.00  0.00    +0.000 NA
BRANCH  17  24
ATOM     23  C   UNL     1       7.172   7.563  -0.599  0.00  0.00    +0.000 C 
ATOM     24  O   UNL     1       6.073   7.708   0.299  0.00  0.00    +0.000 OA
ENDBRANCH  17  24
ENDBRANCH  15  20
ENDBRANCH   1  15
TORSDOF 5
