REMARK  Name = 
REMARK  8 active torsions:
REMARK  status: ('A' for Active; 'I' for Inactive)
REMARK    1  A    between atoms: C_1  and  C_2
REMARK    2  A    between atoms: C_2  and  C_3
REMARK    3  A    between atoms: C_3  and  N_4
REMARK    4  A    between atoms: C_3  and  C_5
REMARK    5  A    between atoms: C_5  and  C_6
REMARK    6  A    between atoms: C_9  and  O_10
REMARK    7  A    between atoms: O_10  and  C_11
REMARK    8  A    between atoms: C_11  and  C_12
REMARK                            x       y       z     vdW  Elec       q    Type
REMARK                         _______ _______ _______ _____ _____    ______ ____
ROOT
ATOM      1  C   UNL     1       4.999   1.203   2.628  0.00  0.00    +0.000 A 
ATOM      2  C   UNL     1       4.977   2.582   2.881  0.00  0.00    +0.000 A 
ATOM      3  C   UNL     1       5.282   3.074   4.152  0.00  0.00    +0.000 A 
ATOM      4  C   UNL     1       5.586   2.192   5.189  0.00  0.00    +0.000 A 
ATOM      5  C   UNL     1       5.677   0.825   4.925  0.00  0.00    +0.000 A 
ATOM      6  C   UNL     1       5.371   0.333   3.658  0.00  0.00    +0.000 A 
ENDROOT
BRANCH   1   7
ATOM      7  C   UNL     1       4.598   0.641   1.284  0.00  0.00    +0.000 C 
BRANCH   7   8
ATOM      8  C   UNL     1       5.431   1.158   0.094  0.00  0.00    +0.000 C 
BRANCH   8   9
ATOM      9  N   UNL     1       4.853   0.611  -1.144  0.00  0.00    +0.000 NA
ATOM     10  H   UNL     1       5.030  -0.391  -1.193  0.00  0.00    +0.000 HD
ATOM     11  H   UNL     1       5.319   1.021  -1.952  0.00  0.00    +0.000 HD
ENDBRANCH   8   9
BRANCH   8  13
ATOM     12  C   UNL     1       7.794   1.353  -0.875  0.00  0.00    +0.000 C 
ATOM     13  C   UNL     1       6.918   0.777   0.230  0.00  0.00    +0.000 C 
ENDBRANCH   8  13
ENDBRANCH   7   8
ENDBRANCH   1   7
BRANCH   4  14
ATOM     14  O   UNL     1       5.759   2.755   6.427  0.00  0.00    +0.000 OA
BRANCH  14  15
ATOM     15  C   UNL     1       5.453   1.870   7.510  0.00  0.00    +0.000 C 
BRANCH  15  16
ATOM     16  C   UNL     1       5.098   2.622   8.766  0.00  0.00    +0.000 A 
ATOM     17  C   UNL     1       4.491   3.880   8.733  0.00  0.00    +0.000 A 
ATOM     18  C   UNL     1       4.114   4.469   9.929  0.00  0.00    +0.000 A 
ATOM     19  N   UNL     1       4.288   3.893  11.139  0.00  0.00    +0.000 NA
ATOM     20  C   UNL     1       4.862   2.672  11.150  0.00  0.00    +0.000 A 
ATOM     21  C   UNL     1       5.275   2.004  10.009  0.00  0.00    +0.000 A 
ENDBRANCH  15  16
ENDBRANCH  14  15
ENDBRANCH   4  14
TORSDOF 7
