REMARK  Name = 
REMARK  7 active torsions:
REMARK  status: ('A' for Active; 'I' for Inactive)
REMARK    1  A    between atoms: C_2  and  C_3
REMARK    2  A    between atoms: C_7  and  C_8
REMARK    3  A    between atoms: C_8  and  C_9
REMARK    4  A    between atoms: C_9  and  C_10
REMARK    5  A    between atoms: C_12  and  C_13
REMARK    6  A    between atoms: C_17  and  O_18
REMARK    7  A    between atoms: O_18  and  C_19
REMARK                            x       y       z     vdW  Elec       q    Type
REMARK                         _______ _______ _______ _____ _____    ______ ____
ROOT
ATOM      1  C   UNL     1      -2.601   4.580   0.568  0.00  0.00    +0.000 A 
ATOM      2  C   UNL     1      -3.464   5.053  -0.424  0.00  0.00    +0.000 A 
ATOM      3  C   UNL     1      -4.665   5.699  -0.095  0.00  0.00    +0.000 A 
ATOM      4  C   UNL     1      -4.965   5.826   1.264  0.00  0.00    +0.000 A 
ATOM      5  C   UNL     1      -4.070   5.341   2.200  0.00  0.00    +0.000 A 
ATOM      6  N   UNL     1      -2.905   4.746   1.880  0.00  0.00    +0.000 NA
ENDROOT
BRANCH   3   7
ATOM      7  C   UNL     1      -5.582   6.189  -1.142  0.00  0.00    +0.000 A 
ATOM      8  C   UNL     1      -6.969   6.070  -1.008  0.00  0.00    +0.000 A 
ATOM      9  N   UNL     1      -7.875   6.485  -1.921  0.00  0.00    +0.000 NA
ATOM     10  C   UNL     1      -7.380   7.049  -3.045  0.00  0.00    +0.000 A 
ATOM     11  C   UNL     1      -6.029   7.241  -3.292  0.00  0.00    +0.000 A 
ATOM     12  C   UNL     1      -5.123   6.789  -2.332  0.00  0.00    +0.000 A 
BRANCH  11  13
ATOM     13  O   UNL     1      -5.723   7.831  -4.482  0.00  0.00    +0.000 OA
BRANCH  13  14
ATOM     14  C   UNL     1      -4.487   8.521  -4.538  0.00  0.00    +0.000 C 
ATOM     15  F   UNL     1      -3.507   7.631  -4.828  0.00  0.00    +0.000 F 
ATOM     16  F   UNL     1      -4.558   9.383  -5.582  0.00  0.00    +0.000 F 
ENDBRANCH  13  14
ENDBRANCH  11  13
ENDBRANCH   3   7
BRANCH   1  17
ATOM     17  C   UNL     1      -1.342   3.783   0.214  0.00  0.00    +0.000 C 
ATOM     18  C   UNL     1      -0.754   2.866   1.282  0.00  0.00    +0.000 C 
ATOM     19  C   UNL     1      -1.515   2.269   0.141  0.00  0.00    +0.000 C 
BRANCH  17  20
ATOM     20  C   UNL     1      -0.420   4.373  -0.841  0.00  0.00    +0.000 C 
BRANCH  20  25
ATOM     21  C   UNL     1       1.447   7.203   0.906  0.00  0.00    +0.000 A 
ATOM     22  C   UNL     1       1.586   8.055  -0.179  0.00  0.00    +0.000 A 
ATOM     23  N   UNL     1       1.040   7.816  -1.393  0.00  0.00    +0.000 NA
ATOM     24  C   UNL     1       0.363   6.653  -1.536  0.00  0.00    +0.000 A 
ATOM     25  C   UNL     1       0.175   5.719  -0.517  0.00  0.00    +0.000 A 
ATOM     26  C   UNL     1       0.716   6.026   0.736  0.00  0.00    +0.000 A 
BRANCH  21  28
ATOM     27  N   UNL     1       2.634   7.737   3.141  0.00  0.00    +0.000 NA
ATOM     28  C   UNL     1       2.091   7.494   2.144  0.00  0.00    +0.000 C 
ENDBRANCH  21  28
ENDBRANCH  20  25
ENDBRANCH  17  20
ENDBRANCH   1  17
TORSDOF 7
