REMARK  Name = 
REMARK  6 active torsions:
REMARK  status: ('A' for Active; 'I' for Inactive)
REMARK    1  A    between atoms: C_1  and  N_2
REMARK    2  A    between atoms: N_2  and  C_3
REMARK    3  A    between atoms: C_3  and  C_4
REMARK    4  A    between atoms: C_7  and  C_8
REMARK    5  A    between atoms: C_8  and  N_9
REMARK    6  A    between atoms: C_16  and  C_18
REMARK                            x       y       z     vdW  Elec       q    Type
REMARK                         _______ _______ _______ _____ _____    ______ ____
ROOT
ATOM      1  C   UNL     1       1.072   0.172  -0.503  0.00  0.00    +0.000 C 
ATOM      2  N   UNL     1       2.519   0.260  -0.324  0.00  0.00    +0.000 N 
ATOM      3  C   UNL     1       3.291  -0.445  -1.280  0.00  0.00    +0.000 C 
ATOM      4  O   UNL     1       2.770  -0.917  -2.287  0.00  0.00    +0.000 OA
ENDROOT
BRANCH   3   5
ATOM      5  C   UNL     1       4.734  -0.628  -1.053  0.00  0.00    +0.000 A 
ATOM      6  C   UNL     1       5.605   0.390  -0.699  0.00  0.00    +0.000 A 
ATOM      7  S   UNL     1       7.202  -0.141  -0.417  0.00  0.00    +0.000 S 
ATOM      8  C   UNL     1       6.821  -1.721  -0.914  0.00  0.00    +0.000 A 
ATOM      9  N   UNL     1       7.775  -2.689  -0.934  0.00  0.00    +0.000 NA
ATOM     10  C   UNL     1       7.366  -3.827  -1.386  0.00  0.00    +0.000 A 
ATOM     11  N   UNL     1       6.090  -4.079  -1.814  0.00  0.00    +0.000 N 
ATOM     12  C   UNL     1       5.073  -3.149  -1.770  0.00  0.00    +0.000 A 
ATOM     13  O   UNL     1       3.937  -3.454  -2.112  0.00  0.00    +0.000 OA
ATOM     14  C   UNL     1       5.489  -1.846  -1.273  0.00  0.00    +0.000 A 
ATOM     15  H   UNL     1       5.832  -4.992  -2.165  0.00  0.00    +0.000 HD
ENDBRANCH   3   5
BRANCH   2  16
ATOM     16  C   UNL     1       3.068   0.733   0.951  0.00  0.00    +0.000 C 
BRANCH  16  17
ATOM     17  C   UNL     1       2.133   1.351   1.949  0.00  0.00    +0.000 A 
ATOM     18  C   UNL     1       1.780   2.705   1.882  0.00  0.00    +0.000 A 
ATOM     19  C   UNL     1       0.950   3.254   2.853  0.00  0.00    +0.000 A 
ATOM     20  C   UNL     1       0.500   2.438   3.890  0.00  0.00    +0.000 A 
ATOM     21  N   UNL     1       0.826   1.122   3.969  0.00  0.00    +0.000 NA
ATOM     22  C   UNL     1       1.624   0.611   3.006  0.00  0.00    +0.000 A 
BRANCH  20  23
ATOM     23  C   UNL     1      -0.439   2.970   4.939  0.00  0.00    +0.000 C 
BRANCH  23  24
ATOM     24  N   UNL     1      -1.810   2.878   4.480  0.00  0.00    +0.000 N 
ATOM     25  C   UNL     1      -2.536   1.753   4.213  0.00  0.00    +0.000 A 
ATOM     26  C   UNL     1      -3.753   2.238   3.807  0.00  0.00    +0.000 A 
ATOM     27  N   UNL     1      -3.740   3.604   3.858  0.00  0.00    +0.000 NA
ATOM     28  N   UNL     1      -2.541   3.989   4.276  0.00  0.00    +0.000 NA
ENDBRANCH  23  24
ENDBRANCH  20  23
ENDBRANCH  16  17
ENDBRANCH   2  16
TORSDOF 5
