REMARK  Name = 
REMARK  5 active torsions:
REMARK  status: ('A' for Active; 'I' for Inactive)
REMARK    1  A    between atoms: C_1  and  O_2
REMARK    2  A    between atoms: O_2  and  C_3
REMARK    3  A    between atoms: C_6  and  O_7
REMARK    4  A    between atoms: O_7  and  C_8
REMARK    5  A    between atoms: C_8  and  C_9
REMARK                            x       y       z     vdW  Elec       q    Type
REMARK                         _______ _______ _______ _____ _____    ______ ____
ROOT
ATOM      1  C   UNL     1       3.004   0.126   1.127  0.00  0.00    +0.000 A 
ATOM      2  C   UNL     1       2.646  -0.669   2.215  0.00  0.00    +0.000 A 
ATOM      3  C   UNL     1       3.442  -0.681   3.367  0.00  0.00    +0.000 A 
ATOM      4  C   UNL     1       4.602   0.093   3.433  0.00  0.00    +0.000 A 
ATOM      5  C   UNL     1       4.928   0.930   2.366  0.00  0.00    +0.000 A 
ATOM      6  C   UNL     1       4.137   0.935   1.215  0.00  0.00    +0.000 A 
ENDROOT
BRANCH   1   8
ATOM      7  C   UNL     1       1.213  -0.631  -0.239  0.00  0.00    +0.000 C 
ATOM      8  O   UNL     1       2.348   0.207  -0.070  0.00  0.00    +0.000 OA
ENDBRANCH   1   8
BRANCH   4   9
ATOM      9  O   UNL     1       5.344  -0.048   4.576  0.00  0.00    +0.000 OA
BRANCH   9  10
ATOM     10  C   UNL     1       6.716   0.332   4.453  0.00  0.00    +0.000 C 
BRANCH  10  11
ATOM     11  C   UNL     1       7.529  -0.319   5.535  0.00  0.00    +0.000 A 
ATOM     12  C   UNL     1       7.512  -1.703   5.727  0.00  0.00    +0.000 A 
ATOM     13  C   UNL     1       8.346  -2.276   6.682  0.00  0.00    +0.000 A 
ATOM     14  C   UNL     1       9.174  -1.442   7.414  0.00  0.00    +0.000 A 
ATOM     15  N   UNL     1       9.219  -0.102   7.258  0.00  0.00    +0.000 NA
ATOM     16  C   UNL     1       8.397   0.428   6.324  0.00  0.00    +0.000 A 
ENDBRANCH  10  11
ENDBRANCH   9  10
ENDBRANCH   4   9
TORSDOF 4
