REMARK  Name = 
REMARK  11 active torsions:
REMARK  status: ('A' for Active; 'I' for Inactive)
REMARK    1  A    between atoms: C_1  and  C_2
REMARK    2  A    between atoms: C_6  and  O_7
REMARK    3  A    between atoms: O_7  and  C_8
REMARK    4  A    between atoms: C_12  and  C_13
REMARK    5  A    between atoms: C_13  and  C_14
REMARK    6  A    between atoms: C_13  and  C_15
REMARK    7  A    between atoms: C_13  and  C_16
REMARK    8  A    between atoms: C_16  and  N_17
REMARK    9  A    between atoms: N_17  and  C_18
REMARK   10  A    between atoms: C_21  and  S_22
REMARK   11  A    between atoms: S_22  and  N_23
REMARK                            x       y       z     vdW  Elec       q    Type
REMARK                         _______ _______ _______ _____ _____    ______ ____
ROOT
ATOM      1  C   UNL     1      -0.019  -3.764   6.076  0.00  0.00    +0.000 C 
ATOM      2  C   UNL     1      -1.497  -3.455   6.424  0.00  0.00    +0.000 C 
ATOM      3  C   UNL     1       0.028  -5.207   5.513  0.00  0.00    +0.000 C 
ENDROOT
BRANCH   1   8
ATOM      4  C   UNL     1       2.275  -2.300   3.350  0.00  0.00    +0.000 A 
ATOM      5  C   UNL     1       1.458  -1.328   2.778  0.00  0.00    +0.000 A 
ATOM      6  C   UNL     1       0.220  -1.037   3.340  0.00  0.00    +0.000 A 
ATOM      7  C   UNL     1      -0.232  -1.762   4.444  0.00  0.00    +0.000 A 
ATOM      8  C   UNL     1       0.533  -2.808   4.991  0.00  0.00    +0.000 A 
ATOM      9  C   UNL     1       1.817  -3.030   4.446  0.00  0.00    +0.000 A 
BRANCH   4  10
ATOM     10  O   UNL     1       3.457  -2.514   2.706  0.00  0.00    +0.000 OA
BRANCH  10  16
ATOM     11  C   UNL     1       6.198  -2.171   5.314  0.00  0.00    +0.000 C 
ATOM     12  C   UNL     1       5.196  -1.732   4.242  0.00  0.00    +0.000 C 
ATOM     13  C   UNL     1       5.884  -0.973   3.110  0.00  0.00    +0.000 C 
ATOM     14  N   UNL     1       6.420  -1.989   2.194  0.00  0.00    +0.000 NA
ATOM     15  C   UNL     1       5.713  -3.253   2.486  0.00  0.00    +0.000 C 
ATOM     16  C   UNL     1       4.596  -2.917   3.484  0.00  0.00    +0.000 C 
ATOM     17  H   UNL     1       7.419  -2.117   2.363  0.00  0.00    +0.000 HD
ENDBRANCH  10  16
ENDBRANCH   4  10
ENDBRANCH   1   8
BRANCH   1  18
ATOM     18  C   UNL     1       0.843  -3.655   7.373  0.00  0.00    +0.000 C 
BRANCH  18  19
ATOM     19  N   UNL     1       0.474  -4.658   8.375  0.00  0.00    +0.000 N 
ATOM     20  H   UNL     1      -0.500  -4.935   8.380  0.00  0.00    +0.000 HD
BRANCH  19  21
ATOM     21  C   UNL     1       1.037  -4.664   9.649  0.00  0.00    +0.000 A 
ATOM     22  C   UNL     1       2.117  -3.860  10.024  0.00  0.00    +0.000 A 
ATOM     23  C   UNL     1       2.689  -3.969  11.293  0.00  0.00    +0.000 A 
ATOM     24  C   UNL     1       2.187  -4.905  12.198  0.00  0.00    +0.000 A 
ATOM     25  C   UNL     1       1.142  -5.749  11.835  0.00  0.00    +0.000 A 
ATOM     26  C   UNL     1       0.573  -5.622  10.563  0.00  0.00    +0.000 A 
BRANCH  24  27
ATOM     27  S   UNL     1       2.898  -5.038  13.806  0.00  0.00    +0.000 S 
ATOM     28  O   UNL     1       2.651  -6.360  14.333  0.00  0.00    +0.000 OA
ATOM     29  O   UNL     1       4.211  -4.436  13.804  0.00  0.00    +0.000 OA
BRANCH  27  30
ATOM     30  N   UNL     1       1.914  -3.997  14.680  0.00  0.00    +0.000 NA
ATOM     31  H   UNL     1       1.402  -4.515  15.394  0.00  0.00    +0.000 HD
ATOM     32  H   UNL     1       2.460  -3.214  15.035  0.00  0.00    +0.000 HD
ENDBRANCH  27  30
ENDBRANCH  24  27
ENDBRANCH  19  21
ENDBRANCH  18  19
ENDBRANCH   1  18
TORSDOF 8
