REMARK  Name = 
REMARK  16 active torsions:
REMARK  status: ('A' for Active; 'I' for Inactive)
REMARK    1  A    between atoms: N_1  and  C_2
REMARK    2  A    between atoms: C_2  and  C_3
REMARK    3  A    between atoms: C_3  and  C_4
REMARK    4  A    between atoms: C_4  and  C_5
REMARK    5  A    between atoms: C_5  and  N_6
REMARK    6  A    between atoms: C_5  and  C_31
REMARK    7  A    between atoms: N_6  and  C_7
REMARK    8  A    between atoms: C_7  and  C_8
REMARK    9  A    between atoms: C_11  and  C_12
REMARK   10  A    between atoms: C_12  and  N_13
REMARK   11  A    between atoms: N_13  and  C_14
REMARK   12  A    between atoms: C_14  and  C_15
REMARK   13  A    between atoms: C_18  and  C_19
REMARK   14  A    between atoms: C_19  and  O_20
REMARK   15  A    between atoms: O_20  and  C_21
REMARK   16  A    between atoms: C_21  and  C_22
REMARK                            x       y       z     vdW  Elec       q    Type
REMARK                         _______ _______ _______ _____ _____    ______ ____
ROOT
ATOM      1  C   UNL     1       4.686  -1.041  -0.251  0.00  0.00    +0.000 A 
ATOM      2  C   UNL     1       4.940  -1.039  -1.618  0.00  0.00    +0.000 A 
ATOM      3  N   UNL     1       4.335  -1.889  -2.481  0.00  0.00    +0.000 NA
ATOM      4  C   UNL     1       3.449  -2.757  -1.924  0.00  0.00    +0.000 A 
ATOM      5  C   UNL     1       3.186  -2.752  -0.560  0.00  0.00    +0.000 A 
ATOM      6  N   UNL     1       3.784  -1.897   0.295  0.00  0.00    +0.000 NA
ENDROOT
BRANCH   4   7
ATOM      7  C   UNL     1       2.780  -3.773  -2.818  0.00  0.00    +0.000 C 
BRANCH   7   8
ATOM      8  N   UNL     1       3.708  -4.657  -3.534  0.00  0.00    +0.000 NA
ATOM      9  H   UNL     1       4.350  -4.060  -4.062  0.00  0.00    +0.000 HD
BRANCH   8  10
ATOM     10  C   UNL     1       4.527  -5.465  -2.616  0.00  0.00    +0.000 C 
BRANCH  10  11
ATOM     11  C   UNL     1       5.490  -6.357  -3.372  0.00  0.00    +0.000 A 
ATOM     12  C   UNL     1       5.004  -7.321  -4.253  0.00  0.00    +0.000 A 
ATOM     13  C   UNL     1       5.910  -8.095  -4.973  0.00  0.00    +0.000 A 
ATOM     14  C   UNL     1       7.281  -7.895  -4.798  0.00  0.00    +0.000 A 
ATOM     15  C   UNL     1       7.672  -6.919  -3.888  0.00  0.00    +0.000 A 
ATOM     16  N   UNL     1       6.815  -6.154  -3.177  0.00  0.00    +0.000 NA
BRANCH  14  17
ATOM     17  C   UNL     1       8.302  -8.711  -5.531  0.00  0.00    +0.000 C 
BRANCH  17  18
ATOM     18  O   UNL     1       8.154  -8.515  -6.938  0.00  0.00    +0.000 OA
BRANCH  18  19
ATOM     19  C   UNL     1       9.154  -9.256  -7.648  0.00  0.00    +0.000 C 
BRANCH  19  20
ATOM     20  C   UNL     1       8.976  -9.016  -9.106  0.00  0.00    +0.000 A 
ATOM     21  N   UNL     1       9.693  -9.534 -10.084  0.00  0.00    +0.000 NA
ATOM     22  C   UNL     1       9.164  -9.026 -11.242  0.00  0.00    +0.000 A 
ATOM     23  C   UNL     1       8.111  -8.188 -10.969  0.00  0.00    +0.000 A 
ATOM     24  N   UNL     1       8.004  -8.186  -9.608  0.00  0.00    +0.000 N 
ATOM     25  H   UNL     1       7.340  -7.677  -9.037  0.00  0.00    +0.000 HD
ENDBRANCH  19  20
ENDBRANCH  18  19
ENDBRANCH  17  18
ENDBRANCH  14  17
ENDBRANCH  10  11
ENDBRANCH   8  10
ENDBRANCH   7   8
ENDBRANCH   4   7
BRANCH   1  26
ATOM     26  C   UNL     1       5.351  -0.040   0.664  0.00  0.00    +0.000 C 
BRANCH  26  27
ATOM     27  N   UNL     1       6.130  -0.667   1.744  0.00  0.00    +0.000 NA
ATOM     28  H   UNL     1       6.805  -1.307   1.324  0.00  0.00    +0.000 HD
BRANCH  27  29
ATOM     29  C   UNL     1       6.852   0.299   2.581  0.00  0.00    +0.000 C 
BRANCH  29  30
ATOM     30  C   UNL     1       7.570  -0.503   3.664  0.00  0.00    +0.000 A 
ATOM     31  C   UNL     1       6.986  -0.929   4.850  0.00  0.00    +0.000 A 
ATOM     32  S   UNL     1       8.062  -1.750   5.891  0.00  0.00    +0.000 S 
ATOM     33  C   UNL     1       9.335  -1.625   4.771  0.00  0.00    +0.000 A 
ATOM     34  N   UNL     1      10.556  -2.163   5.035  0.00  0.00    +0.000 NA
ATOM     35  C   UNL     1      11.416  -2.025   4.083  0.00  0.00    +0.000 A 
ATOM     36  N   UNL     1      11.167  -1.375   2.896  0.00  0.00    +0.000 N 
ATOM     37  C   UNL     1       9.966  -0.766   2.605  0.00  0.00    +0.000 A 
ATOM     38  O   UNL     1       9.803  -0.135   1.566  0.00  0.00    +0.000 OA
ATOM     39  C   UNL     1       8.953  -0.936   3.632  0.00  0.00    +0.000 A 
ATOM     40  H   UNL     1      11.891  -1.293   2.197  0.00  0.00    +0.000 HD
ENDBRANCH  29  30
BRANCH  29  41
ATOM     41  C   UNL     1       5.914   1.387   3.162  0.00  0.00    +0.000 C 
BRANCH  41  42
ATOM     42  C   UNL     1       6.682   2.459   3.933  0.00  0.00    +0.000 C 
BRANCH  42  43
ATOM     43  C   UNL     1       5.747   3.562   4.419  0.00  0.00    +0.000 C 
BRANCH  43  44
ATOM     44  N   UNL     1       6.526   4.578   5.116  0.00  0.00    +0.000 NA
ATOM     45  H   UNL     1       5.920   5.347   5.385  0.00  0.00    +0.000 HD
ATOM     46  H   UNL     1       7.228   4.964   4.485  0.00  0.00    +0.000 HD
ENDBRANCH  43  44
ENDBRANCH  42  43
ENDBRANCH  41  42
ENDBRANCH  29  41
ENDBRANCH  27  29
ENDBRANCH  26  27
ENDBRANCH   1  26
TORSDOF 16
