REMARK  Name = 
REMARK  7 active torsions:
REMARK  status: ('A' for Active; 'I' for Inactive)
REMARK    1  A    between atoms: C_2  and  C_20
REMARK    2  A    between atoms: N_3  and  C_4
REMARK    3  A    between atoms: C_4  and  C_5
REMARK    4  A    between atoms: C_8  and  C_9
REMARK    5  A    between atoms: C_9  and  N_10
REMARK    6  A    between atoms: N_10  and  C_11
REMARK    7  A    between atoms: C_11  and  C_12
REMARK                            x       y       z     vdW  Elec       q    Type
REMARK                         _______ _______ _______ _____ _____    ______ ____
ROOT
ATOM      1  C   UNL     1       3.205   2.550  -2.703  0.00  0.00    +0.000 A 
ATOM      2  C   UNL     1       3.045   3.936  -2.763  0.00  0.00    +0.000 A 
ATOM      3  C   UNL     1       3.905   4.698  -3.551  0.00  0.00    +0.000 A 
ATOM      4  C   UNL     1       4.920   4.055  -4.253  0.00  0.00    +0.000 A 
ATOM      5  N   UNL     1       5.127   2.715  -4.167  0.00  0.00    +0.000 NA
ATOM      6  C   UNL     1       4.265   1.998  -3.411  0.00  0.00    +0.000 A 
ENDROOT
BRANCH   1   7
ATOM      7  C   UNL     1       2.281   1.678  -1.904  0.00  0.00    +0.000 C 
BRANCH   7  10
ATOM      8  O   UNL     1       3.887  -0.415  -0.905  0.00  0.00    +0.000 OA
ATOM      9  C   UNL     1       3.543   0.487  -0.148  0.00  0.00    +0.000 C 
ATOM     10  N   UNL     1       2.725   1.514  -0.548  0.00  0.00    +0.000 N 
ATOM     11  H   UNL     1       2.621   2.324   0.055  0.00  0.00    +0.000 HD
BRANCH   9  12
ATOM     12  C   UNL     1       3.935   0.503   1.263  0.00  0.00    +0.000 A 
ATOM     13  C   UNL     1       4.231  -0.678   1.931  0.00  0.00    +0.000 A 
ATOM     14  S   UNL     1       4.648  -0.442   3.571  0.00  0.00    +0.000 S 
ATOM     15  C   UNL     1       4.489   1.245   3.424  0.00  0.00    +0.000 A 
ATOM     16  N   UNL     1       4.735   2.069   4.484  0.00  0.00    +0.000 NA
ATOM     17  C   UNL     1       4.615   3.328   4.217  0.00  0.00    +0.000 A 
ATOM     18  N   UNL     1       4.257   3.844   2.988  0.00  0.00    +0.000 N 
ATOM     19  C   UNL     1       3.927   3.043   1.925  0.00  0.00    +0.000 A 
ATOM     20  O   UNL     1       3.469   3.535   0.897  0.00  0.00    +0.000 OA
ATOM     21  C   UNL     1       4.096   1.624   2.157  0.00  0.00    +0.000 A 
ATOM     22  H   UNL     1       4.144   4.829   2.859  0.00  0.00    +0.000 HD
ENDBRANCH   9  12
ENDBRANCH   7  10
ENDBRANCH   1   7
BRANCH   4  23
ATOM     23  C   UNL     1       5.879   4.871  -5.099  0.00  0.00    +0.000 C 
BRANCH  23  24
ATOM     24  N   UNL     1       6.532   4.137  -6.181  0.00  0.00    +0.000 NA
ATOM     25  H   UNL     1       6.977   3.327  -5.742  0.00  0.00    +0.000 HD
BRANCH  24  26
ATOM     26  C   UNL     1       5.656   3.633  -7.262  0.00  0.00    +0.000 C 
BRANCH  26  27
ATOM     27  C   UNL     1       6.600   2.872  -8.228  0.00  0.00    +0.000 C 
ATOM     28  C   UNL     1       7.627   3.831  -8.861  0.00  0.00    +0.000 C 
ATOM     29  C   UNL     1       7.236   4.305 -10.252  0.00  0.00    +0.000 C 
ATOM     30  C   UNL     1       6.921   3.113 -11.135  0.00  0.00    +0.000 C 
ATOM     31  N   UNL     1       5.737   2.431 -10.617  0.00  0.00    +0.000 NA
ATOM     32  C   UNL     1       5.957   1.918  -9.261  0.00  0.00    +0.000 C 
ATOM     33  H   UNL     1       5.534   1.640 -11.231  0.00  0.00    +0.000 HD
ENDBRANCH  26  27
ENDBRANCH  24  26
ENDBRANCH  23  24
ENDBRANCH   4  23
TORSDOF 7
