REMARK  Name = 
REMARK  9 active torsions:
REMARK  status: ('A' for Active; 'I' for Inactive)
REMARK    1  A    between atoms: C_1  and  O_2
REMARK    2  A    between atoms: O_2  and  C_3
REMARK    3  A    between atoms: C_10  and  C_11
REMARK    4  A    between atoms: N_13  and  C_14
REMARK    5  A    between atoms: C_14  and  C_15
REMARK    6  A    between atoms: C_18  and  C_19
REMARK    7  A    between atoms: C_19  and  C_20
REMARK    8  A    between atoms: C_20  and  C_21
REMARK    9  A    between atoms: C_21  and  C_22
REMARK                            x       y       z     vdW  Elec       q    Type
REMARK                         _______ _______ _______ _____ _____    ______ ____
ROOT
ATOM      1  C   UNL     1       4.729   2.437   3.764  0.00  0.00    +0.000 C 
ENDROOT
BRANCH   1   2
ATOM      2  C   UNL     1       5.682   2.885   4.843  0.00  0.00    +0.000 A 
ATOM      3  C   UNL     1       5.829   4.245   5.144  0.00  0.00    +0.000 A 
ATOM      4  C   UNL     1       6.783   4.674   6.073  0.00  0.00    +0.000 A 
ATOM      5  C   UNL     1       7.612   3.751   6.722  0.00  0.00    +0.000 A 
ATOM      6  C   UNL     1       7.439   2.388   6.452  0.00  0.00    +0.000 A 
ATOM      7  C   UNL     1       6.491   1.959   5.515  0.00  0.00    +0.000 A 
BRANCH   5   8
ATOM      8  C   UNL     1       8.661   4.218   7.705  0.00  0.00    +0.000 C 
BRANCH   8   9
ATOM      9  C   UNL     1       8.097   4.342   9.122  0.00  0.00    +0.000 C 
BRANCH   9  10
ATOM     10  C   UNL     1       9.152   4.821  10.123  0.00  0.00    +0.000 C 
BRANCH  10  11
ATOM     11  C   UNL     1       8.572   4.950  11.506  0.00  0.00    +0.000 A 
ATOM     12  C   UNL     1       7.952   6.132  11.927  0.00  0.00    +0.000 A 
ATOM     13  C   UNL     1       7.392   6.204  13.199  0.00  0.00    +0.000 A 
ATOM     14  C   UNL     1       7.467   5.087  14.014  0.00  0.00    +0.000 A 
ATOM     15  N   UNL     1       8.054   3.929  13.644  0.00  0.00    +0.000 NA
ATOM     16  C   UNL     1       8.586   3.888  12.402  0.00  0.00    +0.000 A 
ENDBRANCH  10  11
ENDBRANCH   9  10
ENDBRANCH   8   9
ENDBRANCH   5   8
ENDBRANCH   1   2
BRANCH   1  19
ATOM     17  C   UNL     1       4.732   1.986   1.346  0.00  0.00    +0.000 C 
ATOM     18  O   UNL     1       3.575   1.576   1.377  0.00  0.00    +0.000 OA
ATOM     19  N   UNL     1       5.399   2.354   2.487  0.00  0.00    +0.000 N 
ATOM     20  H   UNL     1       6.299   2.811   2.400  0.00  0.00    +0.000 HD
BRANCH  17  28
ATOM     21  C   UNL     1       7.240   4.010   0.335  0.00  0.00    +0.000 A 
ATOM     22  N   UNL     1       8.225   4.715  -0.271  0.00  0.00    +0.000 NA
ATOM     23  C   UNL     1       8.575   4.415  -1.529  0.00  0.00    +0.000 A 
ATOM     24  C   UNL     1       7.996   3.410  -2.270  0.00  0.00    +0.000 A 
ATOM     25  C   UNL     1       6.980   2.680  -1.637  0.00  0.00    +0.000 A 
ATOM     26  S   UNL     1       6.090   1.391  -2.340  0.00  0.00    +0.000 S 
ATOM     27  C   UNL     1       5.142   1.199  -0.948  0.00  0.00    +0.000 A 
ATOM     28  C   UNL     1       5.487   2.056   0.085  0.00  0.00    +0.000 A 
ATOM     29  C   UNL     1       6.576   2.947  -0.321  0.00  0.00    +0.000 A 
BRANCH  21  31
ATOM     30  C   UNL     1       7.316   5.644   2.004  0.00  0.00    +0.000 C 
ATOM     31  O   UNL     1       6.924   4.325   1.640  0.00  0.00    +0.000 OA
ENDBRANCH  21  31
ENDBRANCH  17  28
ENDBRANCH   1  19
TORSDOF 8
