REMARK  Name = 
REMARK  9 active torsions:
REMARK  status: ('A' for Active; 'I' for Inactive)
REMARK    1  A    between atoms: C_1  and  O_2
REMARK    2  A    between atoms: O_2  and  C_3
REMARK    3  A    between atoms: C_10  and  C_11
REMARK    4  A    between atoms: N_13  and  C_14
REMARK    5  A    between atoms: C_14  and  C_15
REMARK    6  A    between atoms: C_18  and  N_19
REMARK    7  A    between atoms: N_19  and  C_20
REMARK    8  A    between atoms: C_20  and  C_21
REMARK    9  A    between atoms: C_21  and  C_22
REMARK                            x       y       z     vdW  Elec       q    Type
REMARK                         _______ _______ _______ _____ _____    ______ ____
ROOT
ATOM      1  C   UNL     1       2.549   3.236  -0.632  0.00  0.00    +0.000 C 
ENDROOT
BRANCH   1   2
ATOM      2  C   UNL     1       1.319   2.854  -1.413  0.00  0.00    +0.000 A 
ATOM      3  C   UNL     1       1.174   1.559  -1.922  0.00  0.00    +0.000 A 
ATOM      4  C   UNL     1      -0.022   1.165  -2.530  0.00  0.00    +0.000 A 
ATOM      5  C   UNL     1      -1.105   2.044  -2.624  0.00  0.00    +0.000 A 
ATOM      6  C   UNL     1      -0.901   3.376  -2.249  0.00  0.00    +0.000 A 
ATOM      7  C   UNL     1       0.292   3.778  -1.637  0.00  0.00    +0.000 A 
BRANCH   5   8
ATOM      8  N   UNL     1      -2.366   1.680  -3.115  0.00  0.00    +0.000 N 
ATOM      9  H   UNL     1      -2.460   1.974  -4.086  0.00  0.00    +0.000 HD
BRANCH   8  10
ATOM     10  C   UNL     1      -2.829   0.302  -2.902  0.00  0.00    +0.000 C 
BRANCH  10  11
ATOM     11  C   UNL     1      -2.991  -0.009  -1.405  0.00  0.00    +0.000 C 
BRANCH  11  12
ATOM     12  C   UNL     1      -3.421  -1.426  -1.147  0.00  0.00    +0.000 A 
ATOM     13  C   UNL     1      -4.767  -1.766  -0.998  0.00  0.00    +0.000 A 
ATOM     14  C   UNL     1      -5.117  -3.088  -0.742  0.00  0.00    +0.000 A 
ATOM     15  C   UNL     1      -4.107  -4.031  -0.652  0.00  0.00    +0.000 A 
ATOM     16  N   UNL     1      -2.797  -3.743  -0.803  0.00  0.00    +0.000 NA
ATOM     17  C   UNL     1      -2.484  -2.450  -1.042  0.00  0.00    +0.000 A 
ENDBRANCH  11  12
ENDBRANCH  10  11
ENDBRANCH   8  10
ENDBRANCH   5   8
ENDBRANCH   1   2
BRANCH   1  20
ATOM     18  C   UNL     1       4.794   4.160  -0.978  0.00  0.00    +0.000 C 
ATOM     19  O   UNL     1       5.056   4.047   0.217  0.00  0.00    +0.000 OA
ATOM     20  N   UNL     1       3.577   3.781  -1.477  0.00  0.00    +0.000 N 
ATOM     21  H   UNL     1       3.368   3.887  -2.460  0.00  0.00    +0.000 HD
BRANCH  18  29
ATOM     22  C   UNL     1       4.776   4.622  -4.386  0.00  0.00    +0.000 A 
ATOM     23  N   UNL     1       5.006   4.964  -5.669  0.00  0.00    +0.000 NA
ATOM     24  C   UNL     1       6.168   5.555  -5.960  0.00  0.00    +0.000 A 
ATOM     25  N   UNL     1       7.154   5.846  -5.115  0.00  0.00    +0.000 NA
ATOM     26  C   UNL     1       6.876   5.503  -3.846  0.00  0.00    +0.000 A 
ATOM     27  S   UNL     1       8.024   5.792  -2.628  0.00  0.00    +0.000 S 
ATOM     28  C   UNL     1       6.998   5.149  -1.439  0.00  0.00    +0.000 A 
ATOM     29  C   UNL     1       5.774   4.712  -1.926  0.00  0.00    +0.000 A 
ATOM     30  C   UNL     1       5.712   4.905  -3.375  0.00  0.00    +0.000 A 
BRANCH  22  32
ATOM     31  C   UNL     1       3.006   3.313  -5.185  0.00  0.00    +0.000 C 
ATOM     32  O   UNL     1       3.579   4.010  -4.082  0.00  0.00    +0.000 OA
ENDBRANCH  22  32
ENDBRANCH  18  29
ENDBRANCH   1  20
TORSDOF 8
