REMARK  Name = 
REMARK  5 active torsions:
REMARK  status: ('A' for Active; 'I' for Inactive)
REMARK    1  A    between atoms: C_2  and  C_4
REMARK    2  A    between atoms: C_7  and  O_8
REMARK    3  A    between atoms: O_8  and  C_9
REMARK    4  A    between atoms: C_9  and  C_10
REMARK    5  A    between atoms: C_15  and  C_16
REMARK                            x       y       z     vdW  Elec       q    Type
REMARK                         _______ _______ _______ _____ _____    ______ ____
ROOT
ATOM      1  C   UNL     1       5.132   1.818   5.627  0.00  0.00    +0.000 C 
ENDROOT
BRANCH   1   2
ATOM      2  C   UNL     1       6.124   2.458   6.577  0.00  0.00    +0.000 A 
ATOM      3  C   UNL     1       6.092   3.847   6.758  0.00  0.00    +0.000 A 
ATOM      4  C   UNL     1       6.952   4.455   7.664  0.00  0.00    +0.000 A 
ATOM      5  C   UNL     1       7.843   3.679   8.401  0.00  0.00    +0.000 A 
ATOM      6  F   UNL     1       8.664   4.320   9.247  0.00  0.00    +0.000 F 
ATOM      7  C   UNL     1       7.901   2.280   8.274  0.00  0.00    +0.000 A 
ATOM      8  C   UNL     1       7.015   1.689   7.349  0.00  0.00    +0.000 A 
BRANCH   7   9
ATOM      9  C   UNL     1       8.839   1.467   9.070  0.00  0.00    +0.000 A 
ATOM     10  C   UNL     1       9.212   1.777  10.370  0.00  0.00    +0.000 A 
ATOM     11  N   UNL     1      10.082   1.064  11.121  0.00  0.00    +0.000 NA
ATOM     12  C   UNL     1      10.601  -0.020  10.533  0.00  0.00    +0.000 A 
ATOM     13  N   UNL     1      10.322  -0.447   9.294  0.00  0.00    +0.000 NA
ATOM     14  C   UNL     1       9.448   0.314   8.597  0.00  0.00    +0.000 A 
ENDBRANCH   7   9
ENDBRANCH   1   2
BRANCH   1  15
ATOM     15  O   UNL     1       5.664   0.623   5.046  0.00  0.00    +0.000 OA
BRANCH  15  19
ATOM     16  C   UNL     1       3.051  -1.147   2.396  0.00  0.00    +0.000 A 
ATOM     17  C   UNL     1       4.299  -1.729   2.629  0.00  0.00    +0.000 A 
ATOM     18  C   UNL     1       5.177  -1.123   3.530  0.00  0.00    +0.000 A 
ATOM     19  C   UNL     1       4.771   0.042   4.167  0.00  0.00    +0.000 A 
ATOM     20  N   UNL     1       3.570   0.625   3.961  0.00  0.00    +0.000 NA
ATOM     21  C   UNL     1       2.742   0.025   3.074  0.00  0.00    +0.000 A 
BRANCH  16  23
ATOM     22  N   UNL     1       2.086  -3.032   1.203  0.00  0.00    +0.000 N 
ATOM     23  C   UNL     1       2.058  -1.689   1.447  0.00  0.00    +0.000 C 
ATOM     24  O   UNL     1       1.218  -0.968   0.926  0.00  0.00    +0.000 OA
ATOM     25  H   UNL     1       1.330  -3.397   0.636  0.00  0.00    +0.000 HD
ATOM     26  H   UNL     1       2.580  -3.685   1.796  0.00  0.00    +0.000 HD
ENDBRANCH  16  23
ENDBRANCH  15  19
ENDBRANCH   1  15
TORSDOF 5
