REMARK  Name = 
REMARK  6 active torsions:
REMARK  status: ('A' for Active; 'I' for Inactive)
REMARK    1  A    between atoms: C_1  and  N_2
REMARK    2  A    between atoms: C_3  and  C_5
REMARK    3  A    between atoms: C_8  and  O_9
REMARK    4  A    between atoms: O_9  and  C_10
REMARK    5  A    between atoms: C_10  and  C_11
REMARK    6  A    between atoms: C_15  and  C_16
REMARK                            x       y       z     vdW  Elec       q    Type
REMARK                         _______ _______ _______ _____ _____    ______ ____
ROOT
ATOM      1  O   UNL     1       8.813   1.426   0.539  0.00  0.00    +0.000 OA
ENDROOT
BRANCH   1   5
ATOM      2  C   UNL     1       4.666   1.007   0.663  0.00  0.00    +0.000 A 
ATOM      3  C   UNL     1       5.379   0.860  -0.533  0.00  0.00    +0.000 A 
ATOM      4  C   UNL     1       6.775   0.972  -0.530  0.00  0.00    +0.000 A 
ATOM      5  C   UNL     1       7.460   1.243   0.658  0.00  0.00    +0.000 A 
ATOM      6  C   UNL     1       6.750   1.331   1.857  0.00  0.00    +0.000 A 
ATOM      7  C   UNL     1       5.359   1.233   1.856  0.00  0.00    +0.000 A 
BRANCH   2  10
ATOM      8  C   UNL     1       1.092   0.135  -0.204  0.00  0.00    +0.000 C 
ATOM      9  N   UNL     1       2.528   0.230  -0.224  0.00  0.00    +0.000 N 
ATOM     10  C   UNL     1       3.181   0.992   0.721  0.00  0.00    +0.000 C 
ATOM     11  O   UNL     1       2.598   1.623   1.596  0.00  0.00    +0.000 OA
ATOM     12  H   UNL     1       3.051  -0.410  -0.805  0.00  0.00    +0.000 HD
ENDBRANCH   2  10
ENDBRANCH   1   5
BRANCH   1  13
ATOM     13  C   UNL     1       9.402   2.197   1.589  0.00  0.00    +0.000 C 
BRANCH  13  14
ATOM     14  C   UNL     1      10.707   2.779   1.128  0.00  0.00    +0.000 A 
ATOM     15  C   UNL     1      10.869   4.155   1.020  0.00  0.00    +0.000 A 
ATOM     16  N   UNL     1      12.021   4.755   0.650  0.00  0.00    +0.000 NA
ATOM     17  C   UNL     1      13.067   3.948   0.368  0.00  0.00    +0.000 A 
ATOM     18  C   UNL     1      13.017   2.564   0.433  0.00  0.00    +0.000 A 
ATOM     19  C   UNL     1      11.809   1.974   0.821  0.00  0.00    +0.000 A 
BRANCH  18  20
ATOM     20  C   UNL     1      14.224   1.740   0.108  0.00  0.00    +0.000 C 
ATOM     21  F   UNL     1      15.309   2.479  -0.255  0.00  0.00    +0.000 F 
ATOM     22  F   UNL     1      14.631   0.976   1.160  0.00  0.00    +0.000 F 
ATOM     23  F   UNL     1      14.004   0.873  -0.918  0.00  0.00    +0.000 F 
ENDBRANCH  18  20
ENDBRANCH  13  14
ENDBRANCH   1  13
TORSDOF 5
