REMARK  Name = 
REMARK  8 active torsions:
REMARK  status: ('A' for Active; 'I' for Inactive)
REMARK    1  A    between atoms: C_1  and  C_2
REMARK    2  A    between atoms: C_2  and  C_3
REMARK    3  A    between atoms: C_2  and  C_4
REMARK    4  A    between atoms: C_6  and  C_7
REMARK    5  A    between atoms: C_12  and  N_13
REMARK    6  A    between atoms: N_13  and  C_14
REMARK    7  A    between atoms: C_14  and  C_15
REMARK    8  A    between atoms: C_19  and  C_20
REMARK                            x       y       z     vdW  Elec       q    Type
REMARK                         _______ _______ _______ _____ _____    ______ ____
ROOT
ATOM      1  N   UNL     1       5.177   0.488  -0.567  0.00  0.00    +0.000 N 
ATOM      2  H   UNL     1       6.101   0.872  -0.389  0.00  0.00    +0.000 HD
ENDROOT
BRANCH   1   8
ATOM      3  C   UNL     1       4.109   2.623  -1.066  0.00  0.00    +0.000 A 
ATOM      4  C   UNL     1       3.165   3.598  -0.694  0.00  0.00    +0.000 A 
ATOM      5  C   UNL     1       2.383   3.442   0.450  0.00  0.00    +0.000 A 
ATOM      6  C   UNL     1       2.585   2.294   1.190  0.00  0.00    +0.000 A 
ATOM      7  N   UNL     1       3.470   1.320   0.858  0.00  0.00    +0.000 NA
ATOM      8  C   UNL     1       4.225   1.478  -0.253  0.00  0.00    +0.000 A 
BRANCH   5   9
ATOM      9  C   UNL     1       1.395   4.498   0.795  0.00  0.00    +0.000 C 
ATOM     10  N   UNL     1       0.668   4.383   1.944  0.00  0.00    +0.000 N 
ATOM     11  O   UNL     1       1.232   5.470   0.066  0.00  0.00    +0.000 OA
ATOM     12  H   UNL     1       0.737   3.644   2.625  0.00  0.00    +0.000 HD
ATOM     13  H   UNL     1       0.014   5.133   2.137  0.00  0.00    +0.000 HD
ENDBRANCH   5   9
BRANCH   3  15
ATOM     14  C   UNL     1       4.297   3.587  -3.447  0.00  0.00    +0.000 C 
ATOM     15  C   UNL     1       4.974   2.812  -2.306  0.00  0.00    +0.000 C 
ATOM     16  C   UNL     1       6.288   3.503  -1.930  0.00  0.00    +0.000 C 
ENDBRANCH   3  15
ENDBRANCH   1   8
BRANCH   1  17
ATOM     17  C   UNL     1       4.971  -0.785   0.108  0.00  0.00    +0.000 C 
BRANCH  17  18
ATOM     18  C   UNL     1       6.108  -1.738  -0.191  0.00  0.00    +0.000 A 
ATOM     19  C   UNL     1       6.134  -2.490  -1.366  0.00  0.00    +0.000 A 
ATOM     20  C   UNL     1       7.170  -3.390  -1.553  0.00  0.00    +0.000 A 
ATOM     21  N   UNL     1       8.162  -3.596  -0.663  0.00  0.00    +0.000 NA
ATOM     22  C   UNL     1       8.139  -2.876   0.488  0.00  0.00    +0.000 A 
ATOM     23  C   UNL     1       7.147  -1.923   0.733  0.00  0.00    +0.000 A 
BRANCH  22  24
ATOM     24  C   UNL     1       9.193  -3.215   1.468  0.00  0.00    +0.000 A 
ATOM     25  C   UNL     1      10.455  -3.690   1.050  0.00  0.00    +0.000 A 
ATOM     26  C   UNL     1      11.448  -4.054   1.969  0.00  0.00    +0.000 A 
ATOM     27  C   UNL     1      11.189  -3.952   3.327  0.00  0.00    +0.000 A 
ATOM     28  F   UNL     1      12.132  -4.308   4.210  0.00  0.00    +0.000 F 
ATOM     29  C   UNL     1       9.958  -3.489   3.768  0.00  0.00    +0.000 A 
ATOM     30  F   UNL     1       9.701  -3.398   5.080  0.00  0.00    +0.000 F 
ATOM     31  C   UNL     1       8.968  -3.124   2.857  0.00  0.00    +0.000 A 
ENDBRANCH  22  24
ENDBRANCH  17  18
ENDBRANCH   1  17
TORSDOF 6
