REMARK  Name = 
REMARK  8 active torsions:
REMARK  status: ('A' for Active; 'I' for Inactive)
REMARK    1  A    between atoms: C_1  and  O_2
REMARK    2  A    between atoms: O_2  and  C_3
REMARK    3  A    between atoms: C_8  and  C_9
REMARK    4  A    between atoms: N_11  and  C_12
REMARK    5  A    between atoms: C_12  and  C_13
REMARK    6  A    between atoms: C_16  and  C_17
REMARK    7  A    between atoms: C_17  and  N_18
REMARK    8  A    between atoms: C_19  and  C_21
REMARK                            x       y       z     vdW  Elec       q    Type
REMARK                         _______ _______ _______ _____ _____    ______ ____
ROOT
ATOM      1  C   UNL     1       3.025   4.055   0.641  0.00  0.00    +0.000 C 
ATOM      2  C   UNL     1       3.236   5.517   1.045  0.00  0.00    +0.000 C 
ATOM      3  C   UNL     1       2.172   6.439   0.469  0.00  0.00    +0.000 C 
ATOM      4  C   UNL     1       0.746   5.996   0.828  0.00  0.00    +0.000 C 
ATOM      5  C   UNL     1       0.534   4.534   0.411  0.00  0.00    +0.000 C 
ATOM      6  C   UNL     1       1.599   3.611   1.013  0.00  0.00    +0.000 C 
ENDROOT
BRANCH   1   7
ATOM      7  C   UNL     1       4.101   3.181   1.305  0.00  0.00    +0.000 C 
BRANCH   7  10
ATOM      8  C   UNL     1       6.076   3.034  -0.215  0.00  0.00    +0.000 C 
ATOM      9  O   UNL     1       5.536   2.183  -0.903  0.00  0.00    +0.000 OA
ATOM     10  N   UNL     1       5.446   3.566   0.905  0.00  0.00    +0.000 N 
ATOM     11  H   UNL     1       5.953   4.261   1.446  0.00  0.00    +0.000 HD
BRANCH   8  17
ATOM     12  C   UNL     1       8.260   3.082  -1.556  0.00  0.00    +0.000 A 
ATOM     13  C   UNL     1       9.550   3.604  -1.683  0.00  0.00    +0.000 A 
ATOM     14  C   UNL     1      10.010   4.565  -0.791  0.00  0.00    +0.000 A 
ATOM     15  C   UNL     1       9.156   4.983   0.215  0.00  0.00    +0.000 A 
ATOM     16  N   UNL     1       7.906   4.504   0.396  0.00  0.00    +0.000 NA
ATOM     17  C   UNL     1       7.471   3.554  -0.493  0.00  0.00    +0.000 A 
BRANCH  12  19
ATOM     18  C   UNL     1       8.708   1.382  -3.137  0.00  0.00    +0.000 C 
ATOM     19  O   UNL     1       7.752   2.201  -2.471  0.00  0.00    +0.000 OA
ENDBRANCH  12  19
ENDBRANCH   8  17
ENDBRANCH   7  10
ENDBRANCH   1   7
BRANCH   4  20
ATOM     20  C   UNL     1      -0.316   6.895   0.174  0.00  0.00    +0.000 C 
BRANCH  20  21
ATOM     21  N   UNL     1      -0.201   8.280   0.582  0.00  0.00    +0.000 N 
ATOM     22  C   UNL     1      -1.304   9.098   0.635  0.00  0.00    +0.000 C 
ATOM     23  O   UNL     1      -2.437   8.703   0.366  0.00  0.00    +0.000 OA
ATOM     24  H   UNL     1       0.700   8.731   0.457  0.00  0.00    +0.000 HD
BRANCH  22  25
ATOM     25  C   UNL     1      -1.068  10.468   1.099  0.00  0.00    +0.000 A 
ATOM     26  C   UNL     1      -2.062  11.155   1.780  0.00  0.00    +0.000 A 
ATOM     27  S   UNL     1      -1.605  12.736   2.234  0.00  0.00    +0.000 S 
ATOM     28  C   UNL     1      -0.077  12.566   1.503  0.00  0.00    +0.000 A 
ATOM     29  N   UNL     1       0.819  13.589   1.493  0.00  0.00    +0.000 NA
ATOM     30  C   UNL     1       1.927  13.325   0.883  0.00  0.00    +0.000 A 
ATOM     31  N   UNL     1       2.222  12.125   0.286  0.00  0.00    +0.000 N 
ATOM     32  C   UNL     1       1.348  11.071   0.273  0.00  0.00    +0.000 A 
ATOM     33  O   UNL     1       1.645  10.001  -0.267  0.00  0.00    +0.000 OA
ATOM     34  C   UNL     1       0.090  11.312   0.943  0.00  0.00    +0.000 A 
ATOM     35  H   UNL     1       3.111  11.979  -0.169  0.00  0.00    +0.000 HD
ENDBRANCH  22  25
ENDBRANCH  20  21
ENDBRANCH   4  20
TORSDOF 7
