REMARK  Name = 
REMARK  7 active torsions:
REMARK  status: ('A' for Active; 'I' for Inactive)
REMARK    1  A    between atoms: C_2  and  C_20
REMARK    2  A    between atoms: N_3  and  C_4
REMARK    3  A    between atoms: C_4  and  C_5
REMARK    4  A    between atoms: C_8  and  C_9
REMARK    5  A    between atoms: C_9  and  O_10
REMARK    6  A    between atoms: O_10  and  C_11
REMARK    7  A    between atoms: C_11  and  C_12
REMARK                            x       y       z     vdW  Elec       q    Type
REMARK                         _______ _______ _______ _____ _____    ______ ____
ROOT
ATOM      1  C   UNL     1       2.318  -1.581  -1.971  0.00  0.00    +0.000 C 
ENDROOT
BRANCH   1   2
ATOM      2  C   UNL     1       3.255  -2.379  -2.838  0.00  0.00    +0.000 A 
ATOM      3  C   UNL     1       4.280  -1.738  -3.543  0.00  0.00    +0.000 A 
ATOM      4  C   UNL     1       5.155  -2.470  -4.348  0.00  0.00    +0.000 A 
ATOM      5  C   UNL     1       5.015  -3.859  -4.474  0.00  0.00    +0.000 A 
ATOM      6  C   UNL     1       3.976  -4.497  -3.786  0.00  0.00    +0.000 A 
ATOM      7  C   UNL     1       3.100  -3.764  -2.980  0.00  0.00    +0.000 A 
BRANCH   5   8
ATOM      8  C   UNL     1       5.950  -4.644  -5.358  0.00  0.00    +0.000 C 
BRANCH   8   9
ATOM      9  O   UNL     1       7.284  -4.480  -4.886  0.00  0.00    +0.000 OA
BRANCH   9  10
ATOM     10  C   UNL     1       8.222  -5.211  -5.674  0.00  0.00    +0.000 C 
BRANCH  10  11
ATOM     11  C   UNL     1       9.611  -5.008  -5.137  0.00  0.00    +0.000 A 
ATOM     12  C   UNL     1      10.000  -3.827  -4.500  0.00  0.00    +0.000 A 
ATOM     13  C   UNL     1      11.305  -3.683  -4.037  0.00  0.00    +0.000 A 
ATOM     14  C   UNL     1      12.190  -4.726  -4.244  0.00  0.00    +0.000 A 
ATOM     15  N   UNL     1      11.864  -5.873  -4.877  0.00  0.00    +0.000 NA
ATOM     16  C   UNL     1      10.587  -5.985  -5.309  0.00  0.00    +0.000 A 
ENDBRANCH  10  11
ENDBRANCH   9  10
ENDBRANCH   8   9
ENDBRANCH   5   8
ENDBRANCH   1   2
BRANCH   1  19
ATOM     17  O   UNL     1       1.999   0.914  -3.249  0.00  0.00    +0.000 OA
ATOM     18  C   UNL     1       1.115   0.068  -3.356  0.00  0.00    +0.000 C 
ATOM     19  N   UNL     1       1.166  -1.143  -2.715  0.00  0.00    +0.000 N 
ATOM     20  H   UNL     1       0.523  -1.873  -2.997  0.00  0.00    +0.000 HD
BRANCH  18  21
ATOM     21  C   UNL     1      -0.101   0.326  -4.135  0.00  0.00    +0.000 A 
ATOM     22  C   UNL     1      -0.518   1.630  -4.360  0.00  0.00    +0.000 A 
ATOM     23  S   UNL     1      -1.962   1.737  -5.263  0.00  0.00    +0.000 S 
ATOM     24  C   UNL     1      -2.055   0.046  -5.419  0.00  0.00    +0.000 A 
ATOM     25  N   UNL     1      -3.065  -0.539  -6.118  0.00  0.00    +0.000 NA
ATOM     26  C   UNL     1      -2.989  -1.828  -6.190  0.00  0.00    +0.000 A 
ATOM     27  N   UNL     1      -1.997  -2.585  -5.621  0.00  0.00    +0.000 N 
ATOM     28  C   UNL     1      -1.001  -2.042  -4.845  0.00  0.00    +0.000 A 
ATOM     29  O   UNL     1      -0.213  -2.762  -4.241  0.00  0.00    +0.000 OA
ATOM     30  C   UNL     1      -1.014  -0.595  -4.772  0.00  0.00    +0.000 A 
ATOM     31  H   UNL     1      -2.011  -3.589  -5.687  0.00  0.00    +0.000 HD
ENDBRANCH  18  21
ENDBRANCH   1  19
TORSDOF 7
