REMARK  Name = 
REMARK  3 active torsions:
REMARK  status: ('A' for Active; 'I' for Inactive)
REMARK    1  A    between atoms: C_2  and  C_4
REMARK    2  A    between atoms: N_8  and  C_9
REMARK    3  A    between atoms: C_9  and  C_10
REMARK                            x       y       z     vdW  Elec       q    Type
REMARK                         _______ _______ _______ _____ _____    ______ ____
ROOT
ATOM      1  C   UNL     1       3.217   1.243   0.406  0.00  0.00    +0.000 A 
ATOM      2  C   UNL     1       3.735   1.833  -0.743  0.00  0.00    +0.000 A 
ATOM      3  C   UNL     1       4.433   3.034  -0.628  0.00  0.00    +0.000 A 
ATOM      4  C   UNL     1       4.578   3.640   0.620  0.00  0.00    +0.000 A 
ATOM      5  N   UNL     1       5.179   4.890   0.657  0.00  0.00    +0.000 N 
ATOM      6  N   UNL     1       4.071   3.081   1.735  0.00  0.00    +0.000 NA
ATOM      7  C   UNL     1       3.405   1.903   1.610  0.00  0.00    +0.000 A 
ATOM      8  H   UNL     1       6.106   4.899   0.251  0.00  0.00    +0.000 HD
ENDROOT
BRANCH   1  10
ATOM      9  N   UNL     1       2.689  -0.879  -0.650  0.00  0.00    +0.000 N 
ATOM     10  C   UNL     1       2.456  -0.023   0.389  0.00  0.00    +0.000 C 
ATOM     11  O   UNL     1       1.671  -0.311   1.282  0.00  0.00    +0.000 OA
ATOM     12  H   UNL     1       2.232  -1.782  -0.601  0.00  0.00    +0.000 HD
ATOM     13  H   UNL     1       3.479  -0.790  -1.273  0.00  0.00    +0.000 HD
ENDBRANCH   1  10
BRANCH   5  14
ATOM     14  C   UNL     1       5.043   5.697   1.856  0.00  0.00    +0.000 C 
BRANCH  14  15
ATOM     15  C   UNL     1       4.664   7.098   1.419  0.00  0.00    +0.000 A 
ATOM     16  C   UNL     1       3.519   7.289   0.621  0.00  0.00    +0.000 A 
ATOM     17  C   UNL     1       3.148   8.564   0.198  0.00  0.00    +0.000 A 
ATOM     18  C   UNL     1       3.913   9.654   0.584  0.00  0.00    +0.000 A 
ATOM     19  F   UNL     1       3.559  10.883   0.181  0.00  0.00    +0.000 F 
ATOM     20  C   UNL     1       5.041   9.494   1.382  0.00  0.00    +0.000 A 
ATOM     21  C   UNL     1       5.420   8.215   1.800  0.00  0.00    +0.000 A 
ENDBRANCH  14  15
ENDBRANCH   5  14
TORSDOF 3
