REMARK  Name = 
REMARK  6 active torsions:
REMARK  status: ('A' for Active; 'I' for Inactive)
REMARK    1  A    between atoms: N_1  and  C_2
REMARK    2  A    between atoms: C_7  and  C_8
REMARK    3  A    between atoms: C_8  and  C_9
REMARK    4  A    between atoms: C_12  and  C_13
REMARK    5  A    between atoms: C_13  and  N_14
REMARK    6  A    between atoms: C_15  and  C_17
REMARK                            x       y       z     vdW  Elec       q    Type
REMARK                         _______ _______ _______ _____ _____    ______ ____
ROOT
ATOM      1  C   UNL     1       0.145  -0.025   2.673  0.00  0.00    +0.000 A 
ATOM      2  C   UNL     1       0.794   0.937   1.895  0.00  0.00    +0.000 A 
ATOM      3  C   UNL     1       1.385   2.048   2.493  0.00  0.00    +0.000 A 
ATOM      4  C   UNL     1       1.348   2.179   3.877  0.00  0.00    +0.000 A 
ATOM      5  N   UNL     1       0.756   1.245   4.665  0.00  0.00    +0.000 NA
ATOM      6  C   UNL     1       0.186   0.170   4.051  0.00  0.00    +0.000 A 
ENDROOT
BRANCH   1   7
ATOM      7  C   UNL     1      -0.468  -1.241   2.023  0.00  0.00    +0.000 C 
BRANCH   7  13
ATOM      8  C   UNL     1      -3.055  -1.480   2.322  0.00  0.00    +0.000 C 
ATOM      9  C   UNL     1      -3.414  -0.253   3.161  0.00  0.00    +0.000 C 
ATOM     10  C   UNL     1      -3.664   1.006   2.331  0.00  0.00    +0.000 C 
ATOM     11  C   UNL     1      -2.626   1.266   1.242  0.00  0.00    +0.000 C 
ATOM     12  C   UNL     1      -2.174   0.023   0.477  0.00  0.00    +0.000 C 
ATOM     13  C   UNL     1      -1.879  -1.203   1.358  0.00  0.00    +0.000 C 
BRANCH   8  14
ATOM     14  N   UNL     1      -4.242  -1.878   1.546  0.00  0.00    +0.000 NA
ATOM     15  H   UNL     1      -5.028  -2.060   2.169  0.00  0.00    +0.000 HD
ATOM     16  H   UNL     1      -4.061  -2.745   1.043  0.00  0.00    +0.000 HD
ENDBRANCH   8  14
ENDBRANCH   7  13
ENDBRANCH   1   7
BRANCH   4  17
ATOM     17  C   UNL     1       1.981   3.400   4.521  0.00  0.00    +0.000 C 
BRANCH  17  18
ATOM     18  N   UNL     1       1.074   4.535   4.576  0.00  0.00    +0.000 N 
ATOM     19  C   UNL     1       1.498   5.814   4.308  0.00  0.00    +0.000 C 
ATOM     20  O   UNL     1       2.647   6.047   3.937  0.00  0.00    +0.000 OA
ATOM     21  H   UNL     1       0.194   4.384   5.061  0.00  0.00    +0.000 HD
BRANCH  19  22
ATOM     22  C   UNL     1       0.512   6.900   4.422  0.00  0.00    +0.000 A 
ATOM     23  C   UNL     1       0.727   8.085   3.728  0.00  0.00    +0.000 A 
ATOM     24  S   UNL     1      -0.498   9.249   3.946  0.00  0.00    +0.000 S 
ATOM     25  C   UNL     1      -1.341   8.234   5.018  0.00  0.00    +0.000 A 
ATOM     26  N   UNL     1      -2.487   8.652   5.616  0.00  0.00    +0.000 NA
ATOM     27  C   UNL     1      -3.000   7.802   6.447  0.00  0.00    +0.000 A 
ATOM     28  N   UNL     1      -2.471   6.566   6.713  0.00  0.00    +0.000 N 
ATOM     29  C   UNL     1      -1.339   6.082   6.097  0.00  0.00    +0.000 A 
ATOM     30  O   UNL     1      -0.928   4.946   6.307  0.00  0.00    +0.000 OA
ATOM     31  C   UNL     1      -0.709   7.011   5.182  0.00  0.00    +0.000 A 
ATOM     32  H   UNL     1      -2.928   5.941   7.360  0.00  0.00    +0.000 HD
ENDBRANCH  19  22
ENDBRANCH  17  18
ENDBRANCH   4  17
TORSDOF 6
