REMARK  Name = 
REMARK  4 active torsions:
REMARK  status: ('A' for Active; 'I' for Inactive)
REMARK    1  A    between atoms: N_1  and  C_2
REMARK    2  A    between atoms: C_2  and  C_3
REMARK    3  A    between atoms: C_6  and  C_7
REMARK    4  A    between atoms: C_7  and  C_8
REMARK                            x       y       z     vdW  Elec       q    Type
REMARK                         _______ _______ _______ _____ _____    ______ ____
ROOT
ATOM      1  C   UNL     1       3.869   3.967  -3.751  0.00  0.00    +0.000 C 
ENDROOT
BRANCH   1   2
ATOM      2  C   UNL     1       3.524   5.339  -3.271  0.00  0.00    +0.000 A 
ATOM      3  N   UNL     1       4.496   6.252  -3.090  0.00  0.00    +0.000 NA
ATOM      4  N   UNL     1       3.828   7.390  -2.824  0.00  0.00    +0.000 N 
ATOM      5  C   UNL     1       2.472   7.248  -2.816  0.00  0.00    +0.000 A 
ATOM      6  C   UNL     1       1.447   8.172  -2.632  0.00  0.00    +0.000 A 
ATOM      7  F   UNL     1       1.710   9.468  -2.422  0.00  0.00    +0.000 F 
ATOM      8  C   UNL     1       0.131   7.720  -2.701  0.00  0.00    +0.000 A 
ATOM      9  C   UNL     1      -0.141   6.370  -2.924  0.00  0.00    +0.000 A 
ATOM     10  C   UNL     1       0.899   5.449  -3.113  0.00  0.00    +0.000 A 
ATOM     11  C   UNL     1       2.231   5.906  -3.071  0.00  0.00    +0.000 A 
ATOM     12  H   UNL     1       4.357   8.243  -2.682  0.00  0.00    +0.000 HD
ENDBRANCH   1   2
BRANCH   1  16
ATOM     13  C   UNL     1       2.569   1.006  -0.951  0.00  0.00    +0.000 A 
ATOM     14  C   UNL     1       3.548   1.921  -0.562  0.00  0.00    +0.000 A 
ATOM     15  C   UNL     1       3.971   2.908  -1.452  0.00  0.00    +0.000 A 
ATOM     16  C   UNL     1       3.403   2.969  -2.721  0.00  0.00    +0.000 A 
ATOM     17  N   UNL     1       2.451   2.085  -3.121  0.00  0.00    +0.000 NA
ATOM     18  C   UNL     1       2.061   1.135  -2.239  0.00  0.00    +0.000 A 
BRANCH  13  19
ATOM     19  C   UNL     1       2.060  -0.053  -0.018  0.00  0.00    +0.000 C 
BRANCH  19  20
ATOM     20  N   UNL     1       2.296  -1.397  -0.531  0.00  0.00    +0.000 NA
ATOM     21  H   UNL     1       2.031  -2.077   0.179  0.00  0.00    +0.000 HD
ATOM     22  H   UNL     1       3.296  -1.523  -0.685  0.00  0.00    +0.000 HD
ENDBRANCH  19  20
ENDBRANCH  13  19
ENDBRANCH   1  16
TORSDOF 4
