REMARK  Name = 
REMARK  9 active torsions:
REMARK  status: ('A' for Active; 'I' for Inactive)
REMARK    1  A    between atoms: C_1  and  O_2
REMARK    2  A    between atoms: O_2  and  C_3
REMARK    3  A    between atoms: C_9  and  C_10
REMARK    4  A    between atoms: N_12  and  C_13
REMARK    5  A    between atoms: C_13  and  C_14
REMARK    6  A    between atoms: C_17  and  C_18
REMARK    7  A    between atoms: C_18  and  C_19
REMARK    8  A    between atoms: C_19  and  N_20
REMARK    9  A    between atoms: N_32  and  C_33
REMARK                            x       y       z     vdW  Elec       q    Type
REMARK                         _______ _______ _______ _____ _____    ______ ____
ROOT
ATOM      1  C   UNL     1       5.858  -3.803  -4.049  0.00  0.00    +0.000 A 
ATOM      2  C   UNL     1       7.046  -4.373  -3.581  0.00  0.00    +0.000 A 
ATOM      3  C   UNL     1       7.940  -4.991  -4.461  0.00  0.00    +0.000 A 
ATOM      4  C   UNL     1       7.674  -5.050  -5.836  0.00  0.00    +0.000 A 
ATOM      5  C   UNL     1       6.496  -4.444  -6.305  0.00  0.00    +0.000 A 
ATOM      6  C   UNL     1       5.602  -3.824  -5.425  0.00  0.00    +0.000 A 
ENDROOT
BRANCH   1   7
ATOM      7  C   UNL     1       4.887  -3.175  -3.084  0.00  0.00    +0.000 C 
BRANCH   7  10
ATOM      8  C   UNL     1       4.404  -1.020  -2.024  0.00  0.00    +0.000 C 
ATOM      9  O   UNL     1       3.390  -1.458  -1.486  0.00  0.00    +0.000 OA
ATOM     10  N   UNL     1       5.169  -1.779  -2.874  0.00  0.00    +0.000 N 
ATOM     11  H   UNL     1       6.050  -1.413  -3.214  0.00  0.00    +0.000 HD
BRANCH   8  18
ATOM     12  C   UNL     1       7.449   0.534  -2.262  0.00  0.00    +0.000 A 
ATOM     13  N   UNL     1       8.473   1.412  -2.251  0.00  0.00    +0.000 NA
ATOM     14  C   UNL     1       8.198   2.685  -1.915  0.00  0.00    +0.000 A 
ATOM     15  N   UNL     1       7.009   3.214  -1.586  0.00  0.00    +0.000 NA
ATOM     16  C   UNL     1       6.026   2.297  -1.614  0.00  0.00    +0.000 A 
ATOM     17  C   UNL     1       6.153   0.953  -1.941  0.00  0.00    +0.000 A 
ATOM     18  C   UNL     1       4.851   0.358  -1.821  0.00  0.00    +0.000 A 
ATOM     19  C   UNL     1       3.998   1.376  -1.411  0.00  0.00    +0.000 A 
ATOM     20  N   UNL     1       4.711   2.538  -1.318  0.00  0.00    +0.000 N 
ATOM     21  C   UNL     1       4.175   3.833  -0.968  0.00  0.00    +0.000 C 
BRANCH  12  23
ATOM     22  C   UNL     1       9.034  -1.166  -2.504  0.00  0.00    +0.000 C 
ATOM     23  O   UNL     1       7.676  -0.774  -2.638  0.00  0.00    +0.000 OA
ENDBRANCH  12  23
ENDBRANCH   8  18
ENDBRANCH   7  10
ENDBRANCH   1   7
BRANCH   4  24
ATOM     24  C   UNL     1       8.581  -5.745  -6.833  0.00  0.00    +0.000 C 
BRANCH  24  25
ATOM     25  C   UNL     1       9.832  -6.414  -6.248  0.00  0.00    +0.000 C 
BRANCH  25  26
ATOM     26  N   UNL     1      10.617  -7.062  -7.290  0.00  0.00    +0.000 N 
ATOM     27  C   UNL     1      11.755  -7.708  -6.826  0.00  0.00    +0.000 A 
ATOM     28  N   UNL     1      11.780  -8.231  -5.598  0.00  0.00    +0.000 NA
ATOM     29  C   UNL     1      12.909  -8.852  -5.228  0.00  0.00    +0.000 A 
ATOM     30 CL   UNL     1      12.873  -9.493  -3.637  0.00  0.00    +0.000 Cl
ATOM     31  C   UNL     1      14.020  -8.980  -6.006  0.00  0.00    +0.000 A 
ATOM     32  C   UNL     1      13.883  -8.397  -7.233  0.00  0.00    +0.000 A 
ATOM     33 CL   UNL     1      15.175  -8.436  -8.362  0.00  0.00    +0.000 Cl
ATOM     34  N   UNL     1      12.786  -7.756  -7.668  0.00  0.00    +0.000 NA
ATOM     35  H   UNL     1      10.906  -6.472  -8.064  0.00  0.00    +0.000 HD
ENDBRANCH  25  26
ENDBRANCH  24  25
ENDBRANCH   4  24
TORSDOF 7
