REMARK  Name = 
REMARK  4 active torsions:
REMARK  status: ('A' for Active; 'I' for Inactive)
REMARK    1  A    between atoms: C_2  and  C_4
REMARK    2  A    between atoms: C_7  and  C_8
REMARK    3  A    between atoms: C_8  and  N_9
REMARK    4  A    between atoms: C_12  and  N_13
REMARK                            x       y       z     vdW  Elec       q    Type
REMARK                         _______ _______ _______ _____ _____    ______ ____
ROOT
ATOM      1  N   UNL     1       4.366   4.436  -4.419  0.00  0.00    +0.000 N 
ATOM      2  C   UNL     1       5.005   5.257  -5.343  0.00  0.00    +0.000 A 
ATOM      3  C   UNL     1       5.161   4.906  -6.684  0.00  0.00    +0.000 A 
ATOM      4  C   UNL     1       5.817   5.750  -7.579  0.00  0.00    +0.000 A 
ATOM      5  C   UNL     1       6.259   6.971  -7.078  0.00  0.00    +0.000 A 
ATOM      6  C   UNL     1       6.017   7.282  -5.750  0.00  0.00    +0.000 A 
ATOM      7  N   UNL     1       5.418   6.446  -4.875  0.00  0.00    +0.000 NA
ATOM      8  H   UNL     1       4.628   4.784  -3.497  0.00  0.00    +0.000 HD
ENDROOT
BRANCH   4   9
ATOM      9  N   UNL     1       5.993   5.426  -8.912  0.00  0.00    +0.000 N 
ATOM     10  C   UNL     1       5.032   4.583  -9.641  0.00  0.00    +0.000 C 
ATOM     11  C   UNL     1       5.629   3.209  -9.971  0.00  0.00    +0.000 C 
ATOM     12  O   UNL     1       6.887   3.332 -10.652  0.00  0.00    +0.000 OA
ATOM     13  C   UNL     1       7.829   4.035  -9.825  0.00  0.00    +0.000 C 
ATOM     14  C   UNL     1       7.348   5.458  -9.490  0.00  0.00    +0.000 C 
ENDBRANCH   4   9
BRANCH   1  15
ATOM     15  C   UNL     1       4.507   2.999  -4.594  0.00  0.00    +0.000 C 
BRANCH  15  19
ATOM     16  C   UNL     1       2.537   0.618  -1.662  0.00  0.00    +0.000 A 
ATOM     17  C   UNL     1       1.778   1.515  -2.410  0.00  0.00    +0.000 A 
ATOM     18  C   UNL     1       2.414   2.324  -3.351  0.00  0.00    +0.000 A 
ATOM     19  C   UNL     1       3.795   2.215  -3.513  0.00  0.00    +0.000 A 
ATOM     20  N   UNL     1       4.547   1.361  -2.775  0.00  0.00    +0.000 NA
ATOM     21  C   UNL     1       3.909   0.591  -1.859  0.00  0.00    +0.000 A 
BRANCH  16  23
ATOM     22  N   UNL     1       0.655  -0.709  -0.905  0.00  0.00    +0.000 N 
ATOM     23  C   UNL     1       1.938  -0.304  -0.669  0.00  0.00    +0.000 C 
ATOM     24  O   UNL     1       2.580  -0.724   0.283  0.00  0.00    +0.000 OA
ATOM     25  H   UNL     1       0.289  -1.423  -0.291  0.00  0.00    +0.000 HD
ATOM     26  H   UNL     1       0.207  -0.594  -1.805  0.00  0.00    +0.000 HD
ENDBRANCH  16  23
ENDBRANCH  15  19
ENDBRANCH   1  15
TORSDOF 4
