REMARK  Name = 
REMARK  8 active torsions:
REMARK  status: ('A' for Active; 'I' for Inactive)
REMARK    1  A    between atoms: C_2  and  C_3
REMARK    2  A    between atoms: C_3  and  N_4
REMARK    3  A    between atoms: C_5  and  C_7
REMARK    4  A    between atoms: N_17  and  C_18
REMARK    5  A    between atoms: C_18  and  C_19
REMARK    6  A    between atoms: C_22  and  C_23
REMARK    7  A    between atoms: N_25  and  C_26
REMARK    8  A    between atoms: C_26  and  C_27
REMARK                            x       y       z     vdW  Elec       q    Type
REMARK                         _______ _______ _______ _____ _____    ______ ____
ROOT
ATOM      1  O   UNL     1       9.175   0.495   3.028  0.00  0.00    +0.000 OA
ATOM      2  C   UNL     1       8.228  -0.285   2.977  0.00  0.00    +0.000 C 
ATOM      3  N   UNL     1       6.937   0.102   2.685  0.00  0.00    +0.000 N 
ATOM      4  H   UNL     1       6.191  -0.555   2.898  0.00  0.00    +0.000 HD
ENDROOT
BRANCH   2   5
ATOM      5  C   UNL     1       8.366  -1.763   3.327  0.00  0.00    +0.000 C 
BRANCH   5   6
ATOM      6  N   UNL     1       8.234  -1.953   4.756  0.00  0.00    +0.000 N 
ATOM      7  C   UNL     1       7.027  -2.239   5.341  0.00  0.00    +0.000 C 
ATOM      8  O   UNL     1       6.002  -2.370   4.676  0.00  0.00    +0.000 OA
ATOM      9  H   UNL     1       8.981  -1.567   5.329  0.00  0.00    +0.000 HD
BRANCH   7  10
ATOM     10  C   UNL     1       7.039  -2.448   6.794  0.00  0.00    +0.000 A 
ATOM     11  C   UNL     1       6.086  -3.265   7.385  0.00  0.00    +0.000 A 
ATOM     12  S   UNL     1       6.284  -3.438   9.071  0.00  0.00    +0.000 S 
ATOM     13  C   UNL     1       7.623  -2.387   9.077  0.00  0.00    +0.000 A 
ATOM     14  N   UNL     1       8.269  -2.080  10.234  0.00  0.00    +0.000 NA
ATOM     15  C   UNL     1       9.240  -1.239  10.095  0.00  0.00    +0.000 A 
ATOM     16  N   UNL     1       9.627  -0.682   8.903  0.00  0.00    +0.000 N 
ATOM     17  C   UNL     1       9.035  -1.002   7.705  0.00  0.00    +0.000 A 
ATOM     18  O   UNL     1       9.451  -0.552   6.644  0.00  0.00    +0.000 OA
ATOM     19  C   UNL     1       7.922  -1.924   7.809  0.00  0.00    +0.000 A 
ATOM     20  H   UNL     1      10.404  -0.040   8.859  0.00  0.00    +0.000 HD
ENDBRANCH   7  10
ENDBRANCH   5   6
ENDBRANCH   2   5
BRANCH   3  21
ATOM     21  C   UNL     1       6.624   1.492   2.432  0.00  0.00    +0.000 C 
BRANCH  21  22
ATOM     22  C   UNL     1       5.130   1.728   2.166  0.00  0.00    +0.000 C 
ATOM     23  C   UNL     1       4.241   1.399   3.380  0.00  0.00    +0.000 C 
ATOM     24  C   UNL     1       4.353   2.426   4.507  0.00  0.00    +0.000 C 
ATOM     25  C   UNL     1       4.062   3.851   4.020  0.00  0.00    +0.000 C 
ATOM     26  C   UNL     1       4.970   4.201   2.832  0.00  0.00    +0.000 C 
ATOM     27  C   UNL     1       4.888   3.172   1.698  0.00  0.00    +0.000 C 
BRANCH  25  28
ATOM     28  C   UNL     1       2.585   4.060   3.670  0.00  0.00    +0.000 C 
ATOM     29  O   UNL     1       2.199   4.441   2.566  0.00  0.00    +0.000 OA
ATOM     30  N   UNL     1       1.698   3.804   4.687  0.00  0.00    +0.000 N 
ATOM     31  H   UNL     1       2.024   3.770   5.649  0.00  0.00    +0.000 HD
BRANCH  30  32
ATOM     32  C   UNL     1       0.287   4.014   4.465  0.00  0.00    +0.000 C 
BRANCH  32  33
ATOM     33  C   UNL     1      -0.500   3.731   5.713  0.00  0.00    +0.000 C 
ATOM     34  N   UNL     1      -0.033   3.917   6.903  0.00  0.00    +0.000 NA
ATOM     35  O   UNL     1      -1.078   3.647   7.814  0.00  0.00    +0.000 OA
ATOM     36  C   UNL     1      -2.190   3.101   7.097  0.00  0.00    +0.000 C 
ATOM     37  C   UNL     1      -1.919   3.314   5.634  0.00  0.00    +0.000 C 
ENDBRANCH  32  33
ENDBRANCH  30  32
ENDBRANCH  25  28
ENDBRANCH  21  22
ENDBRANCH   3  21
TORSDOF 8
