REMARK  Name = 
REMARK  7 active torsions:
REMARK  status: ('A' for Active; 'I' for Inactive)
REMARK    1  A    between atoms: C_1  and  C_2
REMARK    2  A    between atoms: C_7  and  C_8
REMARK    3  A    between atoms: N_10  and  C_11
REMARK    4  A    between atoms: C_11  and  C_12
REMARK    5  A    between atoms: C_15  and  O_16
REMARK    6  A    between atoms: O_16  and  C_17
REMARK    7  A    between atoms: C_17  and  C_18
REMARK                            x       y       z     vdW  Elec       q    Type
REMARK                         _______ _______ _______ _____ _____    ______ ____
ROOT
ATOM      1  C   UNL     1       7.828   0.728   0.031  0.00  0.00    +0.000 C 
ATOM      2  O   UNL     1       8.991   0.326   0.033  0.00  0.00    +0.000 OA
ATOM      3  N   UNL     1       7.543   2.068   0.044  0.00  0.00    +0.000 N 
ATOM      4  H   UNL     1       6.583   2.400   0.024  0.00  0.00    +0.000 HD
ENDROOT
BRANCH   1  11
ATOM      5  C   UNL     1       1.031  -0.183   0.058  0.00  0.00    +0.000 C 
ATOM      6  C   UNL     1       2.532  -0.205   0.041  0.00  0.00    +0.000 A 
ATOM      7  N   UNL     1       3.189  -1.321   0.030  0.00  0.00    +0.000 NA
ATOM      8  C   UNL     1       4.543  -1.183   0.020  0.00  0.00    +0.000 A 
ATOM      9  S   UNL     1       5.554  -2.551   0.007  0.00  0.00    +0.000 S 
ATOM     10  C   UNL     1       6.955  -1.581   0.008  0.00  0.00    +0.000 A 
ATOM     11  C   UNL     1       6.697  -0.215   0.018  0.00  0.00    +0.000 A 
ATOM     12  C   UNL     1       5.266  -0.002   0.018  0.00  0.00    +0.000 A 
ATOM     13  C   UNL     1       4.484   1.219   0.019  0.00  0.00    +0.000 A 
ATOM     14  O   UNL     1       4.961   2.348  -0.003  0.00  0.00    +0.000 OA
ATOM     15  N   UNL     1       3.123   1.033   0.041  0.00  0.00    +0.000 N 
ATOM     16  H   UNL     1       2.567   1.875   0.040  0.00  0.00    +0.000 HD
ENDBRANCH   1  11
BRANCH   3  17
ATOM     17  C   UNL     1       8.591   3.056   0.063  0.00  0.00    +0.000 C 
BRANCH  17  18
ATOM     18  C   UNL     1       8.037   4.455   0.033  0.00  0.00    +0.000 A 
ATOM     19  C   UNL     1       7.760   5.155   1.215  0.00  0.00    +0.000 A 
ATOM     20  C   UNL     1       7.278   6.466   1.164  0.00  0.00    +0.000 A 
ATOM     21  C   UNL     1       7.069   7.095  -0.065  0.00  0.00    +0.000 A 
ATOM     22  C   UNL     1       7.276   6.377  -1.243  0.00  0.00    +0.000 A 
ATOM     23  C   UNL     1       7.764   5.071  -1.195  0.00  0.00    +0.000 A 
BRANCH  21  24
ATOM     24  O   UNL     1       6.670   8.403  -0.011  0.00  0.00    +0.000 OA
BRANCH  24  25
ATOM     25  C   UNL     1       6.943   9.162  -1.195  0.00  0.00    +0.000 C 
BRANCH  25  26
ATOM     26  C   UNL     1       6.950  10.633  -0.879  0.00  0.00    +0.000 A 
ATOM     27  C   UNL     1       7.794  11.130   0.109  0.00  0.00    +0.000 A 
ATOM     28  N   UNL     1       7.886  12.449   0.403  0.00  0.00    +0.000 NA
ATOM     29  C   UNL     1       7.092  13.257  -0.332  0.00  0.00    +0.000 A 
ATOM     30  C   UNL     1       6.255  12.776  -1.324  0.00  0.00    +0.000 A 
ATOM     31  N   UNL     1       6.170  11.460  -1.625  0.00  0.00    +0.000 NA
ENDBRANCH  25  26
ENDBRANCH  24  25
ENDBRANCH  21  24
ENDBRANCH  17  18
ENDBRANCH   3  17
TORSDOF 6
