REMARK  Name = 
REMARK  11 active torsions:
REMARK  status: ('A' for Active; 'I' for Inactive)
REMARK    1  A    between atoms: C_1  and  O_2
REMARK    2  A    between atoms: O_2  and  C_3
REMARK    3  A    between atoms: C_3  and  C_4
REMARK    4  A    between atoms: C_4  and  N_5
REMARK    5  A    between atoms: C_4  and  C_28
REMARK    6  A    between atoms: N_5  and  C_6
REMARK    7  A    between atoms: C_6  and  C_7
REMARK    8  A    between atoms: C_10  and  C_11
REMARK    9  A    between atoms: C_11  and  N_12
REMARK   10  A    between atoms: C_13  and  C_15
REMARK   11  A    between atoms: N_21  and  C_22
REMARK                            x       y       z     vdW  Elec       q    Type
REMARK                         _______ _______ _______ _____ _____    ______ ____
ROOT
ATOM      1  C   UNL     1       4.885  -2.907  -0.080  0.00  0.00    +0.000 A 
ATOM      2  C   UNL     1       6.253  -3.164  -0.161  0.00  0.00    +0.000 A 
ATOM      3  C   UNL     1       6.702  -4.477  -0.199  0.00  0.00    +0.000 A 
ATOM      4  C   UNL     1       5.768  -5.507  -0.148  0.00  0.00    +0.000 A 
ATOM      5  N   UNL     1       4.433  -5.285  -0.041  0.00  0.00    +0.000 NA
ATOM      6  C   UNL     1       4.024  -3.996  -0.018  0.00  0.00    +0.000 A 
ENDROOT
BRANCH   1   7
ATOM      7  C   UNL     1       4.355  -1.505  -0.002  0.00  0.00    +0.000 C 
BRANCH   7   8
ATOM      8  N   UNL     1       4.721  -0.718  -1.186  0.00  0.00    +0.000 NA
ATOM      9  H   UNL     1       5.741  -0.650  -1.212  0.00  0.00    +0.000 HD
BRANCH   8  10
ATOM     10  C   UNL     1       4.221   0.679  -1.113  0.00  0.00    +0.000 C 
BRANCH  10  11
ATOM     11  C   UNL     1       2.703   0.757  -1.047  0.00  0.00    +0.000 A 
ATOM     12  C   UNL     1       1.934   0.686  -2.205  0.00  0.00    +0.000 A 
ATOM     13  N   UNL     1       0.578   0.656  -2.178  0.00  0.00    +0.000 NA
ATOM     14  C   UNL     1       0.021   0.665  -0.946  0.00  0.00    +0.000 A 
ATOM     15  C   UNL     1       0.774   0.719   0.208  0.00  0.00    +0.000 A 
ATOM     16  N   UNL     1       2.121   0.776   0.183  0.00  0.00    +0.000 NA
ENDBRANCH  10  11
BRANCH  10  17
ATOM     17  C   UNL     1       4.837   1.498   0.046  0.00  0.00    +0.000 C 
BRANCH  17  19
ATOM     18  C   UNL     1       6.820   2.214   1.071  0.00  0.00    +0.000 C 
ATOM     19  O   UNL     1       6.269   1.459  -0.006  0.00  0.00    +0.000 OA
ENDBRANCH  17  19
ENDBRANCH  10  17
ENDBRANCH   8  10
ENDBRANCH   7   8
ENDBRANCH   1   7
BRANCH   4  20
ATOM     20  C   UNL     1       6.239  -6.935  -0.151  0.00  0.00    +0.000 C 
BRANCH  20  21
ATOM     21  N   UNL     1       6.479  -7.410   1.183  0.00  0.00    +0.000 N 
ATOM     22  C   UNL     1       7.716  -7.416   1.777  0.00  0.00    +0.000 C 
ATOM     23  O   UNL     1       8.698  -6.867   1.286  0.00  0.00    +0.000 OA
ATOM     24  H   UNL     1       5.703  -7.875   1.625  0.00  0.00    +0.000 HD
BRANCH  22  25
ATOM     25  C   UNL     1       7.763  -8.090   3.076  0.00  0.00    +0.000 A 
ATOM     26  C   UNL     1       8.653  -7.688   4.059  0.00  0.00    +0.000 A 
ATOM     27  S   UNL     1       8.506  -8.588   5.505  0.00  0.00    +0.000 S 
ATOM     28  C   UNL     1       7.282  -9.570   4.841  0.00  0.00    +0.000 A 
ATOM     29  N   UNL     1       6.709 -10.568   5.563  0.00  0.00    +0.000 NA
ATOM     30  C   UNL     1       5.813 -11.246   4.922  0.00  0.00    +0.000 A 
ATOM     31  N   UNL     1       5.430 -11.033   3.613  0.00  0.00    +0.000 N 
ATOM     32  C   UNL     1       4.409 -11.851   2.988  0.00  0.00    +0.000 C 
ATOM     33  C   UNL     1       5.997 -10.022   2.847  0.00  0.00    +0.000 A 
ATOM     34  O   UNL     1       5.658  -9.813   1.686  0.00  0.00    +0.000 OA
ATOM     35  C   UNL     1       6.992  -9.221   3.538  0.00  0.00    +0.000 A 
ENDBRANCH  22  25
ENDBRANCH  20  21
ENDBRANCH   4  20
TORSDOF 9
