REMARK  Name = 
REMARK  4 active torsions:
REMARK  status: ('A' for Active; 'I' for Inactive)
REMARK    1  A    between atoms: C_2  and  C_4
REMARK    2  A    between atoms: C_7  and  C_8
REMARK    3  A    between atoms: C_8  and  N_9
REMARK    4  A    between atoms: C_14  and  C_15
REMARK                            x       y       z     vdW  Elec       q    Type
REMARK                         _______ _______ _______ _____ _____    ______ ____
ROOT
ATOM      1  N   UNL     1       4.750   0.330   6.088  0.00  0.00    +0.000 N 
ATOM      2  C   UNL     1       5.487   0.458   7.281  0.00  0.00    +0.000 A 
ATOM      3  C   UNL     1       4.895   0.034   8.466  0.00  0.00    +0.000 A 
ATOM      4  C   UNL     1       5.597   0.158   9.660  0.00  0.00    +0.000 A 
ATOM      5  C   UNL     1       6.883   0.686   9.638  0.00  0.00    +0.000 A 
ATOM      6  C   UNL     1       7.431   1.078   8.420  0.00  0.00    +0.000 A 
ATOM      7  N   UNL     1       6.726   0.989   7.262  0.00  0.00    +0.000 NA
ATOM      8  H   UNL     1       4.475  -0.641   5.977  0.00  0.00    +0.000 HD
ENDROOT
BRANCH   6   9
ATOM      9  C   UNL     1       8.815   1.578   8.286  0.00  0.00    +0.000 A 
ATOM     10  C   UNL     1       9.855   1.105   9.109  0.00  0.00    +0.000 A 
ATOM     11  C   UNL     1      11.168   1.565   8.964  0.00  0.00    +0.000 A 
ATOM     12  C   UNL     1      11.472   2.509   7.988  0.00  0.00    +0.000 A 
ATOM     13  C   UNL     1      10.465   2.989   7.155  0.00  0.00    +0.000 A 
ATOM     14  C   UNL     1       9.153   2.527   7.303  0.00  0.00    +0.000 A 
ENDBRANCH   6   9
BRANCH   1  15
ATOM     15  C   UNL     1       5.467   0.817   4.914  0.00  0.00    +0.000 C 
BRANCH  15  19
ATOM     16  C   UNL     1       3.205   0.069   1.300  0.00  0.00    +0.000 A 
ATOM     17  C   UNL     1       2.655   0.854   2.320  0.00  0.00    +0.000 A 
ATOM     18  C   UNL     1       3.382   1.088   3.492  0.00  0.00    +0.000 A 
ATOM     19  C   UNL     1       4.662   0.537   3.662  0.00  0.00    +0.000 A 
ATOM     20  C   UNL     1       5.198  -0.259   2.640  0.00  0.00    +0.000 A 
ATOM     21  C   UNL     1       4.473  -0.496   1.470  0.00  0.00    +0.000 A 
BRANCH  16  23
ATOM     22  N   UNL     1       1.560   0.722  -0.376  0.00  0.00    +0.000 N 
ATOM     23  C   UNL     1       2.475  -0.207   0.036  0.00  0.00    +0.000 C 
ATOM     24  O   UNL     1       2.706  -1.203  -0.638  0.00  0.00    +0.000 OA
ATOM     25  H   UNL     1       1.159   0.575  -1.294  0.00  0.00    +0.000 HD
ATOM     26  H   UNL     1       1.537   1.658   0.001  0.00  0.00    +0.000 HD
ENDBRANCH  16  23
ENDBRANCH  15  19
ENDBRANCH   1  15
TORSDOF 4
