REMARK  Name = 
REMARK  5 active torsions:
REMARK  status: ('A' for Active; 'I' for Inactive)
REMARK    1  A    between atoms: C_2  and  C_4
REMARK    2  A    between atoms: C_7  and  C_8
REMARK    3  A    between atoms: C_8  and  S_9
REMARK    4  A    between atoms: S_9  and  C_10
REMARK    5  A    between atoms: C_14  and  N_15
REMARK                            x       y       z     vdW  Elec       q    Type
REMARK                         _______ _______ _______ _____ _____    ______ ____
ROOT
ATOM      1  S   UNL     1       5.104  -5.630   2.283  0.00  0.00    +0.000 S 
ENDROOT
BRANCH   1   2
ATOM      2  C   UNL     1       6.276  -6.627   3.171  0.00  0.00    +0.000 A 
ATOM      3  N   UNL     1       7.223  -6.039   3.912  0.00  0.00    +0.000 NA
ATOM      4  C   UNL     1       8.025  -6.879   4.586  0.00  0.00    +0.000 A 
ATOM      5  C   UNL     1       7.916  -8.253   4.534  0.00  0.00    +0.000 A 
ATOM      6  C   UNL     1       6.932  -8.782   3.721  0.00  0.00    +0.000 A 
ATOM      7  N   UNL     1       6.110  -7.959   3.048  0.00  0.00    +0.000 NA
BRANCH   6   8
ATOM      8  N   UNL     1       6.708 -10.158   3.673  0.00  0.00    +0.000 N 
ATOM      9  C   UNL     1       5.583 -10.605   2.821  0.00  0.00    +0.000 C 
ATOM     10  C   UNL     1       5.220 -12.054   3.196  0.00  0.00    +0.000 C 
ATOM     11  O   UNL     1       6.350 -12.936   3.079  0.00  0.00    +0.000 OA
ATOM     12  C   UNL     1       7.424 -12.487   3.921  0.00  0.00    +0.000 C 
ATOM     13  C   UNL     1       7.868 -11.061   3.553  0.00  0.00    +0.000 C 
ENDBRANCH   6   8
ENDBRANCH   1   2
BRANCH   1  14
ATOM     14  C   UNL     1       5.677  -3.942   2.688  0.00  0.00    +0.000 C 
BRANCH  14  18
ATOM     15  C   UNL     1       3.264  -0.936   0.803  0.00  0.00    +0.000 A 
ATOM     16  C   UNL     1       3.956  -1.844   0.005  0.00  0.00    +0.000 A 
ATOM     17  C   UNL     1       4.752  -2.820   0.610  0.00  0.00    +0.000 A 
ATOM     18  C   UNL     1       4.828  -2.883   2.003  0.00  0.00    +0.000 A 
ATOM     19  N   UNL     1       4.171  -1.993   2.792  0.00  0.00    +0.000 NA
ATOM     20  C   UNL     1       3.415  -1.043   2.178  0.00  0.00    +0.000 A 
BRANCH  15  22
ATOM     21  N   UNL     1       1.863  -0.058  -0.983  0.00  0.00    +0.000 N 
ATOM     22  C   UNL     1       2.416   0.143   0.252  0.00  0.00    +0.000 C 
ATOM     23  O   UNL     1       2.191   1.166   0.885  0.00  0.00    +0.000 OA
ATOM     24  H   UNL     1       1.210   0.648  -1.303  0.00  0.00    +0.000 HD
ATOM     25  H   UNL     1       1.816  -0.967  -1.420  0.00  0.00    +0.000 HD
ENDBRANCH  15  22
ENDBRANCH  14  18
ENDBRANCH   1  14
TORSDOF 5
