REMARK  Name = 
REMARK  6 active torsions:
REMARK  status: ('A' for Active; 'I' for Inactive)
REMARK    1  A    between atoms: N_1  and  C_2
REMARK    2  A    between atoms: C_2  and  C_3
REMARK    3  A    between atoms: C_3  and  C_4
REMARK    4  A    between atoms: C_7  and  C_8
REMARK    5  A    between atoms: C_8  and  O_9
REMARK    6  A    between atoms: O_9  and  C_10
REMARK                            x       y       z     vdW  Elec       q    Type
REMARK                         _______ _______ _______ _____ _____    ______ ____
ROOT
ATOM      1  C   UNL     1       4.433  -1.205  -0.764  0.00  0.00    +0.000 A 
ATOM      2  C   UNL     1       5.179  -1.728   0.302  0.00  0.00    +0.000 A 
ATOM      3  C   UNL     1       6.578  -1.698   0.277  0.00  0.00    +0.000 A 
ATOM      4  C   UNL     1       7.258  -1.163  -0.825  0.00  0.00    +0.000 A 
ATOM      5  C   UNL     1       6.507  -0.642  -1.880  0.00  0.00    +0.000 A 
ATOM      6  F   UNL     1       7.128  -0.123  -2.950  0.00  0.00    +0.000 F 
ATOM      7  C   UNL     1       5.114  -0.664  -1.860  0.00  0.00    +0.000 A 
ENDROOT
BRANCH   1   8
ATOM      8  C   UNL     1       2.924  -1.239  -0.733  0.00  0.00    +0.000 C 
BRANCH   8   9
ATOM      9  C   UNL     1       2.362  -2.531  -1.334  0.00  0.00    +0.000 C 
BRANCH   9  10
ATOM     10  N   UNL     1       0.900  -2.535  -1.297  0.00  0.00    +0.000 NA
ATOM     11  H   UNL     1       0.554  -3.391  -1.730  0.00  0.00    +0.000 HD
ATOM     12  H   UNL     1       0.539  -1.766  -1.861  0.00  0.00    +0.000 HD
ENDBRANCH   9  10
ENDBRANCH   8   9
ENDBRANCH   1   8
BRANCH   4  13
ATOM     13  C   UNL     1       8.762  -1.144  -0.873  0.00  0.00    +0.000 C 
BRANCH  13  14
ATOM     14  O   UNL     1       9.240   0.049  -0.251  0.00  0.00    +0.000 OA
BRANCH  14  15
ATOM     15  C   UNL     1      10.595   0.224  -0.230  0.00  0.00    +0.000 A 
ATOM     16  C   UNL     1      11.555  -0.680  -0.680  0.00  0.00    +0.000 A 
ATOM     17  C   UNL     1      12.909  -0.354  -0.585  0.00  0.00    +0.000 A 
ATOM     18  C   UNL     1      13.251   0.871  -0.038  0.00  0.00    +0.000 A 
ATOM     19 CL   UNL     1      14.892   1.340   0.109  0.00  0.00    +0.000 Cl
ATOM     20  N   UNL     1      12.362   1.774   0.414  0.00  0.00    +0.000 NA
ATOM     21  C   UNL     1      11.056   1.426   0.306  0.00  0.00    +0.000 A 
ENDBRANCH  14  15
ENDBRANCH  13  14
ENDBRANCH   4  13
TORSDOF 6
