REMARK  Name = 
REMARK  7 active torsions:
REMARK  status: ('A' for Active; 'I' for Inactive)
REMARK    1  A    between atoms: C_1  and  C_2
REMARK    2  A    between atoms: C_2  and  N_3
REMARK    3  A    between atoms: C_2  and  C_16
REMARK    4  A    between atoms: C_4  and  C_6
REMARK    5  A    between atoms: C_19  and  C_20
REMARK    6  A    between atoms: C_20  and  N_21
REMARK    7  A    between atoms: C_22  and  C_24
REMARK                            x       y       z     vdW  Elec       q    Type
REMARK                         _______ _______ _______ _____ _____    ______ ____
ROOT
ATOM      1  C   UNL     1       3.320   0.194   1.309  0.00  0.00    +0.000 C 
ATOM      2  C   UNL     1       2.568  -0.105   0.004  0.00  0.00    +0.000 C 
ENDROOT
BRANCH   2   3
ATOM      3  C   UNL     1       2.978   0.889  -1.084  0.00  0.00    +0.000 A 
ATOM      4  C   UNL     1       2.761   2.258  -0.917  0.00  0.00    +0.000 A 
ATOM      5  C   UNL     1       3.092   3.134  -1.950  0.00  0.00    +0.000 A 
ATOM      6  C   UNL     1       3.635   2.636  -3.134  0.00  0.00    +0.000 A 
ATOM      7  C   UNL     1       3.819   1.261  -3.215  0.00  0.00    +0.000 A 
ATOM      8  N   UNL     1       3.506   0.386  -2.228  0.00  0.00    +0.000 NA
BRANCH   6   9
ATOM      9  C   UNL     1       3.966   3.536  -4.285  0.00  0.00    +0.000 C 
BRANCH   9  10
ATOM     10  N   UNL     1       2.858   3.671  -5.196  0.00  0.00    +0.000 N 
ATOM     11  C   UNL     1       2.929   4.490  -6.303  0.00  0.00    +0.000 C 
ATOM     12  O   UNL     1       3.930   5.154  -6.559  0.00  0.00    +0.000 OA
ATOM     13  H   UNL     1       2.015   3.122  -5.069  0.00  0.00    +0.000 HD
BRANCH  11  14
ATOM     14  C   UNL     1       1.730   4.497  -7.117  0.00  0.00    +0.000 A 
ATOM     15  C   UNL     1       1.440   5.149  -8.302  0.00  0.00    +0.000 A 
ATOM     16  C   UNL     1       0.112   4.801  -8.645  0.00  0.00    +0.000 A 
ATOM     17  C   UNL     1      -0.330   3.959  -7.653  0.00  0.00    +0.000 A 
ATOM     18  O   UNL     1       0.640   3.763  -6.724  0.00  0.00    +0.000 OA
ENDBRANCH  11  14
ENDBRANCH   9  10
ENDBRANCH   6   9
ENDBRANCH   2   3
BRANCH   2  19
ATOM     19  N   UNL     1       1.116  -0.085   0.179  0.00  0.00    +0.000 N 
ATOM     20  C   UNL     1       0.462  -0.947   1.023  0.00  0.00    +0.000 C 
ATOM     21  O   UNL     1       1.049  -1.745   1.747  0.00  0.00    +0.000 OA
ATOM     22  H   UNL     1       0.589   0.273  -0.614  0.00  0.00    +0.000 HD
BRANCH  20  23
ATOM     23  C   UNL     1      -0.997  -0.813   1.083  0.00  0.00    +0.000 A 
ATOM     24  C   UNL     1      -1.666  -1.113   2.262  0.00  0.00    +0.000 A 
ATOM     25  S   UNL     1      -3.354  -0.899   2.164  0.00  0.00    +0.000 S 
ATOM     26  C   UNL     1      -3.255  -0.445   0.527  0.00  0.00    +0.000 A 
ATOM     27  N   UNL     1      -4.375  -0.163  -0.191  0.00  0.00    +0.000 NA
ATOM     28  C   UNL     1      -4.155   0.120  -1.432  0.00  0.00    +0.000 A 
ATOM     29  N   UNL     1      -2.914   0.167  -2.015  0.00  0.00    +0.000 N 
ATOM     30  C   UNL     1      -1.751  -0.041  -1.310  0.00  0.00    +0.000 A 
ATOM     31  O   UNL     1      -0.650   0.119  -1.825  0.00  0.00    +0.000 OA
ATOM     32  C   UNL     1      -1.949  -0.418   0.074  0.00  0.00    +0.000 A 
ATOM     33  H   UNL     1      -2.809   0.422  -2.985  0.00  0.00    +0.000 HD
ENDBRANCH  20  23
ENDBRANCH   2  19
TORSDOF 6
