REMARK  Name = 
REMARK  10 active torsions:
REMARK  status: ('A' for Active; 'I' for Inactive)
REMARK    1  A    between atoms: N_1  and  C_2
REMARK    2  A    between atoms: C_2  and  C_3
REMARK    3  A    between atoms: C_3  and  N_4
REMARK    4  A    between atoms: N_4  and  C_5
REMARK    5  A    between atoms: C_5  and  C_6
REMARK    6  A    between atoms: C_9  and  C_10
REMARK    7  A    between atoms: C_10  and  N_11
REMARK    8  A    between atoms: N_11  and  C_12
REMARK    9  A    between atoms: C_12  and  C_13
REMARK   10  A    between atoms: C_20  and  C_22
REMARK                            x       y       z     vdW  Elec       q    Type
REMARK                         _______ _______ _______ _____ _____    ______ ____
ROOT
ATOM      1  N   UNL     1       4.536  -0.882  -1.008  0.00  0.00    +0.000 N 
ATOM      2  C   UNL     1       4.819  -2.268  -0.907  0.00  0.00    +0.000 C 
ATOM      3  O   UNL     1       4.330  -3.049  -1.726  0.00  0.00    +0.000 OA
ENDROOT
BRANCH   2   4
ATOM      4  C   UNL     1       5.649  -2.825   0.190  0.00  0.00    +0.000 A 
ATOM      5  C   UNL     1       5.703  -2.372   1.496  0.00  0.00    +0.000 A 
ATOM      6  S   UNL     1       6.591  -3.346   2.573  0.00  0.00    +0.000 S 
ATOM      7  C   UNL     1       6.981  -4.420   1.331  0.00  0.00    +0.000 A 
ATOM      8  N   UNL     1       7.734  -5.520   1.586  0.00  0.00    +0.000 NA
ATOM      9  C   UNL     1       7.939  -6.264   0.557  0.00  0.00    +0.000 A 
ATOM     10  N   UNL     1       7.493  -6.002  -0.707  0.00  0.00    +0.000 N 
ATOM     11  C   UNL     1       6.828  -4.837  -1.042  0.00  0.00    +0.000 A 
ATOM     12  O   UNL     1       6.665  -4.525  -2.215  0.00  0.00    +0.000 OA
ATOM     13  C   UNL     1       6.466  -4.022   0.105  0.00  0.00    +0.000 A 
ATOM     14  H   UNL     1       7.768  -6.586  -1.484  0.00  0.00    +0.000 HD
ENDBRANCH   2   4
BRANCH   1  15
ATOM     15  C   UNL     1       3.804  -0.476  -2.232  0.00  0.00    +0.000 C 
BRANCH  15  16
ATOM     16  C   UNL     1       3.169   0.934  -2.337  0.00  0.00    +0.000 C 
BRANCH  16  17
ATOM     17  N   UNL     1       4.110   2.057  -2.427  0.00  0.00    +0.000 NA
ATOM     18  H   UNL     1       3.581   2.929  -2.462  0.00  0.00    +0.000 HD
ATOM     19  H   UNL     1       4.639   2.004  -3.296  0.00  0.00    +0.000 HD
ENDBRANCH  16  17
ENDBRANCH  15  16
ENDBRANCH   1  15
BRANCH   1  20
ATOM     20  C   UNL     1       5.259   0.151  -0.269  0.00  0.00    +0.000 C 
BRANCH  20  21
ATOM     21  C   UNL     1       4.409   0.903   0.740  0.00  0.00    +0.000 A 
ATOM     22  C   UNL     1       3.559   0.259   1.651  0.00  0.00    +0.000 A 
ATOM     23  C   UNL     1       2.848   0.975   2.614  0.00  0.00    +0.000 A 
ATOM     24  C   UNL     1       2.887   2.371   2.631  0.00  0.00    +0.000 A 
ATOM     25  C   UNL     1       3.713   3.026   1.709  0.00  0.00    +0.000 A 
ATOM     26  C   UNL     1       4.489   2.300   0.802  0.00  0.00    +0.000 A 
BRANCH  24  27
ATOM     27  C   UNL     1       1.939   3.160   3.501  0.00  0.00    +0.000 C 
BRANCH  27  28
ATOM     28  N   UNL     1       1.697   2.525   4.798  0.00  0.00    +0.000 NA
ATOM     29  H   UNL     1       2.573   2.494   5.318  0.00  0.00    +0.000 HD
BRANCH  28  30
ATOM     30  C   UNL     1       0.680   3.256   5.550  0.00  0.00    +0.000 C 
BRANCH  30  31
ATOM     31  C   UNL     1       0.425   2.608   6.921  0.00  0.00    +0.000 C 
ATOM     32  C   UNL     1      -0.137   1.192   6.838  0.00  0.00    +0.000 C 
ATOM     33  C   UNL     1      -1.632   1.418   6.770  0.00  0.00    +0.000 C 
ATOM     34  N   UNL     1      -1.875   2.530   7.694  0.00  0.00    +0.000 NA
ATOM     35  C   UNL     1      -0.668   3.372   7.676  0.00  0.00    +0.000 C 
ATOM     36  H   UNL     1      -1.985   2.148   8.634  0.00  0.00    +0.000 HD
ENDBRANCH  30  31
ENDBRANCH  28  30
ENDBRANCH  27  28
ENDBRANCH  24  27
ENDBRANCH  20  21
ENDBRANCH   1  20
TORSDOF 10
