REMARK  Name = 
REMARK  7 active torsions:
REMARK  status: ('A' for Active; 'I' for Inactive)
REMARK    1  A    between atoms: C_1  and  O_2
REMARK    2  A    between atoms: O_2  and  C_3
REMARK    3  A    between atoms: C_8  and  C_9
REMARK    4  A    between atoms: C_13  and  C_14
REMARK    5  A    between atoms: C_14  and  O_15
REMARK    6  A    between atoms: O_15  and  C_16
REMARK    7  A    between atoms: C_19  and  C_20
REMARK                            x       y       z     vdW  Elec       q    Type
REMARK                         _______ _______ _______ _____ _____    ______ ____
ROOT
ATOM      1  C   UNL     1       5.975   2.365   2.096  0.00  0.00    +0.000 A 
ATOM      2  C   UNL     1       7.255   1.992   2.499  0.00  0.00    +0.000 A 
ATOM      3  N   UNL     1       8.333   2.821   2.449  0.00  0.00    +0.000 NA
ATOM      4  C   UNL     1       8.088   4.064   1.977  0.00  0.00    +0.000 A 
ATOM      5  C   UNL     1       6.832   4.463   1.547  0.00  0.00    +0.000 A 
ATOM      6  N   UNL     1       5.768   3.617   1.605  0.00  0.00    +0.000 NA
ENDROOT
BRANCH   1  12
ATOM      7  C   UNL     1       3.982  -0.595   2.816  0.00  0.00    +0.000 A 
ATOM      8  N   UNL     1       2.727  -0.313   2.437  0.00  0.00    +0.000 NA
ATOM      9  C   UNL     1       2.539   0.912   1.913  0.00  0.00    +0.000 A 
ATOM     10  C   UNL     1       3.539   1.840   1.761  0.00  0.00    +0.000 A 
ATOM     11  F   UNL     1       3.251   3.034   1.228  0.00  0.00    +0.000 F 
ATOM     12  C   UNL     1       4.806   1.467   2.179  0.00  0.00    +0.000 A 
ATOM     13  N   UNL     1       5.035   0.233   2.710  0.00  0.00    +0.000 NA
BRANCH   7  15
ATOM     14  C   UNL     1       3.111  -2.630   3.553  0.00  0.00    +0.000 C 
ATOM     15  O   UNL     1       4.269  -1.824   3.367  0.00  0.00    +0.000 OA
ENDBRANCH   7  15
ENDBRANCH   1  12
BRANCH   5  16
ATOM     16  C   UNL     1       6.593   5.843   0.995  0.00  0.00    +0.000 C 
BRANCH  16  17
ATOM     17  O   UNL     1       6.344   6.754   2.069  0.00  0.00    +0.000 OA
BRANCH  17  18
ATOM     18  C   UNL     1       6.052   8.039   1.712  0.00  0.00    +0.000 A 
ATOM     19  C   UNL     1       5.559   8.458   0.477  0.00  0.00    +0.000 A 
ATOM     20  C   UNL     1       5.307   9.813   0.258  0.00  0.00    +0.000 A 
ATOM     21  C   UNL     1       5.554  10.708   1.290  0.00  0.00    +0.000 A 
ATOM     22  N   UNL     1       6.017  10.339   2.516  0.00  0.00    +0.000 NA
ATOM     23  C   UNL     1       6.241   9.013   2.691  0.00  0.00    +0.000 A 
BRANCH  21  24
ATOM     24  C   UNL     1       5.306  12.168   1.076  0.00  0.00    +0.000 C 
ATOM     25  N   UNL     1       5.582  12.973   2.147  0.00  0.00    +0.000 N 
ATOM     26  O   UNL     1       4.888  12.621   0.016  0.00  0.00    +0.000 OA
ATOM     27  H   UNL     1       5.922  12.560   3.008  0.00  0.00    +0.000 HD
ATOM     28  H   UNL     1       5.434  13.969   2.077  0.00  0.00    +0.000 HD
ENDBRANCH  21  24
ENDBRANCH  17  18
ENDBRANCH  16  17
ENDBRANCH   5  16
TORSDOF 6
