REMARK  Name = 
REMARK  5 active torsions:
REMARK  status: ('A' for Active; 'I' for Inactive)
REMARK    1  A    between atoms: N_1  and  C_2
REMARK    2  A    between atoms: C_2  and  C_3
REMARK    3  A    between atoms: C_3  and  C_4
REMARK    4  A    between atoms: C_7  and  C_8
REMARK    5  A    between atoms: C_8  and  C_9
REMARK                            x       y       z     vdW  Elec       q    Type
REMARK                         _______ _______ _______ _____ _____    ______ ____
ROOT
ATOM      1  C   UNL     1       4.442  -1.289  -0.274  0.00  0.00    +0.000 A 
ATOM      2  C   UNL     1       5.156  -0.087  -0.344  0.00  0.00    +0.000 A 
ATOM      3  C   UNL     1       6.552  -0.083  -0.263  0.00  0.00    +0.000 A 
ATOM      4  C   UNL     1       7.267  -1.280  -0.117  0.00  0.00    +0.000 A 
ATOM      5  C   UNL     1       6.549  -2.485  -0.074  0.00  0.00    +0.000 A 
ATOM      6  C   UNL     1       5.153  -2.489  -0.154  0.00  0.00    +0.000 A 
ENDROOT
BRANCH   1   7
ATOM      7  C   UNL     1       2.933  -1.294  -0.321  0.00  0.00    +0.000 C 
BRANCH   7   8
ATOM      8  C   UNL     1       2.386  -1.436  -1.745  0.00  0.00    +0.000 C 
BRANCH   8   9
ATOM      9  N   UNL     1       0.923  -1.447  -1.745  0.00  0.00    +0.000 NA
ATOM     10  H   UNL     1       0.585  -1.519  -2.705  0.00  0.00    +0.000 HD
ATOM     11  H   UNL     1       0.572  -0.559  -1.387  0.00  0.00    +0.000 HD
ENDBRANCH   8   9
ENDBRANCH   7   8
ENDBRANCH   1   7
BRANCH   4  12
ATOM     12  C   UNL     1       8.774  -1.279  -0.042  0.00  0.00    +0.000 C 
BRANCH  12  13
ATOM     13  C   UNL     1       9.158  -1.205   1.411  0.00  0.00    +0.000 A 
ATOM     14  C   UNL     1       9.282  -2.313   2.230  0.00  0.00    +0.000 A 
ATOM     15  S   UNL     1       9.808  -1.933   3.802  0.00  0.00    +0.000 S 
ATOM     16  C   UNL     1       9.910  -0.257   3.441  0.00  0.00    +0.000 A 
ATOM     17  C   UNL     1      10.326   0.765   4.301  0.00  0.00    +0.000 A 
ATOM     18  N   UNL     1      10.352   2.047   3.875  0.00  0.00    +0.000 NA
ATOM     19  C   UNL     1       9.971   2.316   2.615  0.00  0.00    +0.000 A 
ATOM     20  C   UNL     1       9.554   1.357   1.705  0.00  0.00    +0.000 A 
ATOM     21  C   UNL     1       9.519   0.010   2.125  0.00  0.00    +0.000 A 
ENDBRANCH  12  13
ENDBRANCH   4  12
TORSDOF 5
