REMARK  Name = 
REMARK  9 active torsions:
REMARK  status: ('A' for Active; 'I' for Inactive)
REMARK    1  A    between atoms: C_2  and  C_22
REMARK    2  A    between atoms: N_3  and  C_4
REMARK    3  A    between atoms: C_4  and  C_5
REMARK    4  A    between atoms: C_8  and  C_9
REMARK    5  A    between atoms: C_9  and  N_10
REMARK    6  A    between atoms: N_10  and  C_11
REMARK    7  A    between atoms: C_11  and  C_12
REMARK    8  A    between atoms: C_15  and  C_16
REMARK    9  A    between atoms: C_16  and  O_17
REMARK                            x       y       z     vdW  Elec       q    Type
REMARK                         _______ _______ _______ _____ _____    ______ ____
ROOT
ATOM      1  C   UNL     1       9.562  -1.088  -9.422  0.00  0.00    +0.000 A 
ATOM      2  C   UNL     1       9.607  -1.331  -8.048  0.00  0.00    +0.000 A 
ATOM      3  C   UNL     1       9.511  -2.640  -7.572  0.00  0.00    +0.000 A 
ATOM      4  C   UNL     1       9.360  -3.680  -8.486  0.00  0.00    +0.000 A 
ATOM      5  N   UNL     1       9.286  -3.466  -9.826  0.00  0.00    +0.000 NA
ATOM      6  C   UNL     1       9.381  -2.187 -10.256  0.00  0.00    +0.000 A 
ENDROOT
BRANCH   1   7
ATOM      7  C   UNL     1       9.669   0.300  -9.984  0.00  0.00    +0.000 C 
BRANCH   7  10
ATOM      8  O   UNL     1       9.235   2.940 -10.738  0.00  0.00    +0.000 OA
ATOM      9  C   UNL     1       8.259   2.239 -10.485  0.00  0.00    +0.000 C 
ATOM     10  N   UNL     1       8.385   0.950 -10.029  0.00  0.00    +0.000 N 
ATOM     11  H   UNL     1       7.569   0.347 -10.035  0.00  0.00    +0.000 HD
BRANCH   9  12
ATOM     12  C   UNL     1       6.889   2.748 -10.617  0.00  0.00    +0.000 A 
ATOM     13  C   UNL     1       6.647   4.115 -10.569  0.00  0.00    +0.000 A 
ATOM     14  S   UNL     1       4.998   4.523 -10.723  0.00  0.00    +0.000 S 
ATOM     15  C   UNL     1       4.552   2.890 -10.908  0.00  0.00    +0.000 A 
ATOM     16  N   UNL     1       3.257   2.537 -11.114  0.00  0.00    +0.000 NA
ATOM     17  C   UNL     1       3.068   1.268 -11.273  0.00  0.00    +0.000 A 
ATOM     18  N   UNL     1       4.059   0.322 -11.237  0.00  0.00    +0.000 N 
ATOM     19  C   UNL     1       5.375   0.630 -10.998  0.00  0.00    +0.000 A 
ATOM     20  O   UNL     1       6.231  -0.246 -10.917  0.00  0.00    +0.000 OA
ATOM     21  C   UNL     1       5.645   2.045 -10.831  0.00  0.00    +0.000 A 
ATOM     22  H   UNL     1       3.845  -0.658 -11.359  0.00  0.00    +0.000 HD
ENDBRANCH   9  12
ENDBRANCH   7  10
ENDBRANCH   1   7
BRANCH   4  23
ATOM     23  C   UNL     1       9.288  -5.120  -8.003  0.00  0.00    +0.000 C 
BRANCH  23  24
ATOM     24  N   UNL     1      10.282  -6.016  -8.620  0.00  0.00    +0.000 NA
ATOM     25  H   UNL     1      10.179  -5.910  -9.632  0.00  0.00    +0.000 HD
BRANCH  24  26
ATOM     26  C   UNL     1      11.656  -5.665  -8.247  0.00  0.00    +0.000 C 
BRANCH  26  27
ATOM     27  C   UNL     1      12.685  -6.611  -8.913  0.00  0.00    +0.000 C 
ATOM     28  C   UNL     1      14.124  -6.192  -8.564  0.00  0.00    +0.000 C 
ATOM     29  C   UNL     1      14.506  -6.513  -7.117  0.00  0.00    +0.000 C 
ATOM     30  C   UNL     1      14.278  -7.988  -6.744  0.00  0.00    +0.000 C 
ATOM     31  C   UNL     1      12.862  -8.441  -7.131  0.00  0.00    +0.000 C 
ATOM     32  C   UNL     1      12.483  -8.097  -8.572  0.00  0.00    +0.000 C 
BRANCH  30  33
ATOM     33  C   UNL     1      15.351  -8.913  -7.339  0.00  0.00    +0.000 C 
BRANCH  33  34
ATOM     34  O   UNL     1      16.633  -8.572  -6.821  0.00  0.00    +0.000 OA
ATOM     35  H   UNL     1      16.890  -9.268  -6.193  0.00  0.00    +0.000 HD
ENDBRANCH  33  34
ENDBRANCH  30  33
ENDBRANCH  26  27
ENDBRANCH  24  26
ENDBRANCH  23  24
ENDBRANCH   4  23
TORSDOF 9
