REMARK  Name = 
REMARK  4 active torsions:
REMARK  status: ('A' for Active; 'I' for Inactive)
REMARK    1  A    between atoms: C_2  and  C_4
REMARK    2  A    between atoms: C_7  and  N_8
REMARK    3  A    between atoms: N_8  and  C_9
REMARK    4  A    between atoms: C_9  and  C_10
REMARK                            x       y       z     vdW  Elec       q    Type
REMARK                         _______ _______ _______ _____ _____    ______ ____
ROOT
ATOM      1  C   UNL     1       3.038   0.729  -1.069  0.00  0.00    +0.000 A 
ATOM      2  C   UNL     1       2.468   0.922  -2.330  0.00  0.00    +0.000 A 
ATOM      3  C   UNL     1       3.213   1.516  -3.357  0.00  0.00    +0.000 A 
ATOM      4  C   UNL     1       4.528   1.929  -3.138  0.00  0.00    +0.000 A 
ATOM      5  C   UNL     1       5.099   1.705  -1.878  0.00  0.00    +0.000 A 
ATOM      6  C   UNL     1       4.356   1.132  -0.842  0.00  0.00    +0.000 A 
ENDROOT
BRANCH   1   8
ATOM      7  N   UNL     1       1.274  -0.748  -0.266  0.00  0.00    +0.000 N 
ATOM      8  C   UNL     1       2.277   0.122   0.056  0.00  0.00    +0.000 C 
ATOM      9  O   UNL     1       2.555   0.359   1.224  0.00  0.00    +0.000 OA
ATOM     10  H   UNL     1       0.843  -1.234   0.509  0.00  0.00    +0.000 HD
ATOM     11  H   UNL     1       1.202  -1.169  -1.182  0.00  0.00    +0.000 HD
ENDBRANCH   1   8
BRANCH   4  12
ATOM     12  N   UNL     1       5.352   2.471  -4.148  0.00  0.00    +0.000 N 
ATOM     13  H   UNL     1       5.982   1.750  -4.507  0.00  0.00    +0.000 HD
BRANCH  12  14
ATOM     14  C   UNL     1       4.815   3.319  -5.247  0.00  0.00    +0.000 C 
ATOM     15  C   UNL     1       5.570   4.631  -5.446  0.00  0.00    +0.000 C 
ATOM     16  C   UNL     1       4.164   4.658  -4.944  0.00  0.00    +0.000 C 
BRANCH  14  17
ATOM     17  C   UNL     1       4.436   2.570  -6.536  0.00  0.00    +0.000 A 
ATOM     18  C   UNL     1       3.120   2.560  -7.014  0.00  0.00    +0.000 A 
ATOM     19  C   UNL     1       2.818   1.946  -8.226  0.00  0.00    +0.000 A 
ATOM     20  C   UNL     1       3.835   1.332  -8.942  0.00  0.00    +0.000 A 
ATOM     21  C   UNL     1       5.108   1.347  -8.401  0.00  0.00    +0.000 A 
ATOM     22  N   UNL     1       5.425   1.938  -7.227  0.00  0.00    +0.000 NA
ENDBRANCH  14  17
ENDBRANCH  12  14
ENDBRANCH   4  12
TORSDOF 4
