REMARK  Name = 
REMARK  4 active torsions:
REMARK  status: ('A' for Active; 'I' for Inactive)
REMARK    1  A    between atoms: N_1  and  C_2
REMARK    2  A    between atoms: C_2  and  C_3
REMARK    3  A    between atoms: N_6  and  C_7
REMARK    4  A    between atoms: C_7  and  C_8
REMARK                            x       y       z     vdW  Elec       q    Type
REMARK                         _______ _______ _______ _____ _____    ______ ____
ROOT
ATOM      1  C   UNL     1       0.811   4.394  -0.549  0.00  0.00    +0.000 C 
ENDROOT
BRANCH   1   2
ATOM      2  C   UNL     1      -0.259   4.873  -1.491  0.00  0.00    +0.000 A 
ATOM      3  N   UNL     1      -1.549   4.599  -1.230  0.00  0.00    +0.000 NA
ATOM      4  N   UNL     1      -2.221   5.272  -2.177  0.00  0.00    +0.000 N 
ATOM      5  C   UNL     1      -1.427   5.993  -3.026  0.00  0.00    +0.000 A 
ATOM      6  C   UNL     1      -1.742   6.858  -4.079  0.00  0.00    +0.000 A 
ATOM      7  C   UNL     1      -0.669   7.449  -4.755  0.00  0.00    +0.000 A 
ATOM      8  C   UNL     1       0.648   7.160  -4.400  0.00  0.00    +0.000 A 
ATOM      9 CL   UNL     1       1.939   7.903  -5.267  0.00  0.00    +0.000 Cl
ATOM     10  C   UNL     1       0.944   6.290  -3.345  0.00  0.00    +0.000 A 
ATOM     11  C   UNL     1      -0.123   5.714  -2.631  0.00  0.00    +0.000 A 
ATOM     12  H   UNL     1      -3.230   5.218  -2.174  0.00  0.00    +0.000 HD
ENDBRANCH   1   2
BRANCH   1  16
ATOM     13  C   UNL     1       3.108   0.777  -1.055  0.00  0.00    +0.000 C 
ATOM     14  C   UNL     1       3.799   2.065  -0.584  0.00  0.00    +0.000 C 
ATOM     15  C   UNL     1       2.793   3.125  -0.129  0.00  0.00    +0.000 C 
ATOM     16  N   UNL     1       1.779   3.444  -1.153  0.00  0.00    +0.000 NA
ATOM     17  C   UNL     1       1.096   2.230  -1.636  0.00  0.00    +0.000 C 
ATOM     18  C   UNL     1       2.078   1.162  -2.125  0.00  0.00    +0.000 C 
BRANCH  13  19
ATOM     19  C   UNL     1       2.510   0.003   0.138  0.00  0.00    +0.000 C 
BRANCH  19  20
ATOM     20  N   UNL     1       1.857  -1.234  -0.274  0.00  0.00    +0.000 NA
ATOM     21  H   UNL     1       1.506  -1.723   0.549  0.00  0.00    +0.000 HD
ATOM     22  H   UNL     1       2.540  -1.856  -0.706  0.00  0.00    +0.000 HD
ENDBRANCH  19  20
ENDBRANCH  13  19
ENDBRANCH   1  16
TORSDOF 4
