REMARK  Name = 
REMARK  6 active torsions:
REMARK  status: ('A' for Active; 'I' for Inactive)
REMARK    1  A    between atoms: N_1  and  C_2
REMARK    2  A    between atoms: C_2  and  C_3
REMARK    3  A    between atoms: C_3  and  N_4
REMARK    4  A    between atoms: C_3  and  C_5
REMARK    5  A    between atoms: N_7  and  C_8
REMARK    6  A    between atoms: C_8  and  C_9
REMARK                            x       y       z     vdW  Elec       q    Type
REMARK                         _______ _______ _______ _____ _____    ______ ____
ROOT
ATOM      1  C   UNL     1       4.454  -1.038   0.996  0.00  0.00    +0.000 A 
ATOM      2  C   UNL     1       5.270  -1.833   0.212  0.00  0.00    +0.000 A 
ATOM      3  N   UNL     1       6.582  -1.555   0.508  0.00  0.00    +0.000 N 
ATOM      4  C   UNL     1       6.649  -0.558   1.459  0.00  0.00    +0.000 A 
ATOM      5  C   UNL     1       7.749   0.086   2.051  0.00  0.00    +0.000 A 
ATOM      6  C   UNL     1       7.502   1.092   2.990  0.00  0.00    +0.000 A 
ATOM      7  C   UNL     1       6.203   1.444   3.335  0.00  0.00    +0.000 A 
ATOM      8  C   UNL     1       5.113   0.797   2.744  0.00  0.00    +0.000 A 
ATOM      9  C   UNL     1       5.331  -0.220   1.787  0.00  0.00    +0.000 A 
ENDROOT
BRANCH   1  10
ATOM     10  C   UNL     1       2.954  -0.966   0.999  0.00  0.00    +0.000 C 
BRANCH  10  11
ATOM     11  N   UNL     1       2.374  -2.298   0.759  0.00  0.00    +0.000 NA
ATOM     12  H   UNL     1       2.672  -2.609  -0.162  0.00  0.00    +0.000 HD
ATOM     13  H   UNL     1       1.368  -2.140   0.640  0.00  0.00    +0.000 HD
ENDBRANCH  10  11
BRANCH  10  14
ATOM     14  C   UNL     1       2.422   0.056  -0.045  0.00  0.00    +0.000 C 
BRANCH  14  15
ATOM     15  N   UNL     1       0.949   0.103  -0.081  0.00  0.00    +0.000 NA
ATOM     16  H   UNL     1       0.662   0.824  -0.744  0.00  0.00    +0.000 HD
ATOM     17  H   UNL     1       0.609   0.413   0.831  0.00  0.00    +0.000 HD
ENDBRANCH  14  15
ENDBRANCH  10  14
ENDBRANCH   1  10
BRANCH   3  18
ATOM     18  C   UNL     1       7.712  -2.117  -0.221  0.00  0.00    +0.000 C 
BRANCH  18  19
ATOM     19  C   UNL     1       8.273  -3.368   0.393  0.00  0.00    +0.000 A 
ATOM     20  C   UNL     1       9.598  -3.425   0.839  0.00  0.00    +0.000 A 
ATOM     21  C   UNL     1      10.133  -4.635   1.273  0.00  0.00    +0.000 A 
ATOM     22  C   UNL     1       9.323  -5.756   1.252  0.00  0.00    +0.000 A 
ATOM     23  N   UNL     1       8.034  -5.738   0.856  0.00  0.00    +0.000 NA
ATOM     24  C   UNL     1       7.537  -4.548   0.445  0.00  0.00    +0.000 A 
ENDBRANCH  18  19
ENDBRANCH   3  18
TORSDOF 6
