REMARK  Name = 
REMARK  11 active torsions:
REMARK  status: ('A' for Active; 'I' for Inactive)
REMARK    1  A    between atoms: N_1  and  C_2
REMARK    2  A    between atoms: C_2  and  C_3
REMARK    3  A    between atoms: C_3  and  O_4
REMARK    4  A    between atoms: O_4  and  C_5
REMARK    5  A    between atoms: C_5  and  C_6
REMARK    6  A    between atoms: C_6  and  N_7
REMARK    7  A    between atoms: C_6  and  C_20
REMARK    8  A    between atoms: C_8  and  C_10
REMARK    9  A    between atoms: C_23  and  O_24
REMARK   10  A    between atoms: O_24  and  C_25
REMARK   11  A    between atoms: C_25  and  C_26
REMARK                            x       y       z     vdW  Elec       q    Type
REMARK                         _______ _______ _______ _____ _____    ______ ____
ROOT
ATOM      1  C   UNL     1       6.420   1.477  -2.248  0.00  0.00    +0.000 C 
ENDROOT
BRANCH   1   2
ATOM      2  C   UNL     1       6.979   2.346  -3.366  0.00  0.00    +0.000 A 
ATOM      3  C   UNL     1       7.251   3.696  -3.106  0.00  0.00    +0.000 A 
ATOM      4  C   UNL     1       7.687   4.553  -4.122  0.00  0.00    +0.000 A 
ATOM      5  C   UNL     1       7.870   4.074  -5.419  0.00  0.00    +0.000 A 
ATOM      6  C   UNL     1       7.595   2.735  -5.691  0.00  0.00    +0.000 A 
ATOM      7  C   UNL     1       7.155   1.879  -4.677  0.00  0.00    +0.000 A 
BRANCH   5   8
ATOM      8  O   UNL     1       8.264   4.822  -6.496  0.00  0.00    +0.000 OA
BRANCH   8   9
ATOM      9  C   UNL     1       9.042   5.982  -6.185  0.00  0.00    +0.000 C 
BRANCH   9  10
ATOM     10  C   UNL     1       9.434   6.716  -7.448  0.00  0.00    +0.000 A 
ATOM     11  C   UNL     1      10.117   6.061  -8.471  0.00  0.00    +0.000 A 
ATOM     12  C   UNL     1      10.506   6.789  -9.593  0.00  0.00    +0.000 A 
ATOM     13  C   UNL     1      10.203   8.143  -9.667  0.00  0.00    +0.000 A 
ATOM     14  C   UNL     1       9.521   8.719  -8.610  0.00  0.00    +0.000 A 
ATOM     15  N   UNL     1       9.137   8.041  -7.507  0.00  0.00    +0.000 NA
ENDBRANCH   9  10
ENDBRANCH   8   9
ENDBRANCH   5   8
ENDBRANCH   1   2
BRANCH   1  16
ATOM     16  N   UNL     1       6.893   0.103  -2.333  0.00  0.00    +0.000 N 
ATOM     17  C   UNL     1       7.975  -0.373  -1.648  0.00  0.00    +0.000 C 
ATOM     18  O   UNL     1       8.636   0.322  -0.882  0.00  0.00    +0.000 OA
ATOM     19  H   UNL     1       6.421  -0.494  -3.001  0.00  0.00    +0.000 HD
BRANCH  17  20
ATOM     20  C   UNL     1       8.284  -1.797  -1.848  0.00  0.00    +0.000 A 
ATOM     21  C   UNL     1       9.021  -2.485  -0.893  0.00  0.00    +0.000 A 
ATOM     22  S   UNL     1       9.315  -4.116  -1.302  0.00  0.00    +0.000 S 
ATOM     23  C   UNL     1       8.507  -3.947  -2.791  0.00  0.00    +0.000 A 
ATOM     24  N   UNL     1       8.443  -4.978  -3.674  0.00  0.00    +0.000 NA
ATOM     25  C   UNL     1       7.846  -4.695  -4.785  0.00  0.00    +0.000 A 
ATOM     26  N   UNL     1       7.286  -3.481  -5.081  0.00  0.00    +0.000 N 
ATOM     27  C   UNL     1       7.225  -2.453  -4.172  0.00  0.00    +0.000 A 
ATOM     28  O   UNL     1       6.545  -1.458  -4.395  0.00  0.00    +0.000 OA
ATOM     29  C   UNL     1       7.968  -2.681  -2.947  0.00  0.00    +0.000 A 
ATOM     30  H   UNL     1       6.781  -3.340  -5.944  0.00  0.00    +0.000 HD
ENDBRANCH  17  20
ENDBRANCH   1  16
BRANCH   1  31
ATOM     31  C   UNL     1       4.875   1.520  -2.279  0.00  0.00    +0.000 C 
BRANCH  31  32
ATOM     32  O   UNL     1       4.341   0.866  -1.119  0.00  0.00    +0.000 OA
BRANCH  32  33
ATOM     33  C   UNL     1       2.908   0.875  -1.127  0.00  0.00    +0.000 C 
BRANCH  33  34
ATOM     34  C   UNL     1       2.392   0.142   0.117  0.00  0.00    +0.000 C 
BRANCH  34  35
ATOM     35  N   UNL     1       2.802  -1.266   0.116  0.00  0.00    +0.000 NA
ATOM     36  H   UNL     1       2.597  -1.674   1.027  0.00  0.00    +0.000 HD
ATOM     37  H   UNL     1       3.821  -1.282   0.022  0.00  0.00    +0.000 HD
ENDBRANCH  34  35
ENDBRANCH  33  34
ENDBRANCH  32  33
ENDBRANCH  31  32
ENDBRANCH   1  31
TORSDOF 11
