REMARK  Name = 
REMARK  6 active torsions:
REMARK  status: ('A' for Active; 'I' for Inactive)
REMARK    1  A    between atoms: N_1  and  C_2
REMARK    2  A    between atoms: C_2  and  C_3
REMARK    3  A    between atoms: C_6  and  O_7
REMARK    4  A    between atoms: O_7  and  C_8
REMARK    5  A    between atoms: C_8  and  C_9
REMARK    6  A    between atoms: C_11  and  N_12
REMARK                            x       y       z     vdW  Elec       q    Type
REMARK                         _______ _______ _______ _____ _____    ______ ____
ROOT
ATOM      1  O   UNL     1       4.666   0.699  -5.020  0.00  0.00    +0.000 OA
ENDROOT
BRANCH   1   5
ATOM      2  C   UNL     1       2.891   0.198  -1.273  0.00  0.00    +0.000 A 
ATOM      3  C   UNL     1       3.025   1.461  -1.868  0.00  0.00    +0.000 A 
ATOM      4  C   UNL     1       3.596   1.590  -3.137  0.00  0.00    +0.000 A 
ATOM      5  C   UNL     1       4.049   0.462  -3.820  0.00  0.00    +0.000 A 
ATOM      6  C   UNL     1       3.863  -0.802  -3.260  0.00  0.00    +0.000 A 
ATOM      7  C   UNL     1       3.299  -0.932  -1.990  0.00  0.00    +0.000 A 
BRANCH   2   8
ATOM      8  C   UNL     1       2.339   0.053   0.120  0.00  0.00    +0.000 C 
BRANCH   8   9
ATOM      9  N   UNL     1       0.961   0.519   0.203  0.00  0.00    +0.000 NA
ATOM     10  H   UNL     1       0.592   0.297   1.124  0.00  0.00    +0.000 HD
ATOM     11  H   UNL     1       0.400  -0.004  -0.468  0.00  0.00    +0.000 HD
ENDBRANCH   8   9
ENDBRANCH   2   8
ENDBRANCH   1   5
BRANCH   1  12
ATOM     12  C   UNL     1       5.557  -0.339  -5.447  0.00  0.00    +0.000 C 
BRANCH  12  13
ATOM     13  C   UNL     1       6.549   0.164  -6.468  0.00  0.00    +0.000 A 
ATOM     14  C   UNL     1       6.186   1.118  -7.415  0.00  0.00    +0.000 A 
ATOM     15  C   UNL     1       7.133   1.559  -8.337  0.00  0.00    +0.000 A 
ATOM     16  C   UNL     1       8.374   0.935  -8.356  0.00  0.00    +0.000 A 
ATOM     17  C   UNL     1       8.655  -0.020  -7.395  0.00  0.00    +0.000 A 
ATOM     18  N   UNL     1       7.778  -0.413  -6.450  0.00  0.00    +0.000 NA
BRANCH  15  19
ATOM     19  N   UNL     1       6.762   2.437  -9.363  0.00  0.00    +0.000 N 
ATOM     20  H   UNL     1       5.995   3.054  -9.109  0.00  0.00    +0.000 HD
ATOM     21  H   UNL     1       7.541   2.947  -9.767  0.00  0.00    +0.000 HD
ENDBRANCH  15  19
ENDBRANCH  12  13
ENDBRANCH   1  12
TORSDOF 6
