REMARK  Name = 
REMARK  5 active torsions:
REMARK  status: ('A' for Active; 'I' for Inactive)
REMARK    1  A    between atoms: C_1  and  C_2
REMARK    2  A    between atoms: C_2  and  C_3
REMARK    3  A    between atoms: C_2  and  C_14
REMARK    4  A    between atoms: C_3  and  N_4
REMARK    5  A    between atoms: C_8  and  C_9
REMARK                            x       y       z     vdW  Elec       q    Type
REMARK                         _______ _______ _______ _____ _____    ______ ____
ROOT
ATOM      1  N   UNL     1       2.814   1.256   2.117  0.00  0.00    +0.000 N 
ATOM      2  C   UNL     1       3.364   1.414   3.395  0.00  0.00    +0.000 A 
ATOM      3  C   UNL     1       3.137   2.597   4.096  0.00  0.00    +0.000 A 
ATOM      4  C   UNL     1       3.671   2.751   5.376  0.00  0.00    +0.000 A 
ATOM      5  C   UNL     1       4.417   1.716   5.944  0.00  0.00    +0.000 A 
ATOM      6  C   UNL     1       4.602   0.586   5.175  0.00  0.00    +0.000 A 
ATOM      7  N   UNL     1       4.108   0.419   3.921  0.00  0.00    +0.000 NA
ATOM      8  H   UNL     1       1.805   1.374   2.194  0.00  0.00    +0.000 HD
ENDROOT
BRANCH   5   9
ATOM      9  C   UNL     1       4.953   1.877   7.320  0.00  0.00    +0.000 C 
ATOM     10  N   UNL     1       5.672   0.858   7.878  0.00  0.00    +0.000 N 
ATOM     11  O   UNL     1       4.747   2.900   7.958  0.00  0.00    +0.000 OA
ATOM     12  H   UNL     1       5.898  -0.024   7.446  0.00  0.00    +0.000 HD
ATOM     13  H   UNL     1       6.002   1.014   8.822  0.00  0.00    +0.000 HD
ENDBRANCH   5   9
BRANCH   1  14
ATOM     14  C   UNL     1       3.142  -0.033   1.506  0.00  0.00    +0.000 C 
BRANCH  14  16
ATOM     15  C   UNL     1       2.889   0.808  -0.928  0.00  0.00    +0.000 C 
ATOM     16  C   UNL     1       2.447  -0.101   0.177  0.00  0.00    +0.000 C 
BRANCH  16  17
ATOM     17  C   UNL     1       1.050  -0.552   0.180  0.00  0.00    +0.000 A 
ATOM     18  C   UNL     1       0.700  -1.832   0.624  0.00  0.00    +0.000 A 
ATOM     19  C   UNL     1      -0.649  -2.200   0.706  0.00  0.00    +0.000 A 
ATOM     20  C   UNL     1      -1.636  -1.288   0.344  0.00  0.00    +0.000 A 
ATOM     21 CL   UNL     1      -3.295  -1.728   0.479  0.00  0.00    +0.000 Cl
ATOM     22  C   UNL     1      -1.301  -0.022  -0.120  0.00  0.00    +0.000 A 
ATOM     23  C   UNL     1       0.042   0.341  -0.207  0.00  0.00    +0.000 A 
ENDBRANCH  16  17
ENDBRANCH  14  16
ENDBRANCH   1  14
TORSDOF 4
