REMARK  Name = 
REMARK  7 active torsions:
REMARK  status: ('A' for Active; 'I' for Inactive)
REMARK    1  A    between atoms: C_1  and  C_2
REMARK    2  A    between atoms: C_2  and  C_3
REMARK    3  A    between atoms: C_2  and  C_4
REMARK    4  A    between atoms: C_2  and  C_5
REMARK    5  A    between atoms: N_7  and  C_8
REMARK    6  A    between atoms: C_8  and  C_9
REMARK    7  A    between atoms: C_12  and  C_13
REMARK                            x       y       z     vdW  Elec       q    Type
REMARK                         _______ _______ _______ _____ _____    ______ ____
ROOT
ATOM      1  C   UNL     1       2.869  -0.929  -0.954  0.00  0.00    +0.000 A 
ATOM      2  C   UNL     1       3.477  -0.601  -2.155  0.00  0.00    +0.000 A 
ATOM      3  N   UNL     1       3.694  -1.743  -2.882  0.00  0.00    +0.000 N 
ATOM      4  C   UNL     1       3.209  -2.837  -2.198  0.00  0.00    +0.000 A 
ATOM      5  C   UNL     1       3.157  -4.198  -2.551  0.00  0.00    +0.000 A 
ATOM      6  C   UNL     1       2.599  -5.100  -1.645  0.00  0.00    +0.000 A 
ATOM      7  C   UNL     1       2.114  -4.665  -0.420  0.00  0.00    +0.000 A 
ATOM      8  C   UNL     1       2.168  -3.310  -0.076  0.00  0.00    +0.000 A 
ATOM      9  C   UNL     1       2.709  -2.364  -0.978  0.00  0.00    +0.000 A 
ENDROOT
BRANCH   1  11
ATOM     10  C   UNL     1       2.699   1.520  -0.271  0.00  0.00    +0.000 C 
ATOM     11  C   UNL     1       2.453   0.050   0.149  0.00  0.00    +0.000 C 
ATOM     12  C   UNL     1       3.272  -0.205   1.429  0.00  0.00    +0.000 C 
ATOM     13  C   UNL     1       0.949  -0.073   0.470  0.00  0.00    +0.000 C 
ENDBRANCH   1  11
BRANCH   3  14
ATOM     14  C   UNL     1       4.218  -1.751  -4.242  0.00  0.00    +0.000 C 
BRANCH  14  15
ATOM     15  C   UNL     1       5.717  -1.845  -4.306  0.00  0.00    +0.000 A 
ATOM     16  C   UNL     1       6.526  -0.703  -4.261  0.00  0.00    +0.000 A 
ATOM     17  C   UNL     1       7.901  -0.815  -4.463  0.00  0.00    +0.000 A 
ATOM     18  C   UNL     1       8.422  -2.076  -4.707  0.00  0.00    +0.000 A 
ATOM     19  N   UNL     1       7.681  -3.215  -4.698  0.00  0.00    +0.000 NA
ATOM     20  C   UNL     1       6.354  -3.071  -4.482  0.00  0.00    +0.000 A 
BRANCH  18  21
ATOM     21  C   UNL     1       9.866  -2.273  -5.082  0.00  0.00    +0.000 C 
ATOM     22  N   UNL     1      10.347  -3.468  -5.262  0.00  0.00    +0.000 NA
ATOM     23  N   UNL     1      10.726  -1.230  -5.290  0.00  0.00    +0.000 N 
ATOM     24  H   UNL     1       9.572  -4.131  -5.086  0.00  0.00    +0.000 HD
ATOM     25  H   UNL     1      10.348  -0.435  -5.787  0.00  0.00    +0.000 HD
ATOM     26  H   UNL     1      11.574  -1.577  -5.734  0.00  0.00    +0.000 HD
ENDBRANCH  18  21
ENDBRANCH  14  15
ENDBRANCH   3  14
TORSDOF 4
