REMARK  Name = 
REMARK  5 active torsions:
REMARK  status: ('A' for Active; 'I' for Inactive)
REMARK    1  A    between atoms: C_1  and  C_2
REMARK    2  A    between atoms: C_9  and  C_10
REMARK    3  A    between atoms: C_10  and  N_11
REMARK    4  A    between atoms: C_15  and  C_16
REMARK    5  A    between atoms: C_25  and  C_26
REMARK                            x       y       z     vdW  Elec       q    Type
REMARK                         _______ _______ _______ _____ _____    ______ ____
ROOT
ATOM      1  C   UNL     1       2.389   4.542  -4.721  0.00  0.00    +0.000 C 
ATOM      2  C   UNL     1       3.279   4.410  -5.951  0.00  0.00    +0.000 C 
ATOM      3  C   UNL     1       3.908   4.564  -4.605  0.00  0.00    +0.000 C 
ENDROOT
BRANCH   1  12
ATOM      4  C   UNL     1       3.652  -1.342  -4.600  0.00  0.00    +0.000 C 
ATOM      5  C   UNL     1       3.629  -1.530  -3.085  0.00  0.00    +0.000 C 
ATOM      6  C   UNL     1       2.370  -0.960  -2.392  0.00  0.00    +0.000 C 
ATOM      7  N   UNL     1       2.429   0.496  -2.269  0.00  0.00    +0.000 N 
ATOM      8  C   UNL     1       1.764   1.246  -3.216  0.00  0.00    +0.000 A 
ATOM      9  N   UNL     1       0.668   0.772  -3.830  0.00  0.00    +0.000 NA
ATOM     10  C   UNL     1       0.051   1.588  -4.710  0.00  0.00    +0.000 A 
ATOM     11  C   UNL     1       0.501   2.845  -5.029  0.00  0.00    +0.000 A 
ATOM     12  C   UNL     1       1.652   3.253  -4.383  0.00  0.00    +0.000 A 
ATOM     13  N   UNL     1       2.242   2.463  -3.465  0.00  0.00    +0.000 NA
ATOM     14  C   UNL     1       3.704   1.019  -1.751  0.00  0.00    +0.000 C 
ATOM     15  C   UNL     1       4.916   0.403  -2.481  0.00  0.00    +0.000 C 
ATOM     16  C   UNL     1       6.217   0.784  -1.778  0.00  0.00    +0.000 C 
ATOM     17  O   UNL     1       4.846  -1.035  -2.489  0.00  0.00    +0.000 OA
ENDBRANCH   1  12
BRANCH   1  18
ATOM     18  N   UNL     1       1.674   5.807  -4.452  0.00  0.00    +0.000 N 
ATOM     19  C   UNL     1       1.491   6.316  -3.155  0.00  0.00    +0.000 A 
ATOM     20  C   UNL     1       1.170   5.535  -2.047  0.00  0.00    +0.000 A 
ATOM     21  C   UNL     1       0.873   6.151  -0.821  0.00  0.00    +0.000 A 
ATOM     22  C   UNL     1       0.908   7.536  -0.728  0.00  0.00    +0.000 A 
ATOM     23  C   UNL     1       1.258   8.239  -1.869  0.00  0.00    +0.000 A 
ATOM     24  N   UNL     1       1.553   7.661  -3.065  0.00  0.00    +0.000 NA
ATOM     25  H   UNL     1       1.974   6.615  -4.996  0.00  0.00    +0.000 HD
BRANCH  22  26
ATOM     26  C   UNL     1       0.530   8.294   0.486  0.00  0.00    +0.000 C 
ATOM     27  N   UNL     1       0.590   7.651   1.690  0.00  0.00    +0.000 N 
ATOM     28  O   UNL     1       0.190   9.468   0.420  0.00  0.00    +0.000 OA
ATOM     29  H   UNL     1       1.054   6.766   1.829  0.00  0.00    +0.000 HD
ATOM     30  H   UNL     1       0.401   8.217   2.510  0.00  0.00    +0.000 HD
ENDBRANCH  22  26
ENDBRANCH   1  18
TORSDOF 3
