REMARK  Name = 
REMARK  11 active torsions:
REMARK  status: ('A' for Active; 'I' for Inactive)
REMARK    1  A    between atoms: C_1  and  C_2
REMARK    2  A    between atoms: C_2  and  C_3
REMARK    3  A    between atoms: C_3  and  C_4
REMARK    4  A    between atoms: C_4  and  N_5
REMARK    5  A    between atoms: C_4  and  C_19
REMARK    6  A    between atoms: C_6  and  C_8
REMARK    7  A    between atoms: N_14  and  C_15
REMARK    8  A    between atoms: C_22  and  C_23
REMARK    9  A    between atoms: C_23  and  N_24
REMARK   10  A    between atoms: N_24  and  C_25
REMARK   11  A    between atoms: C_25  and  C_26
REMARK                            x       y       z     vdW  Elec       q    Type
REMARK                         _______ _______ _______ _____ _____    ______ ____
ROOT
ATOM      1  C   UNL     1       4.499   1.132  -0.792  0.00  0.00    +0.000 C 
ENDROOT
BRANCH   1   2
ATOM      2  C   UNL     1       4.906   2.455  -1.431  0.00  0.00    +0.000 A 
ATOM      3  C   UNL     1       4.991   3.589  -0.607  0.00  0.00    +0.000 A 
ATOM      4  C   UNL     1       5.320   4.841  -1.130  0.00  0.00    +0.000 A 
ATOM      5  C   UNL     1       5.584   5.001  -2.496  0.00  0.00    +0.000 A 
ATOM      6  C   UNL     1       5.451   3.887  -3.334  0.00  0.00    +0.000 A 
ATOM      7  C   UNL     1       5.107   2.630  -2.808  0.00  0.00    +0.000 A 
BRANCH   5   8
ATOM      8  C   UNL     1       6.038   6.349  -3.019  0.00  0.00    +0.000 C 
BRANCH   8   9
ATOM      9  N   UNL     1       7.272   6.743  -2.344  0.00  0.00    +0.000 NA
ATOM     10  H   UNL     1       7.989   6.039  -2.524  0.00  0.00    +0.000 HD
BRANCH   9  11
ATOM     11  C   UNL     1       7.777   8.043  -2.783  0.00  0.00    +0.000 C 
BRANCH  11  12
ATOM     12  C   UNL     1       9.071   8.366  -2.075  0.00  0.00    +0.000 A 
ATOM     13  N   UNL     1      10.266   8.009  -2.510  0.00  0.00    +0.000 NA
ATOM     14  C   UNL     1      11.229   8.417  -1.608  0.00  0.00    +0.000 A 
ATOM     15  C   UNL     1      10.763   9.086  -0.498  0.00  0.00    +0.000 A 
ATOM     16  S   UNL     1       9.057   9.217  -0.576  0.00  0.00    +0.000 S 
ENDBRANCH  11  12
ENDBRANCH   9  11
ENDBRANCH   8   9
ENDBRANCH   5   8
ENDBRANCH   1   2
BRANCH   1  17
ATOM     17  N   UNL     1       3.048   1.081  -0.779  0.00  0.00    +0.000 N 
ATOM     18  C   UNL     1       2.337   0.352   0.140  0.00  0.00    +0.000 C 
ATOM     19  O   UNL     1       2.863  -0.200   1.100  0.00  0.00    +0.000 OA
ATOM     20  H   UNL     1       2.605   1.344  -1.651  0.00  0.00    +0.000 HD
BRANCH  18  21
ATOM     21  C   UNL     1       0.885   0.334  -0.066  0.00  0.00    +0.000 A 
ATOM     22  C   UNL     1       0.034   0.121   1.009  0.00  0.00    +0.000 A 
ATOM     23  S   UNL     1      -1.618   0.267   0.603  0.00  0.00    +0.000 S 
ATOM     24  C   UNL     1      -1.247   0.566  -1.032  0.00  0.00    +0.000 A 
ATOM     25  N   UNL     1      -2.224   0.813  -1.940  0.00  0.00    +0.000 NA
ATOM     26  C   UNL     1      -1.799   0.994  -3.149  0.00  0.00    +0.000 A 
ATOM     27  N   UNL     1      -0.482   0.932  -3.553  0.00  0.00    +0.000 N 
ATOM     28  C   UNL     1      -0.123   1.117  -4.943  0.00  0.00    +0.000 C 
ATOM     29  C   UNL     1       0.543   0.674  -2.649  0.00  0.00    +0.000 A 
ATOM     30  O   UNL     1       1.721   0.595  -2.986  0.00  0.00    +0.000 OA
ATOM     31  C   UNL     1       0.111   0.519  -1.271  0.00  0.00    +0.000 A 
ENDBRANCH  18  21
ENDBRANCH   1  17
BRANCH   1  32
ATOM     32  C   UNL     1       5.043  -0.162  -1.436  0.00  0.00    +0.000 C 
BRANCH  32  34
ATOM     33  C   UNL     1       7.092  -0.385   0.077  0.00  0.00    +0.000 C 
ATOM     34  C   UNL     1       6.555  -0.378  -1.347  0.00  0.00    +0.000 C 
ENDBRANCH  32  34
ENDBRANCH   1  32
TORSDOF 9
