REMARK  Name = 
REMARK  5 active torsions:
REMARK  status: ('A' for Active; 'I' for Inactive)
REMARK    1  A    between atoms: N_1  and  C_2
REMARK    2  A    between atoms: C_2  and  C_3
REMARK    3  A    between atoms: C_3  and  C_4
REMARK    4  A    between atoms: C_7  and  C_8
REMARK    5  A    between atoms: C_8  and  N_9
REMARK                            x       y       z     vdW  Elec       q    Type
REMARK                         _______ _______ _______ _____ _____    ______ ____
ROOT
ATOM      1  C   UNL     1       4.718   1.388  -0.286  0.00  0.00    +0.000 A 
ATOM      2  C   UNL     1       5.486   1.236   0.874  0.00  0.00    +0.000 A 
ATOM      3  C   UNL     1       6.882   1.209   0.800  0.00  0.00    +0.000 A 
ATOM      4  C   UNL     1       7.539   1.332  -0.433  0.00  0.00    +0.000 A 
ATOM      5  C   UNL     1       6.764   1.486  -1.593  0.00  0.00    +0.000 A 
ATOM      6  C   UNL     1       5.372   1.522  -1.519  0.00  0.00    +0.000 A 
ENDROOT
BRANCH   1   7
ATOM      7  C   UNL     1       3.209   1.402  -0.214  0.00  0.00    +0.000 C 
BRANCH   7   8
ATOM      8  C   UNL     1       2.630   2.812  -0.028  0.00  0.00    +0.000 C 
BRANCH   8   9
ATOM      9  N   UNL     1       1.169   2.776  -0.001  0.00  0.00    +0.000 NA
ATOM     10  H   UNL     1       0.811   3.720   0.138  0.00  0.00    +0.000 HD
ATOM     11  H   UNL     1       0.854   2.231   0.800  0.00  0.00    +0.000 HD
ENDBRANCH   8   9
ENDBRANCH   7   8
ENDBRANCH   1   7
BRANCH   4  12
ATOM     12  C   UNL     1       9.043   1.355  -0.503  0.00  0.00    +0.000 C 
BRANCH  12  13
ATOM     13  N   UNL     1       9.688   0.058  -0.674  0.00  0.00    +0.000 N 
ATOM     14  C   UNL     1       9.420  -1.071   0.053  0.00  0.00    +0.000 A 
ATOM     15  N   UNL     1      10.434  -1.908   0.047  0.00  0.00    +0.000 NA
ATOM     16  C   UNL     1      11.385  -1.316  -0.743  0.00  0.00    +0.000 A 
ATOM     17  C   UNL     1      12.699  -1.726  -1.020  0.00  0.00    +0.000 A 
ATOM     18  C   UNL     1      13.487  -0.938  -1.868  0.00  0.00    +0.000 A 
ATOM     19  C   UNL     1      12.965   0.212  -2.462  0.00  0.00    +0.000 A 
ATOM     20  C   UNL     1      11.662   0.644  -2.188  0.00  0.00    +0.000 A 
ATOM     21  C   UNL     1      10.910  -0.126  -1.290  0.00  0.00    +0.000 A 
ENDBRANCH  12  13
ENDBRANCH   4  12
TORSDOF 5
