REMARK  Name = 
REMARK  7 active torsions:
REMARK  status: ('A' for Active; 'I' for Inactive)
REMARK    1  A    between atoms: N_1  and  C_2
REMARK    2  A    between atoms: C_2  and  C_3
REMARK    3  A    between atoms: C_2  and  C_25
REMARK    4  A    between atoms: C_3  and  N_4
REMARK    5  A    between atoms: C_8  and  C_9
REMARK    6  A    between atoms: C_9  and  N_10
REMARK    7  A    between atoms: C_11  and  C_13
REMARK                            x       y       z     vdW  Elec       q    Type
REMARK                         _______ _______ _______ _____ _____    ______ ____
ROOT
ATOM      1  N   UNL     1       0.211  -1.420   0.376  0.00  0.00    +0.000 N 
ATOM      2  C   UNL     1      -1.168  -1.576   0.474  0.00  0.00    +0.000 A 
ATOM      3  C   UNL     1      -2.000  -0.930  -0.445  0.00  0.00    +0.000 A 
ATOM      4  N   UNL     1      -3.349  -1.076  -0.484  0.00  0.00    +0.000 NA
ATOM      5  C   UNL     1      -3.864  -1.913   0.451  0.00  0.00    +0.000 A 
ATOM      6  C   UNL     1      -3.043  -2.557   1.369  0.00  0.00    +0.000 A 
ATOM      7  N   UNL     1      -1.697  -2.401   1.399  0.00  0.00    +0.000 NA
ATOM      8  H   UNL     1       0.510  -0.454   0.484  0.00  0.00    +0.000 HD
ENDROOT
BRANCH   1   9
ATOM      9  C   UNL     1       1.038  -2.341   1.155  0.00  0.00    +0.000 C 
BRANCH   9  10
ATOM     10  C   UNL     1       2.454  -2.377   0.519  0.00  0.00    +0.000 C 
BRANCH  10  11
ATOM     11  C   UNL     1       3.390  -3.412   1.184  0.00  0.00    +0.000 C 
ATOM     12  C   UNL     1       4.734  -3.534   0.457  0.00  0.00    +0.000 C 
ATOM     13  C   UNL     1       5.248  -4.939   0.735  0.00  0.00    +0.000 C 
ATOM     14  C   UNL     1       4.063  -5.750   1.241  0.00  0.00    +0.000 C 
ATOM     15  C   UNL     1       2.844  -4.843   1.148  0.00  0.00    +0.000 C 
ENDBRANCH  10  11
BRANCH  10  16
ATOM     16  N   UNL     1       3.062  -1.026   0.524  0.00  0.00    +0.000 NA
ATOM     17  H   UNL     1       3.964  -1.064   0.052  0.00  0.00    +0.000 HD
ATOM     18  H   UNL     1       3.251  -0.743   1.484  0.00  0.00    +0.000 HD
ENDBRANCH  10  16
ENDBRANCH   9  10
ENDBRANCH   1   9
BRANCH   5  19
ATOM     19  C   UNL     1      -5.347  -2.160   0.446  0.00  0.00    +0.000 C 
BRANCH  19  20
ATOM     20  N   UNL     1      -5.709  -3.331  -0.323  0.00  0.00    +0.000 N 
ATOM     21  C   UNL     1      -5.842  -4.566   0.254  0.00  0.00    +0.000 C 
ATOM     22  O   UNL     1      -5.687  -4.733   1.462  0.00  0.00    +0.000 OA
ATOM     23  H   UNL     1      -5.607  -3.254  -1.332  0.00  0.00    +0.000 HD
BRANCH  21  24
ATOM     24  C   UNL     1      -6.238  -5.671  -0.626  0.00  0.00    +0.000 A 
ATOM     25  C   UNL     1      -6.856  -6.790  -0.083  0.00  0.00    +0.000 A 
ATOM     26  S   UNL     1      -7.288  -7.965  -1.241  0.00  0.00    +0.000 S 
ATOM     27  C   UNL     1      -6.616  -7.046  -2.503  0.00  0.00    +0.000 A 
ATOM     28  N   UNL     1      -6.625  -7.509  -3.781  0.00  0.00    +0.000 NA
ATOM     29  C   UNL     1      -6.047  -6.727  -4.635  0.00  0.00    +0.000 A 
ATOM     30  N   UNL     1      -5.472  -5.519  -4.327  0.00  0.00    +0.000 N 
ATOM     31  C   UNL     1      -5.492  -4.990  -3.055  0.00  0.00    +0.000 A 
ATOM     32  O   UNL     1      -5.051  -3.869  -2.825  0.00  0.00    +0.000 OA
ATOM     33  C   UNL     1      -6.095  -5.844  -2.054  0.00  0.00    +0.000 A 
ATOM     34  H   UNL     1      -5.053  -4.948  -5.039  0.00  0.00    +0.000 HD
ENDBRANCH  21  24
ENDBRANCH  19  20
ENDBRANCH   5  19
TORSDOF 7
