REMARK  Name = 
REMARK  7 active torsions:
REMARK  status: ('A' for Active; 'I' for Inactive)
REMARK    1  A    between atoms: N_1  and  C_2
REMARK    2  A    between atoms: C_2  and  C_3
REMARK    3  A    between atoms: C_7  and  C_8
REMARK    4  A    between atoms: C_8  and  S_9
REMARK    5  A    between atoms: S_9  and  C_10
REMARK    6  A    between atoms: C_14  and  C_15
REMARK    7  A    between atoms: C_15  and  O_17
REMARK                            x       y       z     vdW  Elec       q    Type
REMARK                         _______ _______ _______ _____ _____    ______ ____
ROOT
ATOM      1  C   UNL     1       2.733   4.244   2.502  0.00  0.00    +0.000 C 
ENDROOT
BRANCH   1   6
ATOM      2  C   UNL     1       3.983   0.872   1.225  0.00  0.00    +0.000 A 
ATOM      3  C   UNL     1       3.358   0.033   2.145  0.00  0.00    +0.000 A 
ATOM      4  C   UNL     1       2.590   0.608   3.147  0.00  0.00    +0.000 A 
ATOM      5  N   UNL     1       2.393   1.939   3.281  0.00  0.00    +0.000 NA
ATOM      6  C   UNL     1       2.989   2.756   2.376  0.00  0.00    +0.000 A 
ATOM      7  C   UNL     1       3.809   2.256   1.363  0.00  0.00    +0.000 A 
BRANCH   2   8
ATOM      8  C   UNL     1       4.797   0.326   0.083  0.00  0.00    +0.000 C 
BRANCH   8   9
ATOM      9  N   UNL     1       6.178   0.787   0.148  0.00  0.00    +0.000 NA
ATOM     10  H   UNL     1       6.719   0.324  -0.580  0.00  0.00    +0.000 HD
ATOM     11  H   UNL     1       6.582   0.499   1.037  0.00  0.00    +0.000 HD
ENDBRANCH   8   9
ENDBRANCH   2   8
ENDBRANCH   1   6
BRANCH   1  12
ATOM     12  S   UNL     1       1.944   4.927   0.994  0.00  0.00    +0.000 S 
BRANCH  12  13
ATOM     13  C   UNL     1       1.781   6.649   1.418  0.00  0.00    +0.000 A 
ATOM     14  C   UNL     1       1.009   7.071   2.503  0.00  0.00    +0.000 A 
ATOM     15  C   UNL     1       0.794   8.434   2.735  0.00  0.00    +0.000 A 
ATOM     16  C   UNL     1       1.357   9.390   1.885  0.00  0.00    +0.000 A 
ATOM     17  C   UNL     1       2.151   8.979   0.808  0.00  0.00    +0.000 A 
ATOM     18  C   UNL     1       2.343   7.610   0.569  0.00  0.00    +0.000 A 
BRANCH  17  19
ATOM     19  C   UNL     1       2.758   9.934  -0.152  0.00  0.00    +0.000 C 
ATOM     20  O   UNL     1       2.971   9.656  -1.319  0.00  0.00    +0.000 OA
BRANCH  19  21
ATOM     21  O   UNL     1       3.097  11.126   0.388  0.00  0.00    +0.000 OA
ATOM     22  H   UNL     1       3.044  11.176   1.360  0.00  0.00    +0.000 HD
ENDBRANCH  19  21
ENDBRANCH  17  19
ENDBRANCH  12  13
ENDBRANCH   1  12
TORSDOF 7
