REMARK  Name = 
REMARK  5 active torsions:
REMARK  status: ('A' for Active; 'I' for Inactive)
REMARK    1  A    between atoms: C_2  and  C_4
REMARK    2  A    between atoms: N_8  and  C_9
REMARK    3  A    between atoms: C_9  and  C_10
REMARK    4  A    between atoms: C_10  and  C_13
REMARK    5  A    between atoms: C_17  and  C_18
REMARK                            x       y       z     vdW  Elec       q    Type
REMARK                         _______ _______ _______ _____ _____    ______ ____
ROOT
ATOM      1  C   UNL     1       6.022  -5.951  -4.069  0.00  0.00    +0.000 C 
ATOM      2  F   UNL     1       7.330  -5.557  -3.961  0.00  0.00    +0.000 F 
ATOM      3  F   UNL     1       5.888  -6.971  -3.159  0.00  0.00    +0.000 F 
ENDROOT
BRANCH   1   4
ATOM      4  C   UNL     1       5.701  -6.433  -5.466  0.00  0.00    +0.000 A 
ATOM      5  C   UNL     1       4.692  -5.893  -6.274  0.00  0.00    +0.000 A 
ATOM      6  C   UNL     1       4.490  -6.370  -7.564  0.00  0.00    +0.000 A 
ATOM      7  C   UNL     1       5.278  -7.410  -8.058  0.00  0.00    +0.000 A 
ATOM      8  C   UNL     1       6.272  -8.020  -7.272  0.00  0.00    +0.000 A 
ATOM      9  C   UNL     1       6.463  -7.499  -5.976  0.00  0.00    +0.000 A 
ATOM     10  F   UNL     1       7.387  -8.045  -5.171  0.00  0.00    +0.000 F 
BRANCH   8  11
ATOM     11  C   UNL     1       7.053  -9.170  -7.796  0.00  0.00    +0.000 A 
ATOM     12  C   UNL     1       8.397  -9.385  -7.436  0.00  0.00    +0.000 A 
ATOM     13  C   UNL     1       9.115 -10.490  -7.910  0.00  0.00    +0.000 A 
ATOM     14  C   UNL     1       8.507 -11.394  -8.773  0.00  0.00    +0.000 A 
ATOM     15 CL   UNL     1       9.383 -12.755  -9.352  0.00  0.00    +0.000 Cl
ATOM     16  C   UNL     1       7.189 -11.201  -9.167  0.00  0.00    +0.000 A 
ATOM     17  C   UNL     1       6.471 -10.104  -8.676  0.00  0.00    +0.000 A 
ENDBRANCH   8  11
ENDBRANCH   1   4
BRANCH   1  18
ATOM     18  C   UNL     1       5.144  -4.791  -3.534  0.00  0.00    +0.000 C 
BRANCH  18  23
ATOM     19  C   UNL     1       3.049  -0.147  -3.488  0.00  0.00    +0.000 A 
ATOM     20  C   UNL     1       3.259  -1.038  -2.441  0.00  0.00    +0.000 A 
ATOM     21  C   UNL     1       3.989  -2.200  -2.676  0.00  0.00    +0.000 A 
ATOM     22  C   UNL     1       4.489  -2.452  -3.950  0.00  0.00    +0.000 A 
ATOM     23  N   UNL     1       5.334  -3.508  -4.223  0.00  0.00    +0.000 N 
ATOM     24  N   UNL     1       4.238  -1.629  -4.985  0.00  0.00    +0.000 NA
ATOM     25  C   UNL     1       3.524  -0.499  -4.741  0.00  0.00    +0.000 A 
ATOM     26  H   UNL     1       5.513  -3.530  -5.225  0.00  0.00    +0.000 HD
BRANCH  19  28
ATOM     27  N   UNL     1       2.469   1.724  -2.065  0.00  0.00    +0.000 N 
ATOM     28  C   UNL     1       2.371   1.150  -3.303  0.00  0.00    +0.000 C 
ATOM     29  O   UNL     1       1.791   1.707  -4.224  0.00  0.00    +0.000 OA
ATOM     30  H   UNL     1       2.112   2.668  -1.977  0.00  0.00    +0.000 HD
ATOM     31  H   UNL     1       3.152   1.426  -1.382  0.00  0.00    +0.000 HD
ENDBRANCH  19  28
ENDBRANCH  18  23
ENDBRANCH   1  18
TORSDOF 5
