REMARK  Name = 
REMARK  3 active torsions:
REMARK  status: ('A' for Active; 'I' for Inactive)
REMARK    1  A    between atoms: C_2  and  C_4
REMARK    2  A    between atoms: N_8  and  C_9
REMARK    3  A    between atoms: C_9  and  C_10
REMARK                            x       y       z     vdW  Elec       q    Type
REMARK                         _______ _______ _______ _____ _____    ______ ____
ROOT
ATOM      1  C   UNL     1       2.908   1.504   0.323  0.00  0.00    +0.000 A 
ATOM      2  C   UNL     1       3.987   1.816  -0.499  0.00  0.00    +0.000 A 
ATOM      3  C   UNL     1       4.801   2.904  -0.186  0.00  0.00    +0.000 A 
ATOM      4  C   UNL     1       4.534   3.661   0.964  0.00  0.00    +0.000 A 
ATOM      5  N   UNL     1       5.306   4.783   1.223  0.00  0.00    +0.000 N 
ATOM      6  N   UNL     1       3.477   3.383   1.750  0.00  0.00    +0.000 NA
ATOM      7  C   UNL     1       2.685   2.331   1.425  0.00  0.00    +0.000 A 
ATOM      8  H   UNL     1       6.248   4.776   0.866  0.00  0.00    +0.000 HD
ENDROOT
BRANCH   1  10
ATOM      9  N   UNL     1       2.560  -0.696  -0.589  0.00  0.00    +0.000 N 
ATOM     10  C   UNL     1       2.020   0.374   0.066  0.00  0.00    +0.000 C 
ATOM     11  O   UNL     1       0.850   0.374   0.433  0.00  0.00    +0.000 OA
ATOM     12  H   UNL     1       1.967  -1.508  -0.711  0.00  0.00    +0.000 HD
ATOM     13  H   UNL     1       3.557  -0.827  -0.703  0.00  0.00    +0.000 HD
ENDBRANCH   1  10
BRANCH   5  14
ATOM     14  C   UNL     1       5.031   5.544   2.446  0.00  0.00    +0.000 C 
BRANCH  14  15
ATOM     15  C   UNL     1       6.049   6.689   2.641  0.00  0.00    +0.000 C 
ATOM     16  C   UNL     1       5.698   7.503   3.903  0.00  0.00    +0.000 C 
ATOM     17  C   UNL     1       6.641   8.688   4.102  0.00  0.00    +0.000 C 
ATOM     18  C   UNL     1       6.673   9.589   2.872  0.00  0.00    +0.000 C 
ATOM     19  C   UNL     1       7.023   8.801   1.615  0.00  0.00    +0.000 C 
ATOM     20  C   UNL     1       6.084   7.615   1.415  0.00  0.00    +0.000 C 
ENDBRANCH  14  15
ENDBRANCH   5  14
TORSDOF 3
