REMARK  Name = 
REMARK  5 active torsions:
REMARK  status: ('A' for Active; 'I' for Inactive)
REMARK    1  A    between atoms: C_1  and  C_2
REMARK    2  A    between atoms: C_6  and  C_7
REMARK    3  A    between atoms: C_7  and  C_8
REMARK    4  A    between atoms: C_11  and  C_12
REMARK    5  A    between atoms: C_16  and  C_17
REMARK                            x       y       z     vdW  Elec       q    Type
REMARK                         _______ _______ _______ _____ _____    ______ ____
ROOT
ATOM      1  C   UNL     1      -2.550  -2.829  -1.480  0.00  0.00    +0.000 A 
ATOM      2  C   UNL     1      -2.127  -2.977  -2.820  0.00  0.00    +0.000 A 
ATOM      3  C   UNL     1      -3.028  -3.105  -3.880  0.00  0.00    +0.000 A 
ATOM      4  C   UNL     1      -4.399  -3.091  -3.633  0.00  0.00    +0.000 A 
ATOM      5  C   UNL     1      -4.851  -2.884  -2.328  0.00  0.00    +0.000 A 
ATOM      6  C   UNL     1      -3.950  -2.725  -1.255  0.00  0.00    +0.000 A 
ATOM      7  C   UNL     1      -4.525  -2.504   0.119  0.00  0.00    +0.000 C 
ENDROOT
BRANCH   4   8
ATOM      8  C   UNL     1      -5.322  -3.275  -4.781  0.00  0.00    +0.000 C 
ATOM      9  N   UNL     1      -6.548  -3.826  -4.526  0.00  0.00    +0.000 N 
ATOM     10  O   UNL     1      -4.989  -2.994  -5.926  0.00  0.00    +0.000 OA
ATOM     11  H   UNL     1      -6.754  -4.307  -3.663  0.00  0.00    +0.000 HD
ATOM     12  H   UNL     1      -7.107  -4.059  -5.338  0.00  0.00    +0.000 HD
ENDBRANCH   4   8
BRANCH   1  13
ATOM     13  C   UNL     1      -1.500  -2.860  -0.340  0.00  0.00    +0.000 C 
ATOM     14  C   UNL     1      -1.506  -4.180   0.436  0.00  0.00    +0.000 C 
ATOM     15  C   UNL     1      -0.320  -3.860  -0.397  0.00  0.00    +0.000 C 
BRANCH  13  21
ATOM     16  C   UNL     1      -0.020   0.116   3.533  0.00  0.00    +0.000 C 
ATOM     17  C   UNL     1      -0.152  -0.122   2.056  0.00  0.00    +0.000 A 
ATOM     18  C   UNL     1       0.512   0.708   1.148  0.00  0.00    +0.000 A 
ATOM     19  C   UNL     1       0.420   0.462  -0.216  0.00  0.00    +0.000 A 
ATOM     20  C   UNL     1      -0.309  -0.635  -0.676  0.00  0.00    +0.000 A 
ATOM     21  C   UNL     1      -0.960  -1.524   0.204  0.00  0.00    +0.000 A 
ATOM     22  C   UNL     1      -0.898  -1.215   1.577  0.00  0.00    +0.000 A 
ENDBRANCH  13  21
ENDBRANCH   1  13
TORSDOF 3
