REMARK  Name = 
REMARK  7 active torsions:
REMARK  status: ('A' for Active; 'I' for Inactive)
REMARK    1  A    between atoms: C_2  and  C_3
REMARK    2  A    between atoms: C_6  and  C_7
REMARK    3  A    between atoms: N_9  and  C_10
REMARK    4  A    between atoms: C_10  and  C_11
REMARK    5  A    between atoms: C_14  and  C_15
REMARK    6  A    between atoms: C_15  and  N_16
REMARK    7  A    between atoms: C_17  and  C_19
REMARK                            x       y       z     vdW  Elec       q    Type
REMARK                         _______ _______ _______ _____ _____    ______ ____
ROOT
ATOM      1  C   UNL     1       4.860   2.727   5.504  0.00  0.00    +0.000 A 
ATOM      2  C   UNL     1       4.438   4.060   5.617  0.00  0.00    +0.000 A 
ATOM      3  C   UNL     1       3.354   4.402   6.437  0.00  0.00    +0.000 A 
ATOM      4  C   UNL     1       2.679   3.421   7.175  0.00  0.00    +0.000 A 
ATOM      5  C   UNL     1       3.092   2.088   7.050  0.00  0.00    +0.000 A 
ATOM      6  C   UNL     1       4.176   1.746   6.233  0.00  0.00    +0.000 A 
ENDROOT
BRANCH   1   7
ATOM      7  C   UNL     1       6.027   2.354   4.624  0.00  0.00    +0.000 C 
BRANCH   7  10
ATOM      8  C   UNL     1       8.475   2.165   4.679  0.00  0.00    +0.000 C 
ATOM      9  O   UNL     1       8.524   1.840   3.497  0.00  0.00    +0.000 OA
ATOM     10  N   UNL     1       7.290   2.431   5.329  0.00  0.00    +0.000 N 
ATOM     11  H   UNL     1       7.282   2.693   6.306  0.00  0.00    +0.000 HD
BRANCH   8  15
ATOM     12  C   UNL     1      12.046   1.836   5.887  0.00  0.00    +0.000 C 
ATOM     13  C   UNL     1      11.261   1.096   6.972  0.00  0.00    +0.000 C 
ATOM     14  C   UNL     1       9.781   1.412   6.734  0.00  0.00    +0.000 C 
ATOM     15  C   UNL     1       9.723   2.361   5.536  0.00  0.00    +0.000 C 
ATOM     16  C   UNL     1      11.023   2.073   4.781  0.00  0.00    +0.000 C 
BRANCH  12  18
ATOM     17  N   UNL     1      14.147   0.480   5.069  0.00  0.00    +0.000 NA
ATOM     18  C   UNL     1      13.218   1.076   5.423  0.00  0.00    +0.000 C 
ENDBRANCH  12  18
ENDBRANCH   8  15
ENDBRANCH   7  10
ENDBRANCH   1   7
BRANCH   4  19
ATOM     19  C   UNL     1       1.512   3.772   8.066  0.00  0.00    +0.000 C 
BRANCH  19  20
ATOM     20  N   UNL     1       0.260   3.692   7.356  0.00  0.00    +0.000 N 
ATOM     21  C   UNL     1      -0.928   4.014   7.964  0.00  0.00    +0.000 C 
ATOM     22  O   UNL     1      -0.978   4.427   9.121  0.00  0.00    +0.000 OA
ATOM     23  H   UNL     1       0.246   3.124   6.515  0.00  0.00    +0.000 HD
BRANCH  21  24
ATOM     24  C   UNL     1      -2.136   3.902   7.137  0.00  0.00    +0.000 A 
ATOM     25  C   UNL     1      -3.257   4.664   7.440  0.00  0.00    +0.000 A 
ATOM     26  S   UNL     1      -4.545   4.454   6.340  0.00  0.00    +0.000 S 
ATOM     27  C   UNL     1      -3.672   3.293   5.456  0.00  0.00    +0.000 A 
ATOM     28  N   UNL     1      -4.221   2.677   4.374  0.00  0.00    +0.000 NA
ATOM     29  C   UNL     1      -3.461   1.790   3.823  0.00  0.00    +0.000 A 
ATOM     30  N   UNL     1      -2.200   1.469   4.249  0.00  0.00    +0.000 N 
ATOM     31  C   UNL     1      -1.589   2.092   5.312  0.00  0.00    +0.000 A 
ATOM     32  O   UNL     1      -0.437   1.820   5.635  0.00  0.00    +0.000 OA
ATOM     33  C   UNL     1      -2.408   3.084   5.979  0.00  0.00    +0.000 A 
ATOM     34  H   UNL     1      -1.651   0.772   3.767  0.00  0.00    +0.000 HD
ENDBRANCH  21  24
ENDBRANCH  19  20
ENDBRANCH   4  19
TORSDOF 7
