REMARK  Name = 
REMARK  7 active torsions:
REMARK  status: ('A' for Active; 'I' for Inactive)
REMARK    1  A    between atoms: C_1  and  O_2
REMARK    2  A    between atoms: O_2  and  C_3
REMARK    3  A    between atoms: C_5  and  C_6
REMARK    4  A    between atoms: C_11  and  N_12
REMARK    5  A    between atoms: N_12  and  C_13
REMARK    6  A    between atoms: C_13  and  C_14
REMARK    7  A    between atoms: C_18  and  C_19
REMARK                            x       y       z     vdW  Elec       q    Type
REMARK                         _______ _______ _______ _____ _____    ______ ____
ROOT
ATOM      1  C   UNL     1       3.141   0.605   1.020  0.00  0.00    +0.000 A 
ATOM      2  C   UNL     1       2.794   0.668   2.369  0.00  0.00    +0.000 A 
ATOM      3  C   UNL     1       3.554   1.442   3.248  0.00  0.00    +0.000 A 
ATOM      4  C   UNL     1       4.647   2.114   2.725  0.00  0.00    +0.000 A 
ATOM      5  N   UNL     1       5.004   2.088   1.417  0.00  0.00    +0.000 NA
ATOM      6  C   UNL     1       4.259   1.339   0.575  0.00  0.00    +0.000 A 
ENDROOT
BRANCH   3   7
ATOM      7  C   UNL     1       3.141   1.512   4.671  0.00  0.00    +0.000 C 
ATOM      8  N   UNL     1       3.891   2.242   5.549  0.00  0.00    +0.000 N 
ATOM      9  O   UNL     1       2.135   0.930   5.063  0.00  0.00    +0.000 OA
ATOM     10  H   UNL     1       4.736   2.750   5.337  0.00  0.00    +0.000 HD
ATOM     11  H   UNL     1       3.561   2.263   6.507  0.00  0.00    +0.000 HD
ENDBRANCH   3   7
BRANCH   1  13
ATOM     12  C   UNL     1       1.101  -0.424   0.373  0.00  0.00    +0.000 C 
ATOM     13  O   UNL     1       2.463  -0.133   0.079  0.00  0.00    +0.000 OA
ENDBRANCH   1  13
BRANCH   6  14
ATOM     14  N   UNL     1       4.512   1.396  -0.788  0.00  0.00    +0.000 N 
ATOM     15  H   UNL     1       4.492   0.490  -1.240  0.00  0.00    +0.000 HD
BRANCH  14  16
ATOM     16  C   UNL     1       5.415   2.385  -1.330  0.00  0.00    +0.000 C 
BRANCH  16  17
ATOM     17  C   UNL     1       4.768   2.931  -2.584  0.00  0.00    +0.000 A 
ATOM     18  C   UNL     1       5.435   2.942  -3.808  0.00  0.00    +0.000 A 
ATOM     19  C   UNL     1       4.765   3.439  -4.916  0.00  0.00    +0.000 A 
ATOM     20  N   UNL     1       3.503   3.921  -4.886  0.00  0.00    +0.000 NA
ATOM     21  C   UNL     1       2.851   3.919  -3.688  0.00  0.00    +0.000 A 
ATOM     22  C   UNL     1       3.465   3.448  -2.528  0.00  0.00    +0.000 A 
BRANCH  21  23
ATOM     23  C   UNL     1       1.418   4.424  -3.596  0.00  0.00    +0.000 C 
ATOM     24  F   UNL     1       0.885   4.834  -4.783  0.00  0.00    +0.000 F 
ATOM     25  F   UNL     1       0.558   3.478  -3.115  0.00  0.00    +0.000 F 
ATOM     26  F   UNL     1       1.294   5.489  -2.748  0.00  0.00    +0.000 F 
ENDBRANCH  21  23
ENDBRANCH  16  17
ENDBRANCH  14  16
ENDBRANCH   6  14
TORSDOF 6
