REMARK  Name = 
REMARK  4 active torsions:
REMARK  status: ('A' for Active; 'I' for Inactive)
REMARK    1  A    between atoms: C_2  and  C_4
REMARK    2  A    between atoms: N_8  and  C_9
REMARK    3  A    between atoms: C_9  and  C_10
REMARK    4  A    between atoms: C_15  and  C_16
REMARK                            x       y       z     vdW  Elec       q    Type
REMARK                         _______ _______ _______ _____ _____    ______ ____
ROOT
ATOM      1  C   UNL     1       6.427  -3.780  -3.448  0.00  0.00    +0.000 C 
ENDROOT
BRANCH   1   6
ATOM      2  C   UNL     1       3.023  -3.651   0.203  0.00  0.00    +0.000 A 
ATOM      3  C   UNL     1       2.487  -3.187  -0.974  0.00  0.00    +0.000 A 
ATOM      4  N   UNL     1       3.143  -3.222  -2.158  0.00  0.00    +0.000 NA
ATOM      5  C   UNL     1       4.381  -3.734  -2.155  0.00  0.00    +0.000 A 
ATOM      6  N   UNL     1       4.978  -3.847  -3.390  0.00  0.00    +0.000 N 
ATOM      7  N   UNL     1       4.999  -4.183  -1.053  0.00  0.00    +0.000 NA
ATOM      8  C   UNL     1       4.309  -4.121   0.111  0.00  0.00    +0.000 A 
ATOM      9  H   UNL     1       4.497  -3.237  -4.040  0.00  0.00    +0.000 HD
BRANCH   2  11
ATOM     10  N   UNL     1       0.951  -3.726   1.461  0.00  0.00    +0.000 N 
ATOM     11  C   UNL     1       2.316  -3.637   1.490  0.00  0.00    +0.000 C 
ATOM     12  O   UNL     1       2.929  -3.589   2.545  0.00  0.00    +0.000 OA
ATOM     13  H   UNL     1       0.492  -3.820   2.361  0.00  0.00    +0.000 HD
ATOM     14  H   UNL     1       0.432  -4.032   0.650  0.00  0.00    +0.000 HD
ENDBRANCH   2  11
ENDBRANCH   1   6
BRANCH   1  15
ATOM     15  C   UNL     1       6.913  -4.587  -4.642  0.00  0.00    +0.000 A 
ATOM     16  C   UNL     1       6.664  -5.955  -4.674  0.00  0.00    +0.000 A 
ATOM     17  C   UNL     1       7.112  -6.694  -5.756  0.00  0.00    +0.000 A 
ATOM     18  C   UNL     1       7.809  -6.064  -6.786  0.00  0.00    +0.000 A 
ATOM     19 CL   UNL     1       8.423  -7.109  -8.020  0.00  0.00    +0.000 Cl
ATOM     20  C   UNL     1       8.007  -4.672  -6.727  0.00  0.00    +0.000 A 
ATOM     21  N   UNL     1       7.567  -3.946  -5.649  0.00  0.00    +0.000 NA
BRANCH  20  22
ATOM     22  C   UNL     1       8.685  -3.852  -7.767  0.00  0.00    +0.000 A 
ATOM     23  C   UNL     1       8.600  -4.147  -9.141  0.00  0.00    +0.000 A 
ATOM     24  C   UNL     1       9.279  -3.399 -10.107  0.00  0.00    +0.000 A 
ATOM     25  C   UNL     1      10.027  -2.293  -9.727  0.00  0.00    +0.000 A 
ATOM     26  C   UNL     1      10.087  -1.942  -8.382  0.00  0.00    +0.000 A 
ATOM     27 CL   UNL     1      10.982  -0.548  -7.913  0.00  0.00    +0.000 Cl
ATOM     28  C   UNL     1       9.431  -2.708  -7.412  0.00  0.00    +0.000 A 
ENDBRANCH  20  22
ENDBRANCH   1  15
TORSDOF 4
