REMARK  Name = 
REMARK  7 active torsions:
REMARK  status: ('A' for Active; 'I' for Inactive)
REMARK    1  A    between atoms: C_1  and  C_2
REMARK    2  A    between atoms: C_2  and  N_3
REMARK    3  A    between atoms: C_2  and  C_12
REMARK    4  A    between atoms: C_4  and  C_6
REMARK    5  A    between atoms: C_15  and  C_16
REMARK    6  A    between atoms: C_16  and  N_17
REMARK    7  A    between atoms: C_18  and  C_20
REMARK                            x       y       z     vdW  Elec       q    Type
REMARK                         _______ _______ _______ _____ _____    ______ ____
ROOT
ATOM      1  C   UNL     1      -1.514   0.779  -5.681  0.00  0.00    +0.000 A 
ATOM      2  C   UNL     1      -1.279   2.144  -5.463  0.00  0.00    +0.000 A 
ATOM      3  C   UNL     1      -2.344   3.043  -5.358  0.00  0.00    +0.000 A 
ATOM      4  C   UNL     1      -3.665   2.593  -5.467  0.00  0.00    +0.000 A 
ATOM      5  C   UNL     1      -3.901   1.230  -5.685  0.00  0.00    +0.000 A 
ATOM      6  C   UNL     1      -2.839   0.332  -5.779  0.00  0.00    +0.000 A 
ENDROOT
BRANCH   1   8
ATOM      7  C   UNL     1      -0.328  -1.239  -4.740  0.00  0.00    +0.000 C 
ATOM      8  C   UNL     1      -0.348  -0.177  -5.842  0.00  0.00    +0.000 C 
BRANCH   8   9
ATOM      9  N   UNL     1      -0.382  -0.788  -7.164  0.00  0.00    +0.000 N 
ATOM     10  C   UNL     1       0.772  -1.188  -7.802  0.00  0.00    +0.000 C 
ATOM     11  O   UNL     1       1.881  -1.017  -7.306  0.00  0.00    +0.000 OA
ATOM     12  H   UNL     1      -1.260  -0.816  -7.665  0.00  0.00    +0.000 HD
BRANCH  10  13
ATOM     13  C   UNL     1       0.545  -1.839  -9.188  0.00  0.00    +0.000 C 
ATOM     14  C   UNL     1       1.866  -2.226  -9.866  0.00  0.00    +0.000 C 
ATOM     15  C   UNL     1       2.545  -3.407  -9.175  0.00  0.00    +0.000 C 
ATOM     16  C   UNL     1       1.575  -4.571  -9.016  0.00  0.00    +0.000 C 
ATOM     17  C   UNL     1       0.253  -4.133  -8.390  0.00  0.00    +0.000 C 
ATOM     18  N   UNL     1      -0.361  -3.009  -9.103  0.00  0.00    +0.000 NA
ATOM     19  H   UNL     1      -1.224  -2.751  -8.631  0.00  0.00    +0.000 HD
ENDBRANCH  10  13
ENDBRANCH   8   9
ENDBRANCH   1   8
BRANCH   4  20
ATOM     20  C   UNL     1      -4.820   3.559  -5.440  0.00  0.00    +0.000 C 
BRANCH  20  21
ATOM     21  N   UNL     1      -5.126   4.012  -6.773  0.00  0.00    +0.000 N 
ATOM     22  C   UNL     1      -6.092   4.953  -7.009  0.00  0.00    +0.000 C 
ATOM     23  O   UNL     1      -6.727   5.478  -6.098  0.00  0.00    +0.000 OA
ATOM     24  H   UNL     1      -4.789   3.440  -7.541  0.00  0.00    +0.000 HD
BRANCH  22  25
ATOM     25  C   UNL     1      -6.280   5.354  -8.409  0.00  0.00    +0.000 A 
ATOM     26  C   UNL     1      -6.828   6.596  -8.700  0.00  0.00    +0.000 A 
ATOM     27  S   UNL     1      -6.913   6.932 -10.370  0.00  0.00    +0.000 S 
ATOM     28  C   UNL     1      -6.275   5.406 -10.765  0.00  0.00    +0.000 A 
ATOM     29  N   UNL     1      -6.104   5.035 -12.063  0.00  0.00    +0.000 NA
ATOM     30  C   UNL     1      -5.639   3.841 -12.219  0.00  0.00    +0.000 A 
ATOM     31  N   UNL     1      -5.326   2.984 -11.196  0.00  0.00    +0.000 N 
ATOM     32  C   UNL     1      -5.455   3.325  -9.870  0.00  0.00    +0.000 A 
ATOM     33  O   UNL     1      -5.128   2.548  -8.979  0.00  0.00    +0.000 OA
ATOM     34  C   UNL     1      -5.983   4.657  -9.639  0.00  0.00    +0.000 A 
ATOM     35  H   UNL     1      -4.962   2.062 -11.388  0.00  0.00    +0.000 HD
ENDBRANCH  22  25
ENDBRANCH  20  21
ENDBRANCH   4  20
TORSDOF 6
