REMARK  Name = 
REMARK  8 active torsions:
REMARK  status: ('A' for Active; 'I' for Inactive)
REMARK    1  A    between atoms: C_1  and  C_2
REMARK    2  A    between atoms: C_2  and  N_3
REMARK    3  A    between atoms: C_2  and  C_25
REMARK    4  A    between atoms: N_3  and  C_4
REMARK    5  A    between atoms: C_4  and  C_5
REMARK    6  A    between atoms: C_8  and  C_9
REMARK    7  A    between atoms: C_9  and  N_10
REMARK    8  A    between atoms: C_11  and  C_13
REMARK                            x       y       z     vdW  Elec       q    Type
REMARK                         _______ _______ _______ _____ _____    ______ ____
ROOT
ATOM      1  C   UNL     1      -0.969  -0.824  -0.927  0.00  0.00    +0.000 A 
ATOM      2  C   UNL     1      -1.582  -1.521  -1.977  0.00  0.00    +0.000 A 
ATOM      3  C   UNL     1      -2.954  -1.792  -1.950  0.00  0.00    +0.000 A 
ATOM      4  C   UNL     1      -3.743  -1.360  -0.875  0.00  0.00    +0.000 A 
ATOM      5  C   UNL     1      -3.127  -0.679   0.183  0.00  0.00    +0.000 A 
ATOM      6  C   UNL     1      -1.757  -0.410   0.155  0.00  0.00    +0.000 A 
ENDROOT
BRANCH   1   7
ATOM      7  C   UNL     1       0.534  -0.684  -0.865  0.00  0.00    +0.000 C 
BRANCH   7   8
ATOM      8  N   UNL     1       1.138  -0.129  -2.081  0.00  0.00    +0.000 NA
ATOM      9  H   UNL     1       0.815   0.835  -2.188  0.00  0.00    +0.000 HD
BRANCH   8  11
ATOM     10  C   UNL     1       3.178  -1.551  -1.856  0.00  0.00    +0.000 C 
ATOM     11  C   UNL     1       2.611  -0.127  -2.006  0.00  0.00    +0.000 C 
BRANCH  11  12
ATOM     12  C   UNL     1       3.240   0.522  -3.239  0.00  0.00    +0.000 A 
ATOM     13  C   UNL     1       4.047   1.667  -3.114  0.00  0.00    +0.000 A 
ATOM     14  C   UNL     1       4.755   2.165  -4.214  0.00  0.00    +0.000 A 
ATOM     15  C   UNL     1       4.664   1.524  -5.447  0.00  0.00    +0.000 A 
ATOM     16 CL   UNL     1       5.601   2.084  -6.778  0.00  0.00    +0.000 Cl
ATOM     17  C   UNL     1       3.833   0.419  -5.603  0.00  0.00    +0.000 A 
ATOM     18  C   UNL     1       3.113  -0.068  -4.509  0.00  0.00    +0.000 A 
ENDBRANCH  11  12
ENDBRANCH   8  11
ENDBRANCH   7   8
ENDBRANCH   1   7
BRANCH   4  19
ATOM     19  C   UNL     1      -5.216  -1.667  -0.821  0.00  0.00    +0.000 C 
BRANCH  19  20
ATOM     20  N   UNL     1      -5.463  -2.925  -0.165  0.00  0.00    +0.000 N 
ATOM     21  C   UNL     1      -6.733  -3.429  -0.049  0.00  0.00    +0.000 C 
ATOM     22  O   UNL     1      -7.709  -2.850  -0.517  0.00  0.00    +0.000 OA
ATOM     23  H   UNL     1      -4.720  -3.297   0.418  0.00  0.00    +0.000 HD
BRANCH  21  24
ATOM     24  C   UNL     1      -6.859  -4.735   0.607  0.00  0.00    +0.000 A 
ATOM     25  C   UNL     1      -7.962  -5.539   0.335  0.00  0.00    +0.000 A 
ATOM     26  S   UNL     1      -7.918  -7.047   1.129  0.00  0.00    +0.000 S 
ATOM     27  C   UNL     1      -6.455  -6.657   1.909  0.00  0.00    +0.000 A 
ATOM     28  N   UNL     1      -5.873  -7.534   2.772  0.00  0.00    +0.000 NA
ATOM     29  C   UNL     1      -4.784  -7.095   3.315  0.00  0.00    +0.000 A 
ATOM     30  N   UNL     1      -4.226  -5.869   3.069  0.00  0.00    +0.000 N 
ATOM     31  C   UNL     1      -4.765  -4.967   2.184  0.00  0.00    +0.000 A 
ATOM     32  O   UNL     1      -4.217  -3.891   1.956  0.00  0.00    +0.000 OA
ATOM     33  C   UNL     1      -5.996  -5.406   1.555  0.00  0.00    +0.000 A 
ATOM     34  H   UNL     1      -3.368  -5.589   3.523  0.00  0.00    +0.000 HD
ENDBRANCH  21  24
ENDBRANCH  19  20
ENDBRANCH   4  19
TORSDOF 7
