REMARK  Name = 
REMARK  6 active torsions:
REMARK  status: ('A' for Active; 'I' for Inactive)
REMARK    1  A    between atoms: C_2  and  C_4
REMARK    2  A    between atoms: N_8  and  C_9
REMARK    3  A    between atoms: C_9  and  C_10
REMARK    4  A    between atoms: C_10  and  C_11
REMARK    5  A    between atoms: C_15  and  O_16
REMARK    6  A    between atoms: O_16  and  C_17
REMARK                            x       y       z     vdW  Elec       q    Type
REMARK                         _______ _______ _______ _____ _____    ______ ____
ROOT
ATOM      1  C   UNL     1       2.952   0.728   1.299  0.00  0.00    +0.000 A 
ATOM      2  C   UNL     1       2.392   0.503   2.552  0.00  0.00    +0.000 A 
ATOM      3  C   UNL     1       3.175   0.695   3.691  0.00  0.00    +0.000 A 
ATOM      4  C   UNL     1       4.505   1.088   3.560  0.00  0.00    +0.000 A 
ATOM      5  N   UNL     1       5.315   1.385   4.645  0.00  0.00    +0.000 N 
ATOM      6  N   UNL     1       5.067   1.274   2.349  0.00  0.00    +0.000 NA
ATOM      7  C   UNL     1       4.290   1.085   1.249  0.00  0.00    +0.000 A 
ATOM      8  H   UNL     1       6.262   1.497   4.285  0.00  0.00    +0.000 HD
ENDROOT
BRANCH   1  10
ATOM      9  N   UNL     1       0.834   0.840   0.121  0.00  0.00    +0.000 N 
ATOM     10  C   UNL     1       2.180   0.606   0.048  0.00  0.00    +0.000 C 
ATOM     11  O   UNL     1       2.724   0.347  -1.019  0.00  0.00    +0.000 OA
ATOM     12  H   UNL     1       0.332   0.866  -0.758  0.00  0.00    +0.000 HD
ATOM     13  H   UNL     1       0.407   1.300   0.913  0.00  0.00    +0.000 HD
ENDBRANCH   1  10
BRANCH   5  14
ATOM     14  C   UNL     1       5.179   0.593   5.859  0.00  0.00    +0.000 C 
BRANCH  14  15
ATOM     15  C   UNL     1       6.224   1.008   6.901  0.00  0.00    +0.000 C 
BRANCH  15  16
ATOM     16  C   UNL     1       6.005   0.283   8.208  0.00  0.00    +0.000 A 
ATOM     17  C   UNL     1       5.164   0.824   9.189  0.00  0.00    +0.000 A 
ATOM     18  C   UNL     1       4.913   0.121  10.369  0.00  0.00    +0.000 A 
ATOM     19  C   UNL     1       5.501  -1.128  10.586  0.00  0.00    +0.000 A 
ATOM     20  C   UNL     1       6.345  -1.671   9.622  0.00  0.00    +0.000 A 
ATOM     21  C   UNL     1       6.588  -0.971   8.436  0.00  0.00    +0.000 A 
BRANCH  20  22
ATOM     22  O   UNL     1       6.947  -2.901   9.711  0.00  0.00    +0.000 OA
BRANCH  22  23
ATOM     23  C   UNL     1       7.179  -3.480  11.016  0.00  0.00    +0.000 C 
ATOM     24  C   UNL     1       8.233  -2.789  11.912  0.00  0.00    +0.000 C 
ATOM     25  C   UNL     1       8.889  -4.152  12.168  0.00  0.00    +0.000 C 
ATOM     26  C   UNL     1       8.094  -4.728  10.991  0.00  0.00    +0.000 C 
ENDBRANCH  22  23
ENDBRANCH  20  22
ENDBRANCH  15  16
ENDBRANCH  14  15
ENDBRANCH   5  14
TORSDOF 6
