REMARK  Name = 
REMARK  6 active torsions:
REMARK  status: ('A' for Active; 'I' for Inactive)
REMARK    1  A    between atoms: C_2  and  C_4
REMARK    2  A    between atoms: C_7  and  O_8
REMARK    3  A    between atoms: O_8  and  C_9
REMARK    4  A    between atoms: C_9  and  C_10
REMARK    5  A    between atoms: C_10  and  C_13
REMARK    6  A    between atoms: C_17  and  N_18
REMARK                            x       y       z     vdW  Elec       q    Type
REMARK                         _______ _______ _______ _____ _____    ______ ____
ROOT
ATOM      1  C   UNL     1       6.087  -5.166  -4.795  0.00  0.00    +0.000 C 
ATOM      2  F   UNL     1       6.573  -3.898  -4.650  0.00  0.00    +0.000 F 
ATOM      3  F   UNL     1       7.070  -5.989  -4.319  0.00  0.00    +0.000 F 
ENDROOT
BRANCH   1   4
ATOM      4  C   UNL     1       5.734  -5.483  -6.239  0.00  0.00    +0.000 A 
ATOM      5  C   UNL     1       5.871  -6.791  -6.721  0.00  0.00    +0.000 A 
ATOM      6  C   UNL     1       5.472  -7.101  -8.015  0.00  0.00    +0.000 A 
ATOM      7  C   UNL     1       4.912  -6.111  -8.825  0.00  0.00    +0.000 A 
ATOM      8  C   UNL     1       4.744  -4.790  -8.384  0.00  0.00    +0.000 A 
ATOM      9  C   UNL     1       5.193  -4.493  -7.088  0.00  0.00    +0.000 A 
BRANCH   8  10
ATOM     10  N   UNL     1       4.163  -3.846  -9.200  0.00  0.00    +0.000 N 
ATOM     11  C   UNL     1       3.017  -4.164 -10.066  0.00  0.00    +0.000 C 
ATOM     12  C   UNL     1       3.299  -3.646 -11.482  0.00  0.00    +0.000 C 
ATOM     13  O   UNL     1       3.582  -2.234 -11.473  0.00  0.00    +0.000 OA
ATOM     14  C   UNL     1       4.727  -1.957 -10.645  0.00  0.00    +0.000 C 
ATOM     15  C   UNL     1       4.517  -2.422  -9.189  0.00  0.00    +0.000 C 
ENDBRANCH   8  10
ENDBRANCH   1   4
BRANCH   1  16
ATOM     16  C   UNL     1       4.838  -5.326  -3.915  0.00  0.00    +0.000 C 
BRANCH  16  17
ATOM     17  O   UNL     1       5.134  -5.131  -2.518  0.00  0.00    +0.000 OA
BRANCH  17  21
ATOM     18  C   UNL     1       1.779  -5.491  -0.148  0.00  0.00    +0.000 A 
ATOM     19  C   UNL     1       3.012  -5.207   0.444  0.00  0.00    +0.000 A 
ATOM     20  C   UNL     1       4.147  -5.098  -0.366  0.00  0.00    +0.000 A 
ATOM     21  C   UNL     1       4.003  -5.274  -1.734  0.00  0.00    +0.000 A 
ATOM     22  N   UNL     1       2.826  -5.567  -2.327  0.00  0.00    +0.000 NA
ATOM     23  C   UNL     1       1.744  -5.681  -1.523  0.00  0.00    +0.000 A 
BRANCH  18  25
ATOM     24  N   UNL     1       0.399  -4.882   1.756  0.00  0.00    +0.000 N 
ATOM     25  C   UNL     1       0.512  -5.605   0.603  0.00  0.00    +0.000 C 
ATOM     26  O   UNL     1      -0.420  -6.278   0.184  0.00  0.00    +0.000 OA
ATOM     27  H   UNL     1      -0.522  -4.866   2.178  0.00  0.00    +0.000 HD
ATOM     28  H   UNL     1       1.026  -4.124   1.984  0.00  0.00    +0.000 HD
ENDBRANCH  18  25
ENDBRANCH  17  21
ENDBRANCH  16  17
ENDBRANCH   1  16
TORSDOF 6
