REMARK  Name = 
REMARK  7 active torsions:
REMARK  status: ('A' for Active; 'I' for Inactive)
REMARK    1  A    between atoms: C_2  and  C_21
REMARK    2  A    between atoms: N_3  and  C_4
REMARK    3  A    between atoms: C_4  and  C_5
REMARK    4  A    between atoms: C_8  and  C_9
REMARK    5  A    between atoms: C_9  and  C_10
REMARK    6  A    between atoms: C_10  and  O_11
REMARK    7  A    between atoms: C_10  and  C_12
REMARK                            x       y       z     vdW  Elec       q    Type
REMARK                         _______ _______ _______ _____ _____    ______ ____
ROOT
ATOM      1  C   UNL     1       8.046  -2.960  -2.518  0.00  0.00    +0.000 A 
ATOM      2  C   UNL     1       7.342  -3.393  -3.647  0.00  0.00    +0.000 A 
ATOM      3  C   UNL     1       7.143  -2.546  -4.741  0.00  0.00    +0.000 A 
ATOM      4  C   UNL     1       7.637  -1.235  -4.731  0.00  0.00    +0.000 A 
ATOM      5  C   UNL     1       8.348  -0.804  -3.599  0.00  0.00    +0.000 A 
ATOM      6  C   UNL     1       8.559  -1.658  -2.508  0.00  0.00    +0.000 A 
ENDROOT
BRANCH   1   7
ATOM      7  C   UNL     1       8.277  -3.900  -1.360  0.00  0.00    +0.000 C 
BRANCH   7  10
ATOM      8  O   UNL     1       8.499  -6.495  -2.459  0.00  0.00    +0.000 OA
ATOM      9  C   UNL     1       9.520  -5.886  -2.148  0.00  0.00    +0.000 C 
ATOM     10  N   UNL     1       9.491  -4.660  -1.538  0.00  0.00    +0.000 N 
ATOM     11  H   UNL     1      10.352  -4.133  -1.450  0.00  0.00    +0.000 HD
BRANCH   9  12
ATOM     12  C   UNL     1      10.852  -6.464  -2.379  0.00  0.00    +0.000 A 
ATOM     13  C   UNL     1      10.992  -7.836  -2.546  0.00  0.00    +0.000 A 
ATOM     14  S   UNL     1      12.604  -8.333  -2.800  0.00  0.00    +0.000 S 
ATOM     15  C   UNL     1      13.167  -6.726  -2.749  0.00  0.00    +0.000 A 
ATOM     16  N   UNL     1      14.482  -6.439  -2.939  0.00  0.00    +0.000 NA
ATOM     17  C   UNL     1      14.759  -5.178  -2.919  0.00  0.00    +0.000 A 
ATOM     18  N   UNL     1      13.845  -4.180  -2.713  0.00  0.00    +0.000 N 
ATOM     19  C   UNL     1      12.524  -4.427  -2.430  0.00  0.00    +0.000 A 
ATOM     20  O   UNL     1      11.769  -3.519  -2.102  0.00  0.00    +0.000 OA
ATOM     21  C   UNL     1      12.144  -5.827  -2.500  0.00  0.00    +0.000 A 
ATOM     22  H   UNL     1      14.133  -3.214  -2.675  0.00  0.00    +0.000 HD
ENDBRANCH   9  12
ENDBRANCH   7  10
ENDBRANCH   1   7
BRANCH   4  23
ATOM     23  C   UNL     1       7.517  -0.335  -5.944  0.00  0.00    +0.000 C 
BRANCH  23  24
ATOM     24  C   UNL     1       6.121   0.156  -6.351  0.00  0.00    +0.000 C 
BRANCH  24  25
ATOM     25  C   UNL     1       5.178  -0.929  -6.907  0.00  0.00    +0.000 C 
ATOM     26  O   UNL     1       4.259  -1.350  -6.195  0.00  0.00    +0.000 OA
ATOM     27  N   UNL     1       5.332  -1.355  -8.208  0.00  0.00    +0.000 N 
ATOM     28  C   UNL     1       6.299  -0.916  -9.199  0.00  0.00    +0.000 C 
ATOM     29  C   UNL     1       5.536  -1.016 -10.510  0.00  0.00    +0.000 C 
ATOM     30  C   UNL     1       4.644  -2.234 -10.307  0.00  0.00    +0.000 C 
ATOM     31  C   UNL     1       4.342  -2.234  -8.811  0.00  0.00    +0.000 C 
ENDBRANCH  24  25
BRANCH  24  32
ATOM     32  O   UNL     1       5.504   0.866  -5.273  0.00  0.00    +0.000 OA
ATOM     33  H   UNL     1       4.795   0.274  -4.947  0.00  0.00    +0.000 HD
ENDBRANCH  24  32
ENDBRANCH  23  24
ENDBRANCH   4  23
TORSDOF 7
