REMARK  Name = 
REMARK  7 active torsions:
REMARK  status: ('A' for Active; 'I' for Inactive)
REMARK    1  A    between atoms: C_2  and  C_19
REMARK    2  A    between atoms: N_3  and  C_4
REMARK    3  A    between atoms: C_4  and  C_5
REMARK    4  A    between atoms: C_8  and  C_9
REMARK    5  A    between atoms: C_9  and  C_10
REMARK    6  A    between atoms: C_10  and  O_11
REMARK    7  A    between atoms: O_11  and  C_12
REMARK                            x       y       z     vdW  Elec       q    Type
REMARK                         _______ _______ _______ _____ _____    ______ ____
ROOT
ATOM      1  C   UNL     1       2.310   0.619   2.441  0.00  0.00    +0.000 C 
ENDROOT
BRANCH   1   2
ATOM      2  C   UNL     1       3.273   0.930   3.544  0.00  0.00    +0.000 A 
ATOM      3  C   UNL     1       3.524   2.242   3.947  0.00  0.00    +0.000 A 
ATOM      4  C   UNL     1       4.393   2.494   5.010  0.00  0.00    +0.000 A 
ATOM      5  C   UNL     1       5.013   1.420   5.640  0.00  0.00    +0.000 A 
ATOM      6  N   UNL     1       4.811   0.143   5.239  0.00  0.00    +0.000 NA
ATOM      7  C   UNL     1       3.964  -0.074   4.207  0.00  0.00    +0.000 A 
BRANCH   5   8
ATOM      8  C   UNL     1       5.934   1.658   6.816  0.00  0.00    +0.000 C 
BRANCH   8   9
ATOM      9  C   UNL     1       6.514   0.360   7.386  0.00  0.00    +0.000 C 
BRANCH   9  10
ATOM     10  O   UNL     1       7.381   0.656   8.491  0.00  0.00    +0.000 OA
BRANCH  10  11
ATOM     11  C   UNL     1       7.914  -0.431   9.041  0.00  0.00    +0.000 A 
ATOM     12  N   UNL     1       7.756  -1.673   8.633  0.00  0.00    +0.000 NA
ATOM     13  C   UNL     1       8.471  -2.441   9.508  0.00  0.00    +0.000 A 
ATOM     14  C   UNL     1       9.068  -1.654  10.469  0.00  0.00    +0.000 A 
ATOM     15  N   UNL     1       8.709  -0.369  10.145  0.00  0.00    +0.000 N 
ATOM     16  H   UNL     1       8.967   0.476  10.628  0.00  0.00    +0.000 HD
ENDBRANCH  10  11
ENDBRANCH   9  10
ENDBRANCH   8   9
ENDBRANCH   5   8
ENDBRANCH   1   2
BRANCH   1  19
ATOM     17  O   UNL     1       2.446   2.804   0.672  0.00  0.00    +0.000 OA
ATOM     18  C   UNL     1       3.000   1.752   0.364  0.00  0.00    +0.000 C 
ATOM     19  N   UNL     1       2.946   0.631   1.149  0.00  0.00    +0.000 N 
ATOM     20  H   UNL     1       3.564  -0.147   0.943  0.00  0.00    +0.000 HD
BRANCH  18  21
ATOM     21  C   UNL     1       3.718   1.610  -0.908  0.00  0.00    +0.000 A 
ATOM     22  C   UNL     1       3.383   2.415  -1.988  0.00  0.00    +0.000 A 
ATOM     23  S   UNL     1       4.331   2.119  -3.376  0.00  0.00    +0.000 S 
ATOM     24  C   UNL     1       5.240   0.929  -2.568  0.00  0.00    +0.000 A 
ATOM     25  N   UNL     1       6.264   0.284  -3.187  0.00  0.00    +0.000 NA
ATOM     26  C   UNL     1       6.891  -0.564  -2.441  0.00  0.00    +0.000 A 
ATOM     27  N   UNL     1       6.577  -0.840  -1.137  0.00  0.00    +0.000 N 
ATOM     28  C   UNL     1       5.502  -0.274  -0.499  0.00  0.00    +0.000 A 
ATOM     29  O   UNL     1       5.151  -0.656   0.614  0.00  0.00    +0.000 OA
ATOM     30  C   UNL     1       4.801   0.733  -1.272  0.00  0.00    +0.000 A 
ATOM     31  H   UNL     1       7.081  -1.544  -0.620  0.00  0.00    +0.000 HD
ENDBRANCH  18  21
ENDBRANCH   1  19
TORSDOF 7
