REMARK  Name = 
REMARK  5 active torsions:
REMARK  status: ('A' for Active; 'I' for Inactive)
REMARK    1  A    between atoms: N_1  and  C_2
REMARK    2  A    between atoms: C_2  and  C_3
REMARK    3  A    between atoms: C_6  and  C_7
REMARK    4  A    between atoms: C_7  and  N_8
REMARK    5  A    between atoms: C_13  and  C_14
REMARK                            x       y       z     vdW  Elec       q    Type
REMARK                         _______ _______ _______ _____ _____    ______ ____
ROOT
ATOM      1  N   UNL     1      -0.319   3.897   3.189  0.00  0.00    +0.000 N 
ATOM      2  C   UNL     1      -0.050   4.747   4.234  0.00  0.00    +0.000 A 
ATOM      3  C   UNL     1      -0.876   4.404   5.279  0.00  0.00    +0.000 A 
ATOM      4  C   UNL     1      -1.748   3.382   4.818  0.00  0.00    +0.000 A 
ATOM      5  C   UNL     1      -2.811   2.680   5.418  0.00  0.00    +0.000 A 
ATOM      6  C   UNL     1      -3.536   1.744   4.666  0.00  0.00    +0.000 A 
ATOM      7  C   UNL     1      -3.173   1.486   3.339  0.00  0.00    +0.000 A 
ATOM      8  C   UNL     1      -2.098   2.146   2.736  0.00  0.00    +0.000 A 
ATOM      9  C   UNL     1      -1.405   3.101   3.494  0.00  0.00    +0.000 A 
ENDROOT
BRANCH   6  10
ATOM     10  C   UNL     1      -4.712   1.016   5.221  0.00  0.00    +0.000 C 
ATOM     11  N   UNL     1      -5.101   1.279   6.501  0.00  0.00    +0.000 N 
ATOM     12  O   UNL     1      -5.339   0.199   4.546  0.00  0.00    +0.000 OA
ATOM     13  H   UNL     1      -4.671   1.953   7.112  0.00  0.00    +0.000 HD
ATOM     14  H   UNL     1      -5.924   0.796   6.837  0.00  0.00    +0.000 HD
ENDBRANCH   6  10
BRANCH   1  15
ATOM     15  C   UNL     1       0.462   3.828   1.962  0.00  0.00    +0.000 C 
BRANCH  15  19
ATOM     16  C   UNL     1       2.902   0.988   0.717  0.00  0.00    +0.000 C 
ATOM     17  C   UNL     1       1.987   0.888   1.945  0.00  0.00    +0.000 C 
ATOM     18  C   UNL     1       2.113   2.086   2.882  0.00  0.00    +0.000 C 
ATOM     19  C   UNL     1       1.941   3.452   2.189  0.00  0.00    +0.000 C 
ATOM     20  C   UNL     1       2.724   3.547   0.868  0.00  0.00    +0.000 C 
ATOM     21  C   UNL     1       2.620   2.307  -0.019  0.00  0.00    +0.000 C 
BRANCH  16  22
ATOM     22  C   UNL     1       4.403   0.822   1.042  0.00  0.00    +0.000 C 
BRANCH  22  23
ATOM     23  N   UNL     1       4.711  -0.487   1.614  0.00  0.00    +0.000 NA
ATOM     24  H   UNL     1       5.701  -0.691   1.478  0.00  0.00    +0.000 HD
ATOM     25  H   UNL     1       4.199  -1.219   1.123  0.00  0.00    +0.000 HD
ENDBRANCH  22  23
ENDBRANCH  16  22
ENDBRANCH  15  19
ENDBRANCH   1  15
TORSDOF 5
