REMARK  Name = 
REMARK  7 active torsions:
REMARK  status: ('A' for Active; 'I' for Inactive)
REMARK    1  A    between atoms: C_1  and  C_2
REMARK    2  A    between atoms: C_2  and  N_3
REMARK    3  A    between atoms: C_2  and  C_13
REMARK    4  A    between atoms: C_4  and  C_6
REMARK    5  A    between atoms: C_16  and  C_17
REMARK    6  A    between atoms: C_17  and  N_18
REMARK    7  A    between atoms: C_19  and  C_21
REMARK                            x       y       z     vdW  Elec       q    Type
REMARK                         _______ _______ _______ _____ _____    ______ ____
ROOT
ATOM      1  C   UNL     1       7.657  -3.182  -3.928  0.00  0.00    +0.000 A 
ATOM      2  C   UNL     1       7.140  -4.151  -4.799  0.00  0.00    +0.000 A 
ATOM      3  C   UNL     1       7.749  -5.406  -4.917  0.00  0.00    +0.000 A 
ATOM      4  C   UNL     1       8.883  -5.724  -4.156  0.00  0.00    +0.000 A 
ATOM      5  C   UNL     1       9.399  -4.757  -3.285  0.00  0.00    +0.000 A 
ATOM      6  C   UNL     1       8.785  -3.509  -3.160  0.00  0.00    +0.000 A 
ENDROOT
BRANCH   1   8
ATOM      7  C   UNL     1       6.439  -1.524  -2.470  0.00  0.00    +0.000 C 
ATOM      8  C   UNL     1       7.030  -1.797  -3.855  0.00  0.00    +0.000 C 
BRANCH   8   9
ATOM      9  N   UNL     1       8.017  -0.784  -4.212  0.00  0.00    +0.000 N 
ATOM     10  C   UNL     1       7.691   0.379  -4.871  0.00  0.00    +0.000 C 
ATOM     11  O   UNL     1       6.527   0.695  -5.109  0.00  0.00    +0.000 OA
ATOM     12  H   UNL     1       8.994  -1.072  -4.239  0.00  0.00    +0.000 HD
BRANCH  10  13
ATOM     13  C   UNL     1       8.882   1.279  -5.219  0.00  0.00    +0.000 C 
ATOM     14  C   UNL     1       8.404   2.571  -5.903  0.00  0.00    +0.000 C 
ATOM     15  C   UNL     1       9.542   3.309  -6.594  0.00  0.00    +0.000 C 
ATOM     16  C   UNL     1      10.141   2.397  -7.644  0.00  0.00    +0.000 C 
ATOM     17  N   UNL     1      10.556   1.144  -7.064  0.00  0.00    +0.000 N 
ATOM     18  C   UNL     1       9.963   0.535  -5.997  0.00  0.00    +0.000 C 
ATOM     19  O   UNL     1      10.383  -0.569  -5.640  0.00  0.00    +0.000 OA
ATOM     20  H   UNL     1      11.221   0.565  -7.563  0.00  0.00    +0.000 HD
ENDBRANCH  10  13
ENDBRANCH   8   9
ENDBRANCH   1   8
BRANCH   4  21
ATOM     21  C   UNL     1       9.573  -7.057  -4.304  0.00  0.00    +0.000 C 
BRANCH  21  22
ATOM     22  N   UNL     1      10.581  -7.011  -5.335  0.00  0.00    +0.000 N 
ATOM     23  C   UNL     1      11.319  -8.114  -5.675  0.00  0.00    +0.000 C 
ATOM     24  O   UNL     1      11.151  -9.204  -5.138  0.00  0.00    +0.000 OA
ATOM     25  H   UNL     1      10.896  -6.091  -5.620  0.00  0.00    +0.000 HD
BRANCH  23  26
ATOM     26  C   UNL     1      12.279  -7.933  -6.773  0.00  0.00    +0.000 A 
ATOM     27  C   UNL     1      12.661  -9.030  -7.541  0.00  0.00    +0.000 A 
ATOM     28  S   UNL     1      13.711  -8.625  -8.822  0.00  0.00    +0.000 S 
ATOM     29  C   UNL     1      13.730  -6.986  -8.367  0.00  0.00    +0.000 A 
ATOM     30  N   UNL     1      14.466  -6.073  -9.058  0.00  0.00    +0.000 NA
ATOM     31  C   UNL     1      14.408  -4.874  -8.586  0.00  0.00    +0.000 A 
ATOM     32  N   UNL     1      13.676  -4.499  -7.490  0.00  0.00    +0.000 N 
ATOM     33  C   UNL     1      12.907  -5.381  -6.771  0.00  0.00    +0.000 A 
ATOM     34  O   UNL     1      12.244  -5.012  -5.805  0.00  0.00    +0.000 OA
ATOM     35  C   UNL     1      12.938  -6.747  -7.260  0.00  0.00    +0.000 A 
ATOM     36  H   UNL     1      13.666  -3.542  -7.169  0.00  0.00    +0.000 HD
ENDBRANCH  23  26
ENDBRANCH  21  22
ENDBRANCH   4  21
TORSDOF 6
