REMARK  Name = 
REMARK  6 active torsions:
REMARK  status: ('A' for Active; 'I' for Inactive)
REMARK    1  A    between atoms: C_2  and  O_3
REMARK    2  A    between atoms: C_2  and  C_4
REMARK    3  A    between atoms: C_8  and  O_9
REMARK    4  A    between atoms: O_9  and  C_10
REMARK    5  A    between atoms: C_10  and  C_11
REMARK    6  A    between atoms: C_15  and  C_16
REMARK                            x       y       z     vdW  Elec       q    Type
REMARK                         _______ _______ _______ _____ _____    ______ ____
ROOT
ATOM      1  C   UNL     1       1.840   1.883   4.747  0.00  0.00    +0.000 C 
ENDROOT
BRANCH   1   2
ATOM      2  C   UNL     1       1.685   2.374   6.163  0.00  0.00    +0.000 A 
ATOM      3  C   UNL     1       1.792   3.728   6.451  0.00  0.00    +0.000 A 
ATOM      4  N   UNL     1       1.653   4.223   7.701  0.00  0.00    +0.000 NA
ATOM      5  C   UNL     1       1.411   3.298   8.662  0.00  0.00    +0.000 A 
ATOM      6  C   UNL     1       1.299   1.931   8.409  0.00  0.00    +0.000 A 
ATOM      7  N   UNL     1       1.446   1.458   7.142  0.00  0.00    +0.000 NA
BRANCH   6   8
ATOM      8  C   UNL     1       1.020   0.931   9.454  0.00  0.00    +0.000 A 
ATOM      9  C   UNL     1       0.226   1.224  10.572  0.00  0.00    +0.000 A 
ATOM     10  C   UNL     1      -0.003   0.239  11.521  0.00  0.00    +0.000 A 
ATOM     11  N   UNL     1       0.497  -1.009  11.444  0.00  0.00    +0.000 NA
ATOM     12  C   UNL     1       1.250  -1.288  10.362  0.00  0.00    +0.000 A 
ATOM     13  C   UNL     1       1.532  -0.371   9.360  0.00  0.00    +0.000 A 
ENDBRANCH   6   8
ENDBRANCH   1   2
BRANCH   1  14
ATOM     14  O   UNL     1       3.229   1.674   4.479  0.00  0.00    +0.000 OA
BRANCH  14  19
ATOM     15  C   UNL     1       3.181   0.504   0.963  0.00  0.00    +0.000 A 
ATOM     16  C   UNL     1       4.552   0.354   0.822  0.00  0.00    +0.000 A 
ATOM     17  N   UNL     1       5.431   0.567   1.825  0.00  0.00    +0.000 NA
ATOM     18  C   UNL     1       4.913   0.991   3.005  0.00  0.00    +0.000 A 
ATOM     19  C   UNL     1       3.558   1.213   3.238  0.00  0.00    +0.000 A 
ATOM     20  C   UNL     1       2.679   0.958   2.189  0.00  0.00    +0.000 A 
BRANCH  15  22
ATOM     21  O   UNL     1       1.213   0.900  -0.278  0.00  0.00    +0.000 OA
ATOM     22  C   UNL     1       2.245   0.264  -0.152  0.00  0.00    +0.000 C 
BRANCH  22  23
ATOM     23  O   UNL     1       2.603  -0.738  -0.980  0.00  0.00    +0.000 OA
ATOM     24  H   UNL     1       3.331  -1.315  -0.684  0.00  0.00    +0.000 HD
ENDBRANCH  22  23
ENDBRANCH  15  22
ENDBRANCH  14  19
ENDBRANCH   1  14
TORSDOF 6
