REMARK  Name = 
REMARK  7 active torsions:
REMARK  status: ('A' for Active; 'I' for Inactive)
REMARK    1  A    between atoms: C_1  and  C_2
REMARK    2  A    between atoms: C_3  and  C_4
REMARK    3  A    between atoms: C_6  and  C_7
REMARK    4  A    between atoms: N_13  and  C_14
REMARK    5  A    between atoms: C_14  and  C_15
REMARK    6  A    between atoms: C_18  and  O_19
REMARK    7  A    between atoms: O_19  and  C_20
REMARK                            x       y       z     vdW  Elec       q    Type
REMARK                         _______ _______ _______ _____ _____    ______ ____
ROOT
ATOM      1  C   UNL     1       4.822   1.627   1.453  0.00  0.00    +0.000 A 
ATOM      2  C   UNL     1       5.206   0.691   2.380  0.00  0.00    +0.000 A 
ATOM      3  C   UNL     1       6.556   0.380   2.401  0.00  0.00    +0.000 A 
ATOM      4  N   UNL     1       7.420   0.971   1.545  0.00  0.00    +0.000 NA
ATOM      5  C   UNL     1       6.973   1.863   0.675  0.00  0.00    +0.000 A 
ATOM      6  N   UNL     1       7.860   2.369  -0.282  0.00  0.00    +0.000 N 
ATOM      7  N   UNL     1       5.667   2.231   0.593  0.00  0.00    +0.000 NA
ATOM      8  H   UNL     1       7.381   3.086  -0.806  0.00  0.00    +0.000 HD
ENDROOT
BRANCH   3   9
ATOM      9  C   UNL     1       7.124  -0.637   3.363  0.00  0.00    +0.000 C 
ATOM     10  F   UNL     1       6.189  -1.179   4.197  0.00  0.00    +0.000 F 
ATOM     11  F   UNL     1       7.709  -1.696   2.732  0.00  0.00    +0.000 F 
ATOM     12  F   UNL     1       8.085  -0.115   4.181  0.00  0.00    +0.000 F 
ENDBRANCH   3   9
BRANCH   1  15
ATOM     13  C   UNL     1       0.688   2.630   1.158  0.00  0.00    +0.000 C 
ATOM     14  C   UNL     1       2.164   2.280   1.256  0.00  0.00    +0.000 C 
ATOM     15  C   UNL     1       3.430   1.980   1.341  0.00  0.00    +0.000 C 
ENDBRANCH   1  15
BRANCH   6  16
ATOM     16  C   UNL     1       9.305   2.579   0.002  0.00  0.00    +0.000 C 
ATOM     17  C   UNL     1      10.268   2.056  -1.069  0.00  0.00    +0.000 C 
ATOM     18  C   UNL     1      10.307   1.466   0.302  0.00  0.00    +0.000 C 
BRANCH  16  19
ATOM     19  C   UNL     1       9.596   3.944   0.601  0.00  0.00    +0.000 A 
ATOM     20  C   UNL     1       9.536   4.151   1.987  0.00  0.00    +0.000 A 
ATOM     21  C   UNL     1       9.818   5.397   2.548  0.00  0.00    +0.000 A 
ATOM     22  C   UNL     1      10.226   6.454   1.738  0.00  0.00    +0.000 A 
ATOM     23  C   UNL     1      10.340   6.253   0.365  0.00  0.00    +0.000 A 
ATOM     24  C   UNL     1       9.978   5.030  -0.200  0.00  0.00    +0.000 A 
BRANCH  22  25
ATOM     25  O   UNL     1      10.460   7.636   2.386  0.00  0.00    +0.000 OA
ATOM     26  C   UNL     1      11.426   8.487   1.783  0.00  0.00    +0.000 C 
ENDBRANCH  22  25
ENDBRANCH  16  19
ENDBRANCH   6  16
TORSDOF 5
