REMARK  Name = 
REMARK  8 active torsions:
REMARK  status: ('A' for Active; 'I' for Inactive)
REMARK    1  A    between atoms: C_2  and  C_4
REMARK    2  A    between atoms: N_8  and  C_9
REMARK    3  A    between atoms: C_9  and  C_10
REMARK    4  A    between atoms: C_10  and  C_13
REMARK    5  A    between atoms: C_17  and  O_18
REMARK    6  A    between atoms: O_18  and  C_19
REMARK    7  A    between atoms: N_21  and  S_22
REMARK    8  A    between atoms: S_22  and  N_23
REMARK                            x       y       z     vdW  Elec       q    Type
REMARK                         _______ _______ _______ _____ _____    ______ ____
ROOT
ATOM      1  C   UNL     1       6.058  -6.088  -3.532  0.00  0.00    +0.000 C 
ATOM      2  F   UNL     1       7.245  -6.510  -2.982  0.00  0.00    +0.000 F 
ATOM      3  F   UNL     1       5.102  -6.484  -2.638  0.00  0.00    +0.000 F 
ENDROOT
BRANCH   1   4
ATOM      4  C   UNL     1       5.834  -6.745  -4.887  0.00  0.00    +0.000 A 
ATOM      5  C   UNL     1       5.592  -6.031  -6.067  0.00  0.00    +0.000 A 
ATOM      6  C   UNL     1       5.406  -6.729  -7.252  0.00  0.00    +0.000 A 
ATOM      7  N   UNL     1       5.453  -8.073  -7.355  0.00  0.00    +0.000 NA
ATOM      8  C   UNL     1       5.685  -8.750  -6.215  0.00  0.00    +0.000 A 
ATOM      9  C   UNL     1       5.873  -8.147  -4.978  0.00  0.00    +0.000 A 
BRANCH   8  10
ATOM     10  O   UNL     1       5.803 -10.123  -6.286  0.00  0.00    +0.000 OA
BRANCH  10  11
ATOM     11  C   UNL     1       5.081 -10.760  -7.371  0.00  0.00    +0.000 C 
ATOM     12  C   UNL     1       5.359 -12.271  -7.546  0.00  0.00    +0.000 C 
ATOM     13  N   UNL     1       5.421 -12.114  -9.040  0.00  0.00    +0.000 NA
ATOM     14  C   UNL     1       5.613 -10.637  -8.819  0.00  0.00    +0.000 C 
BRANCH  13  15
ATOM     15  S   UNL     1       4.232 -12.777 -10.033  0.00  0.00    +0.000 S 
ATOM     16  O   UNL     1       4.220 -14.202  -9.842  0.00  0.00    +0.000 OA
ATOM     17  O   UNL     1       3.053 -11.952  -9.940  0.00  0.00    +0.000 OA
BRANCH  15  18
ATOM     18  N   UNL     1       4.956 -12.472 -11.495  0.00  0.00    +0.000 NA
ATOM     19  H   UNL     1       5.813 -13.006 -11.607  0.00  0.00    +0.000 HD
ATOM     20  H   UNL     1       4.996 -11.484 -11.720  0.00  0.00    +0.000 HD
ENDBRANCH  15  18
ENDBRANCH  13  15
ENDBRANCH  10  11
ENDBRANCH   8  10
ENDBRANCH   1   4
BRANCH   1  21
ATOM     21  C   UNL     1       6.100  -4.535  -3.553  0.00  0.00    +0.000 C 
BRANCH  21  26
ATOM     22  C   UNL     1       6.709   0.220  -2.227  0.00  0.00    +0.000 A 
ATOM     23  C   UNL     1       6.795  -0.480  -1.027  0.00  0.00    +0.000 A 
ATOM     24  C   UNL     1       6.649  -1.868  -1.039  0.00  0.00    +0.000 A 
ATOM     25  C   UNL     1       6.431  -2.534  -2.245  0.00  0.00    +0.000 A 
ATOM     26  N   UNL     1       6.235  -3.923  -2.215  0.00  0.00    +0.000 N 
ATOM     27  N   UNL     1       6.326  -1.859  -3.409  0.00  0.00    +0.000 NA
ATOM     28  C   UNL     1       6.457  -0.506  -3.379  0.00  0.00    +0.000 A 
ATOM     29  H   UNL     1       6.939  -4.385  -1.644  0.00  0.00    +0.000 HD
BRANCH  22  31
ATOM     30  N   UNL     1       7.634   2.295  -1.377  0.00  0.00    +0.000 N 
ATOM     31  C   UNL     1       6.853   1.687  -2.320  0.00  0.00    +0.000 C 
ATOM     32  O   UNL     1       6.332   2.324  -3.225  0.00  0.00    +0.000 OA
ATOM     33  H   UNL     1       7.824   3.281  -1.518  0.00  0.00    +0.000 HD
ATOM     34  H   UNL     1       8.273   1.778  -0.792  0.00  0.00    +0.000 HD
ENDBRANCH  22  31
ENDBRANCH  21  26
ENDBRANCH   1  21
TORSDOF 8
