REMARK  Name = 
REMARK  6 active torsions:
REMARK  status: ('A' for Active; 'I' for Inactive)
REMARK    1  A    between atoms: C_2  and  C_20
REMARK    2  A    between atoms: N_3  and  C_4
REMARK    3  A    between atoms: C_4  and  C_5
REMARK    4  A    between atoms: C_8  and  C_9
REMARK    5  A    between atoms: C_9  and  N_10
REMARK    6  A    between atoms: C_11  and  C_13
REMARK                            x       y       z     vdW  Elec       q    Type
REMARK                         _______ _______ _______ _____ _____    ______ ____
ROOT
ATOM      1  C   UNL     1      11.515  -7.768  -2.688  0.00  0.00    +0.000 C 
ENDROOT
BRANCH   1   2
ATOM      2  C   UNL     1      11.502  -6.605  -3.649  0.00  0.00    +0.000 A 
ATOM      3  C   UNL     1      10.289  -6.069  -4.102  0.00  0.00    +0.000 A 
ATOM      4  C   UNL     1      10.273  -5.011  -5.017  0.00  0.00    +0.000 A 
ATOM      5  C   UNL     1      11.469  -4.481  -5.518  0.00  0.00    +0.000 A 
ATOM      6  C   UNL     1      12.682  -5.019  -5.067  0.00  0.00    +0.000 A 
ATOM      7  C   UNL     1      12.699  -6.077  -4.151  0.00  0.00    +0.000 A 
BRANCH   5   8
ATOM      8  C   UNL     1      11.453  -3.375  -6.539  0.00  0.00    +0.000 C 
BRANCH   8   9
ATOM      9  N   UNL     1      11.530  -2.063  -5.947  0.00  0.00    +0.000 N 
ATOM     10  C   UNL     1      11.568  -0.941  -6.751  0.00  0.00    +0.000 C 
ATOM     11  O   UNL     1      11.640  -1.000  -7.976  0.00  0.00    +0.000 OA
ATOM     12  H   UNL     1      11.242  -1.920  -4.983  0.00  0.00    +0.000 HD
BRANCH  10  13
ATOM     13  C   UNL     1      11.591   0.385  -5.966  0.00  0.00    +0.000 C 
ATOM     14  C   UNL     1      10.942   1.530  -6.729  0.00  0.00    +0.000 C 
ATOM     15  C   UNL     1       9.517   1.471  -6.238  0.00  0.00    +0.000 C 
ATOM     16  C   UNL     1       9.693   1.065  -4.792  0.00  0.00    +0.000 C 
ATOM     17  O   UNL     1      10.877   0.257  -4.723  0.00  0.00    +0.000 OA
ENDBRANCH  10  13
ENDBRANCH   8   9
ENDBRANCH   5   8
ENDBRANCH   1   2
BRANCH   1  20
ATOM     18  O   UNL     1      11.729 -10.300  -1.528  0.00  0.00    +0.000 OA
ATOM     19  C   UNL     1      11.567 -10.222  -2.742  0.00  0.00    +0.000 C 
ATOM     20  N   UNL     1      11.525  -9.020  -3.401  0.00  0.00    +0.000 N 
ATOM     21  H   UNL     1      11.184  -8.993  -4.355  0.00  0.00    +0.000 HD
BRANCH  19  22
ATOM     22  C   UNL     1      11.450 -11.420  -3.582  0.00  0.00    +0.000 A 
ATOM     23  C   UNL     1      11.975 -12.630  -3.145  0.00  0.00    +0.000 A 
ATOM     24  S   UNL     1      11.784 -13.902  -4.267  0.00  0.00    +0.000 S 
ATOM     25  C   UNL     1      10.948 -12.896  -5.354  0.00  0.00    +0.000 A 
ATOM     26  N   UNL     1      10.477 -13.373  -6.536  0.00  0.00    +0.000 NA
ATOM     27  C   UNL     1       9.837 -12.506  -7.247  0.00  0.00    +0.000 A 
ATOM     28  N   UNL     1       9.624 -11.199  -6.885  0.00  0.00    +0.000 N 
ATOM     29  C   UNL     1      10.103 -10.667  -5.713  0.00  0.00    +0.000 A 
ATOM     30  O   UNL     1       9.929  -9.484  -5.437  0.00  0.00    +0.000 OA
ATOM     31  C   UNL     1      10.829 -11.602  -4.874  0.00  0.00    +0.000 A 
ATOM     32  H   UNL     1       9.119 -10.569  -7.488  0.00  0.00    +0.000 HD
ENDBRANCH  19  22
ENDBRANCH   1  20
TORSDOF 6
