REMARK  Name = 
REMARK  9 active torsions:
REMARK  status: ('A' for Active; 'I' for Inactive)
REMARK    1  A    between atoms: C_1  and  C_2
REMARK    2  A    between atoms: C_2  and  C_3
REMARK    3  A    between atoms: C_3  and  N_4
REMARK    4  A    between atoms: C_5  and  C_7
REMARK    5  A    between atoms: N_11  and  C_12
REMARK    6  A    between atoms: C_12  and  C_13
REMARK    7  A    between atoms: C_13  and  C_14
REMARK    8  A    between atoms: C_13  and  C_15
REMARK    9  A    between atoms: C_19  and  C_20
REMARK                            x       y       z     vdW  Elec       q    Type
REMARK                         _______ _______ _______ _____ _____    ______ ____
ROOT
ATOM      1  C   UNL     1       6.653  -1.703  -1.740  0.00  0.00    +0.000 A 
ATOM      2  C   UNL     1       7.172  -2.462  -2.781  0.00  0.00    +0.000 A 
ATOM      3  C   UNL     1       8.556  -2.607  -2.885  0.00  0.00    +0.000 A 
ATOM      4  C   UNL     1       9.399  -2.026  -1.937  0.00  0.00    +0.000 A 
ATOM      5  N   UNL     1      10.766  -2.306  -2.042  0.00  0.00    +0.000 N 
ATOM      6  N   UNL     1       8.903  -1.289  -0.922  0.00  0.00    +0.000 NA
ATOM      7  C   UNL     1       7.552  -1.122  -0.858  0.00  0.00    +0.000 A 
ATOM      8  H   UNL     1      11.144  -2.033  -2.942  0.00  0.00    +0.000 HD
ENDROOT
BRANCH   1  10
ATOM      9  N   UNL     1       4.350  -2.454  -1.995  0.00  0.00    +0.000 N 
ATOM     10  C   UNL     1       5.205  -1.463  -1.562  0.00  0.00    +0.000 C 
ATOM     11  O   UNL     1       4.822  -0.417  -1.043  0.00  0.00    +0.000 OA
ATOM     12  H   UNL     1       4.717  -3.337  -2.322  0.00  0.00    +0.000 HD
BRANCH   9  13
ATOM     13  C   UNL     1       2.908  -2.309  -1.915  0.00  0.00    +0.000 C 
BRANCH  13  15
ATOM     14  C   UNL     1       2.564  -2.422  -4.427  0.00  0.00    +0.000 C 
ATOM     15  C   UNL     1       2.317  -1.630  -3.151  0.00  0.00    +0.000 C 
ENDBRANCH  13  15
ENDBRANCH   9  13
ENDBRANCH   1  10
BRANCH   5  16
ATOM     16  C   UNL     1      11.595  -2.048  -0.867  0.00  0.00    +0.000 C 
BRANCH  16  17
ATOM     17  C   UNL     1      13.109  -2.156  -1.189  0.00  0.00    +0.000 C 
ATOM     18  C   UNL     1      13.584  -1.022  -2.111  0.00  0.00    +0.000 C 
BRANCH  17  19
ATOM     19  C   UNL     1      13.937  -2.182   0.092  0.00  0.00    +0.000 A 
ATOM     20  C   UNL     1      13.886  -1.135   1.021  0.00  0.00    +0.000 A 
ATOM     21  C   UNL     1      14.644  -1.218   2.182  0.00  0.00    +0.000 A 
ATOM     22  N   UNL     1      15.449  -2.257   2.487  0.00  0.00    +0.000 NA
ATOM     23  C   UNL     1      15.493  -3.267   1.574  0.00  0.00    +0.000 A 
ATOM     24  C   UNL     1      14.771  -3.271   0.381  0.00  0.00    +0.000 A 
BRANCH  23  25
ATOM     25  C   UNL     1      16.378  -4.428   1.901  0.00  0.00    +0.000 C 
ATOM     26  N   UNL     1      17.054  -4.353   3.094  0.00  0.00    +0.000 N 
ATOM     27  O   UNL     1      16.508  -5.394   1.161  0.00  0.00    +0.000 OA
ATOM     28  H   UNL     1      16.925  -3.540   3.687  0.00  0.00    +0.000 HD
ATOM     29  H   UNL     1      17.661  -5.105   3.369  0.00  0.00    +0.000 HD
ENDBRANCH  23  25
ENDBRANCH  17  19
ENDBRANCH  16  17
ENDBRANCH   5  16
TORSDOF 7
