REMARK  Name = 
REMARK  8 active torsions:
REMARK  status: ('A' for Active; 'I' for Inactive)
REMARK    1  A    between atoms: C_1  and  C_2
REMARK    2  A    between atoms: C_2  and  N_3
REMARK    3  A    between atoms: N_3  and  C_4
REMARK    4  A    between atoms: C_4  and  C_5
REMARK    5  A    between atoms: C_5  and  C_6
REMARK    6  A    between atoms: C_5  and  C_7
REMARK    7  A    between atoms: C_11  and  C_12
REMARK    8  A    between atoms: C_18  and  C_19
REMARK                            x       y       z     vdW  Elec       q    Type
REMARK                         _______ _______ _______ _____ _____    ______ ____
ROOT
ATOM      1  N   UNL     1       3.017   1.074   0.802  0.00  0.00    +0.000 N 
ATOM      2  C   UNL     1       4.382   1.118   1.106  0.00  0.00    +0.000 A 
ATOM      3  C   UNL     1       4.957   2.325   1.501  0.00  0.00    +0.000 A 
ATOM      4  C   UNL     1       6.301   2.393   1.854  0.00  0.00    +0.000 A 
ATOM      5  C   UNL     1       7.083   1.248   1.800  0.00  0.00    +0.000 A 
ATOM      6  C   UNL     1       6.460   0.090   1.362  0.00  0.00    +0.000 A 
ATOM      7  N   UNL     1       5.145   0.009   1.008  0.00  0.00    +0.000 NA
ENDROOT
BRANCH   5   8
ATOM      8  C   UNL     1       8.505   1.349   2.201  0.00  0.00    +0.000 C 
ATOM      9  N   UNL     1       9.295   0.237   2.154  0.00  0.00    +0.000 N 
ATOM     10  O   UNL     1       8.980   2.416   2.579  0.00  0.00    +0.000 OA
ATOM     11  H   UNL     1       9.010  -0.684   1.865  0.00  0.00    +0.000 HD
ATOM     12  H   UNL     1      10.258   0.364   2.444  0.00  0.00    +0.000 HD
ENDBRANCH   5   8
BRANCH   1  14
ATOM     13  C   UNL     1       2.470  -1.347   0.246  0.00  0.00    +0.000 C 
ATOM     14  C   UNL     1       2.608   0.096  -0.220  0.00  0.00    +0.000 C 
ENDBRANCH   1  14
BRANCH   1  15
ATOM     15  C   UNL     1       2.100   1.360   1.933  0.00  0.00    +0.000 C 
BRANCH  15  16
ATOM     16  C   UNL     1       1.603   2.836   1.950  0.00  0.00    +0.000 C 
ATOM     17  C   UNL     1       0.752   3.171   0.721  0.00  0.00    +0.000 C 
BRANCH  16  18
ATOM     18  C   UNL     1       0.862   3.229   3.230  0.00  0.00    +0.000 A 
ATOM     19  C   UNL     1      -0.301   2.564   3.642  0.00  0.00    +0.000 A 
ATOM     20  C   UNL     1      -0.997   2.977   4.782  0.00  0.00    +0.000 A 
ATOM     21  C   UNL     1      -0.541   4.058   5.534  0.00  0.00    +0.000 A 
ATOM     22  C   UNL     1       0.617   4.738   5.148  0.00  0.00    +0.000 A 
ATOM     23  C   UNL     1       1.312   4.322   4.000  0.00  0.00    +0.000 A 
BRANCH  22  24
ATOM     24  C   UNL     1       1.081   5.858   5.916  0.00  0.00    +0.000 C 
ATOM     25  N   UNL     1       1.457   6.767   6.536  0.00  0.00    +0.000 NA
ENDBRANCH  22  24
ENDBRANCH  16  18
ENDBRANCH  15  16
ENDBRANCH   1  15
TORSDOF 6
