REMARK  Name = 
REMARK  6 active torsions:
REMARK  status: ('A' for Active; 'I' for Inactive)
REMARK    1  A    between atoms: C_2  and  C_25
REMARK    2  A    between atoms: N_3  and  C_4
REMARK    3  A    between atoms: C_4  and  C_5
REMARK    4  A    between atoms: C_8  and  C_9
REMARK    5  A    between atoms: C_9  and  N_10
REMARK    6  A    between atoms: C_11  and  C_13
REMARK                            x       y       z     vdW  Elec       q    Type
REMARK                         _______ _______ _______ _____ _____    ______ ____
ROOT
ATOM      1  C   UNL     1       3.290   2.183  -2.949  0.00  0.00    +0.000 A 
ATOM      2  C   UNL     1       3.179   3.563  -3.100  0.00  0.00    +0.000 A 
ATOM      3  C   UNL     1       3.990   4.206  -4.033  0.00  0.00    +0.000 A 
ATOM      4  C   UNL     1       4.905   3.468  -4.787  0.00  0.00    +0.000 A 
ATOM      5  C   UNL     1       4.929   2.094  -4.583  0.00  0.00    +0.000 A 
ATOM      6  N   UNL     1       4.146   1.435  -3.694  0.00  0.00    +0.000 NA
ENDROOT
BRANCH   1   7
ATOM      7  C   UNL     1       2.391   1.451  -1.980  0.00  0.00    +0.000 C 
BRANCH   7  10
ATOM      8  O   UNL     1       0.046   2.947  -2.031  0.00  0.00    +0.000 OA
ATOM      9  C   UNL     1       0.046   1.852  -2.588  0.00  0.00    +0.000 C 
ATOM     10  N   UNL     1       1.153   1.036  -2.606  0.00  0.00    +0.000 N 
ATOM     11  H   UNL     1       1.219   0.292  -3.284  0.00  0.00    +0.000 HD
BRANCH   9  12
ATOM     12  C   UNL     1      -1.150   1.343  -3.264  0.00  0.00    +0.000 A 
ATOM     13  C   UNL     1      -2.359   2.110  -3.419  0.00  0.00    +0.000 A 
ATOM     14  C   UNL     1      -3.370   1.412  -4.036  0.00  0.00    +0.000 A 
ATOM     15  S   UNL     1      -2.884  -0.168  -4.457  0.00  0.00    +0.000 S 
ATOM     16  C   UNL     1      -1.321   0.078  -3.797  0.00  0.00    +0.000 A 
ENDBRANCH   9  12
ENDBRANCH   7  10
ENDBRANCH   1   7
BRANCH   4  17
ATOM     17  C   UNL     1       5.796   4.123  -5.804  0.00  0.00    +0.000 C 
BRANCH  17  18
ATOM     18  N   UNL     1       5.175   4.172  -7.101  0.00  0.00    +0.000 N 
ATOM     19  C   UNL     1       5.853   4.641  -8.203  0.00  0.00    +0.000 C 
ATOM     20  O   UNL     1       7.026   4.997  -8.141  0.00  0.00    +0.000 OA
ATOM     21  H   UNL     1       4.160   4.138  -7.133  0.00  0.00    +0.000 HD
BRANCH  19  22
ATOM     22  C   UNL     1       5.120   4.628  -9.476  0.00  0.00    +0.000 A 
ATOM     23  C   UNL     1       5.812   4.564 -10.678  0.00  0.00    +0.000 A 
ATOM     24  S   UNL     1       4.798   4.513 -12.050  0.00  0.00    +0.000 S 
ATOM     25  C   UNL     1       3.398   4.629 -11.089  0.00  0.00    +0.000 A 
ATOM     26  N   UNL     1       2.160   4.667 -11.651  0.00  0.00    +0.000 NA
ATOM     27  C   UNL     1       1.193   4.789 -10.807  0.00  0.00    +0.000 A 
ATOM     28  N   UNL     1       1.348   4.867  -9.446  0.00  0.00    +0.000 N 
ATOM     29  C   UNL     1       2.573   4.795  -8.830  0.00  0.00    +0.000 A 
ATOM     30  O   UNL     1       2.677   4.806  -7.608  0.00  0.00    +0.000 OA
ATOM     31  C   UNL     1       3.699   4.680  -9.740  0.00  0.00    +0.000 A 
ATOM     32  H   UNL     1       0.548   4.946  -8.837  0.00  0.00    +0.000 HD
ENDBRANCH  19  22
ENDBRANCH  17  18
ENDBRANCH   4  17
TORSDOF 6
