REMARK  Name = 
REMARK  6 active torsions:
REMARK  status: ('A' for Active; 'I' for Inactive)
REMARK    1  A    between atoms: C_2  and  C_20
REMARK    2  A    between atoms: N_3  and  C_4
REMARK    3  A    between atoms: C_4  and  C_5
REMARK    4  A    between atoms: C_8  and  C_9
REMARK    5  A    between atoms: C_9  and  C_10
REMARK    6  A    between atoms: C_10  and  C_11
REMARK                            x       y       z     vdW  Elec       q    Type
REMARK                         _______ _______ _______ _____ _____    ______ ____
ROOT
ATOM      1  C   UNL     1       2.254  -0.939  -2.264  0.00  0.00    +0.000 C 
ENDROOT
BRANCH   1   2
ATOM      2  C   UNL     1       3.235  -1.419  -3.301  0.00  0.00    +0.000 A 
ATOM      3  C   UNL     1       4.063  -0.503  -3.959  0.00  0.00    +0.000 A 
ATOM      4  C   UNL     1       4.977  -0.932  -4.925  0.00  0.00    +0.000 A 
ATOM      5  C   UNL     1       5.083  -2.290  -5.257  0.00  0.00    +0.000 A 
ATOM      6  C   UNL     1       4.235  -3.203  -4.617  0.00  0.00    +0.000 A 
ATOM      7  C   UNL     1       3.315  -2.772  -3.654  0.00  0.00    +0.000 A 
BRANCH   5   8
ATOM      8  C   UNL     1       6.052  -2.764  -6.319  0.00  0.00    +0.000 C 
BRANCH   8   9
ATOM      9  C   UNL     1       7.505  -2.437  -5.982  0.00  0.00    +0.000 C 
BRANCH   9  10
ATOM     10  C   UNL     1       8.478  -2.886  -7.062  0.00  0.00    +0.000 C 
ATOM     11  O   UNL     1       8.115  -3.489  -8.068  0.00  0.00    +0.000 OA
ATOM     12  N   UNL     1       9.785  -2.518  -6.858  0.00  0.00    +0.000 N 
ATOM     13  C   UNL     1      10.821  -2.708  -7.831  0.00  0.00    +0.000 C 
ATOM     14  C   UNL     1      11.852  -1.704  -7.367  0.00  0.00    +0.000 C 
ATOM     15  O   UNL     1      11.656  -1.556  -5.946  0.00  0.00    +0.000 OA
ATOM     16  C   UNL     1      10.383  -2.119  -5.617  0.00  0.00    +0.000 C 
ENDBRANCH   9  10
ENDBRANCH   8   9
ENDBRANCH   5   8
ENDBRANCH   1   2
BRANCH   1  19
ATOM     17  O   UNL     1       1.454   1.629  -3.126  0.00  0.00    +0.000 OA
ATOM     18  C   UNL     1       0.700   0.675  -3.297  0.00  0.00    +0.000 C 
ATOM     19  N   UNL     1       0.989  -0.590  -2.854  0.00  0.00    +0.000 N 
ATOM     20  H   UNL     1       0.440  -1.367  -3.202  0.00  0.00    +0.000 HD
BRANCH  18  21
ATOM     21  C   UNL     1      -0.608   0.837  -3.940  0.00  0.00    +0.000 A 
ATOM     22  C   UNL     1      -1.252   2.070  -3.919  0.00  0.00    +0.000 A 
ATOM     23  S   UNL     1      -2.764   2.057  -4.709  0.00  0.00    +0.000 S 
ATOM     24  C   UNL     1      -2.593   0.424  -5.136  0.00  0.00    +0.000 A 
ATOM     25  N   UNL     1      -3.553  -0.221  -5.866  0.00  0.00    +0.000 NA
ATOM     26  C   UNL     1      -3.267  -1.451  -6.147  0.00  0.00    +0.000 A 
ATOM     27  N   UNL     1      -2.123  -2.099  -5.764  0.00  0.00    +0.000 N 
ATOM     28  C   UNL     1      -1.169  -1.519  -4.964  0.00  0.00    +0.000 A 
ATOM     29  O   UNL     1      -0.236  -2.172  -4.518  0.00  0.00    +0.000 OA
ATOM     30  C   UNL     1      -1.413  -0.118  -4.661  0.00  0.00    +0.000 A 
ATOM     31  H   UNL     1      -1.980  -3.072  -5.986  0.00  0.00    +0.000 HD
ENDBRANCH  18  21
ENDBRANCH   1  19
TORSDOF 6
