REMARK  Name = 
REMARK  7 active torsions:
REMARK  status: ('A' for Active; 'I' for Inactive)
REMARK    1  A    between atoms: C_1  and  C_2
REMARK    2  A    between atoms: C_2  and  N_3
REMARK    3  A    between atoms: C_2  and  C_19
REMARK    4  A    between atoms: C_7  and  C_8
REMARK    5  A    between atoms: C_8  and  O_9
REMARK    6  A    between atoms: C_8  and  C_10
REMARK    7  A    between atoms: C_10  and  C_11
REMARK                            x       y       z     vdW  Elec       q    Type
REMARK                         _______ _______ _______ _____ _____    ______ ____
ROOT
ATOM      1  N   UNL     1       1.187  -0.036   0.194  0.00  0.00    +0.000 N 
ATOM      2  C   UNL     1       0.371  -0.966   0.836  0.00  0.00    +0.000 A 
ATOM      3  C   UNL     1       0.963  -2.006   1.548  0.00  0.00    +0.000 A 
ATOM      4  C   UNL     1       0.173  -3.035   2.066  0.00  0.00    +0.000 A 
ATOM      5  C   UNL     1      -1.200  -3.049   1.824  0.00  0.00    +0.000 A 
ATOM      6  C   UNL     1      -1.708  -1.956   1.133  0.00  0.00    +0.000 A 
ATOM      7  N   UNL     1      -0.963  -0.931   0.651  0.00  0.00    +0.000 NA
ATOM      8  H   UNL     1       2.120   0.035   0.601  0.00  0.00    +0.000 HD
ENDROOT
BRANCH   1  10
ATOM      9  C   UNL     1       0.700   2.154   1.175  0.00  0.00    +0.000 C 
ATOM     10  C   UNL     1       0.626   1.285  -0.091  0.00  0.00    +0.000 C 
BRANCH  10  11
ATOM     11  C   UNL     1       1.275   2.015  -1.261  0.00  0.00    +0.000 A 
ATOM     12  C   UNL     1       0.565   2.871  -2.091  0.00  0.00    +0.000 A 
ATOM     13  S   UNL     1       1.500   3.515  -3.363  0.00  0.00    +0.000 S 
ATOM     14  C   UNL     1       2.897   2.706  -2.823  0.00  0.00    +0.000 A 
ATOM     15  N   UNL     1       4.080   2.841  -3.480  0.00  0.00    +0.000 NA
ATOM     16  C   UNL     1       5.057   2.186  -2.952  0.00  0.00    +0.000 A 
ATOM     17  N   UNL     1       4.962   1.410  -1.825  0.00  0.00    +0.000 N 
ATOM     18  C   UNL     1       3.798   1.271  -1.101  0.00  0.00    +0.000 A 
ATOM     19  O   UNL     1       3.779   0.648  -0.042  0.00  0.00    +0.000 OA
ATOM     20  C   UNL     1       2.657   1.962  -1.680  0.00  0.00    +0.000 A 
ATOM     21  H   UNL     1       5.779   0.953  -1.447  0.00  0.00    +0.000 HD
ENDBRANCH  10  11
ENDBRANCH   1  10
BRANCH   5  22
ATOM     22  C   UNL     1      -2.057  -4.185   2.331  0.00  0.00    +0.000 C 
BRANCH  22  23
ATOM     23  O   UNL     1      -2.546  -3.817   3.620  0.00  0.00    +0.000 OA
ATOM     24  H   UNL     1      -3.043  -2.988   3.531  0.00  0.00    +0.000 HD
ENDBRANCH  22  23
BRANCH  22  25
ATOM     25  C   UNL     1      -3.220  -4.578   1.393  0.00  0.00    +0.000 C 
BRANCH  25  26
ATOM     26  C   UNL     1      -4.035  -5.740   1.910  0.00  0.00    +0.000 A 
ATOM     27  C   UNL     1      -5.150  -5.511   2.723  0.00  0.00    +0.000 A 
ATOM     28  C   UNL     1      -5.859  -6.599   3.206  0.00  0.00    +0.000 A 
ATOM     29  N   UNL     1      -5.542  -7.882   2.935  0.00  0.00    +0.000 NA
ATOM     30  C   UNL     1      -4.460  -8.082   2.151  0.00  0.00    +0.000 A 
ATOM     31  C   UNL     1      -3.684  -7.061   1.622  0.00  0.00    +0.000 A 
ENDBRANCH  25  26
ENDBRANCH  22  25
ENDBRANCH   5  22
TORSDOF 6
