REMARK  Name = 
REMARK  7 active torsions:
REMARK  status: ('A' for Active; 'I' for Inactive)
REMARK    1  A    between atoms: C_1  and  O_2
REMARK    2  A    between atoms: O_2  and  C_3
REMARK    3  A    between atoms: C_6  and  C_7
REMARK    4  A    between atoms: C_7  and  C_8
REMARK    5  A    between atoms: C_11  and  C_12
REMARK    6  A    between atoms: C_12  and  N_13
REMARK    7  A    between atoms: C_14  and  C_16
REMARK                            x       y       z     vdW  Elec       q    Type
REMARK                         _______ _______ _______ _____ _____    ______ ____
ROOT
ATOM      1  C   UNL     1       2.768   5.006   8.020  0.00  0.00    +0.000 C 
ENDROOT
BRANCH   1   5
ATOM      2  C   UNL     1       4.549   4.229   4.219  0.00  0.00    +0.000 A 
ATOM      3  C   UNL     1       4.481   3.206   5.164  0.00  0.00    +0.000 A 
ATOM      4  C   UNL     1       3.902   3.448   6.407  0.00  0.00    +0.000 A 
ATOM      5  C   UNL     1       3.426   4.723   6.691  0.00  0.00    +0.000 A 
ATOM      6  N   UNL     1       3.497   5.743   5.797  0.00  0.00    +0.000 NA
ATOM      7  C   UNL     1       4.046   5.472   4.591  0.00  0.00    +0.000 A 
BRANCH   2   8
ATOM      8  C   UNL     1       5.099   3.976   2.844  0.00  0.00    +0.000 C 
BRANCH   8  12
ATOM      9  C   UNL     1       2.159   2.979  -0.054  0.00  0.00    +0.000 A 
ATOM     10  C   UNL     1       2.730   1.936   0.657  0.00  0.00    +0.000 A 
ATOM     11  C   UNL     1       3.685   2.244   1.626  0.00  0.00    +0.000 A 
ATOM     12  C   UNL     1       4.051   3.576   1.839  0.00  0.00    +0.000 A 
ATOM     13  C   UNL     1       3.399   4.544   1.083  0.00  0.00    +0.000 A 
ATOM     14  N   UNL     1       2.468   4.276   0.145  0.00  0.00    +0.000 NA
BRANCH   9  16
ATOM     15  C   UNL     1       0.712   3.800  -1.686  0.00  0.00    +0.000 C 
ATOM     16  O   UNL     1       1.236   2.647  -1.028  0.00  0.00    +0.000 OA
ENDBRANCH   9  16
ENDBRANCH   8  12
ENDBRANCH   2   8
ENDBRANCH   1   5
BRANCH   1  17
ATOM     17  N   UNL     1       1.342   4.783   7.986  0.00  0.00    +0.000 N 
ATOM     18  C   UNL     1       0.760   3.619   8.414  0.00  0.00    +0.000 C 
ATOM     19  O   UNL     1       1.425   2.680   8.847  0.00  0.00    +0.000 OA
ATOM     20  H   UNL     1       0.809   5.430   7.408  0.00  0.00    +0.000 HD
BRANCH  18  21
ATOM     21  C   UNL     1      -0.709   3.581   8.408  0.00  0.00    +0.000 A 
ATOM     22  C   UNL     1      -1.377   2.723   9.273  0.00  0.00    +0.000 A 
ATOM     23  S   UNL     1      -3.076   2.826   9.163  0.00  0.00    +0.000 S 
ATOM     24  C   UNL     1      -2.979   3.990   7.925  0.00  0.00    +0.000 A 
ATOM     25  N   UNL     1      -4.106   4.492   7.348  0.00  0.00    +0.000 NA
ATOM     26  C   UNL     1      -3.885   5.340   6.399  0.00  0.00    +0.000 A 
ATOM     27  N   UNL     1      -2.641   5.742   5.986  0.00  0.00    +0.000 N 
ATOM     28  C   UNL     1      -1.479   5.311   6.580  0.00  0.00    +0.000 A 
ATOM     29  O   UNL     1      -0.391   5.771   6.262  0.00  0.00    +0.000 OA
ATOM     30  C   UNL     1      -1.671   4.318   7.624  0.00  0.00    +0.000 A 
ATOM     31  H   UNL     1      -2.534   6.431   5.257  0.00  0.00    +0.000 HD
ENDBRANCH  18  21
ENDBRANCH   1  17
TORSDOF 6
