REMARK  Name = 
REMARK  9 active torsions:
REMARK  status: ('A' for Active; 'I' for Inactive)
REMARK    1  A    between atoms: C_1  and  O_2
REMARK    2  A    between atoms: O_2  and  C_3
REMARK    3  A    between atoms: C_10  and  C_11
REMARK    4  A    between atoms: N_13  and  C_14
REMARK    5  A    between atoms: C_14  and  C_15
REMARK    6  A    between atoms: C_18  and  N_19
REMARK    7  A    between atoms: N_19  and  C_20
REMARK    8  A    between atoms: C_20  and  C_21
REMARK    9  A    between atoms: N_25  and  C_26
REMARK                            x       y       z     vdW  Elec       q    Type
REMARK                         _______ _______ _______ _____ _____    ______ ____
ROOT
ATOM      1  C   UNL     1      -9.597  -3.153   0.158  0.00  0.00    +0.000 C 
ENDROOT
BRANCH   1   2
ATOM      2  C   UNL     1      -8.461  -2.821  -0.777  0.00  0.00    +0.000 A 
ATOM      3  C   UNL     1      -8.295  -1.519  -1.260  0.00  0.00    +0.000 A 
ATOM      4  C   UNL     1      -7.146  -1.167  -1.981  0.00  0.00    +0.000 A 
ATOM      5  C   UNL     1      -6.131  -2.099  -2.227  0.00  0.00    +0.000 A 
ATOM      6  C   UNL     1      -6.386  -3.433  -1.896  0.00  0.00    +0.000 A 
ATOM      7  C   UNL     1      -7.528  -3.791  -1.163  0.00  0.00    +0.000 A 
BRANCH   5   8
ATOM      8  N   UNL     1      -4.916  -1.786  -2.877  0.00  0.00    +0.000 N 
ATOM      9  H   UNL     1      -5.038  -1.924  -3.878  0.00  0.00    +0.000 HD
BRANCH   8  10
ATOM     10  C   UNL     1      -4.373  -0.451  -2.570  0.00  0.00    +0.000 C 
BRANCH  10  11
ATOM     11  C   UNL     1      -3.002  -0.200  -3.236  0.00  0.00    +0.000 C 
ATOM     12  C   UNL     1      -3.037  -0.259  -4.771  0.00  0.00    +0.000 C 
ATOM     13  C   UNL     1      -3.887   0.873  -5.339  0.00  0.00    +0.000 C 
ATOM     14  C   UNL     1      -3.395   2.231  -4.831  0.00  0.00    +0.000 C 
ATOM     15  N   UNL     1      -3.309   2.281  -3.363  0.00  0.00    +0.000 NA
ATOM     16  C   UNL     1      -2.796   3.586  -2.937  0.00  0.00    +0.000 C 
ATOM     17  C   UNL     1      -2.472   1.193  -2.824  0.00  0.00    +0.000 C 
ENDBRANCH  10  11
ENDBRANCH   8  10
ENDBRANCH   5   8
ENDBRANCH   1   2
BRANCH   1  20
ATOM     18  C   UNL     1     -11.927  -3.947   0.107  0.00  0.00    +0.000 C 
ATOM     19  O   UNL     1     -12.009  -3.899   1.332  0.00  0.00    +0.000 OA
ATOM     20  N   UNL     1     -10.775  -3.591  -0.542  0.00  0.00    +0.000 N 
ATOM     21  H   UNL     1     -10.721  -3.641  -1.548  0.00  0.00    +0.000 HD
BRANCH  18  29
ATOM     22  C   UNL     1     -12.390  -4.246  -3.285  0.00  0.00    +0.000 A 
ATOM     23  N   UNL     1     -12.813  -4.492  -4.546  0.00  0.00    +0.000 NA
ATOM     24  C   UNL     1     -14.045  -4.985  -4.697  0.00  0.00    +0.000 A 
ATOM     25  N   UNL     1     -14.929  -5.257  -3.741  0.00  0.00    +0.000 NA
ATOM     26  C   UNL     1     -14.463  -5.007  -2.506  0.00  0.00    +0.000 A 
ATOM     27  S   UNL     1     -15.457  -5.289  -1.161  0.00  0.00    +0.000 S 
ATOM     28  C   UNL     1     -14.237  -4.779  -0.092  0.00  0.00    +0.000 A 
ATOM     29  C   UNL     1     -13.060  -4.393  -0.723  0.00  0.00    +0.000 A 
ATOM     30  C   UNL     1     -13.206  -4.515  -2.173  0.00  0.00    +0.000 A 
BRANCH  22  32
ATOM     31  C   UNL     1     -10.645  -3.015  -4.244  0.00  0.00    +0.000 C 
ATOM     32  O   UNL     1     -11.118  -3.743  -3.119  0.00  0.00    +0.000 OA
ENDBRANCH  22  32
ENDBRANCH  18  29
ENDBRANCH   1  20
TORSDOF 7
