REMARK  Name = 
REMARK  6 active torsions:
REMARK  status: ('A' for Active; 'I' for Inactive)
REMARK    1  A    between atoms: C_1  and  C_2
REMARK    2  A    between atoms: C_2  and  C_3
REMARK    3  A    between atoms: C_2  and  C_14
REMARK    4  A    between atoms: C_3  and  N_4
REMARK    5  A    between atoms: N_4  and  C_5
REMARK    6  A    between atoms: C_8  and  C_9
REMARK                            x       y       z     vdW  Elec       q    Type
REMARK                         _______ _______ _______ _____ _____    ______ ____
ROOT
ATOM      1  N   UNL     1       2.472   2.138  -1.115  0.00  0.00    +0.000 N 
ATOM      2  H   UNL     1       2.270   1.513  -1.891  0.00  0.00    +0.000 HD
ENDROOT
BRANCH   1   3
ATOM      3  C   UNL     1       3.004   3.363  -1.552  0.00  0.00    +0.000 A 
ATOM      4  C   UNL     1       4.016   4.056  -0.873  0.00  0.00    +0.000 A 
ATOM      5  C   UNL     1       4.445   5.319  -1.289  0.00  0.00    +0.000 A 
ATOM      6  C   UNL     1       3.851   5.937  -2.389  0.00  0.00    +0.000 A 
ATOM      7  C   UNL     1       2.826   5.275  -3.071  0.00  0.00    +0.000 A 
ATOM      8  C   UNL     1       2.410   4.001  -2.651  0.00  0.00    +0.000 A 
BRANCH   6   9
ATOM      9  C   UNL     1       4.311   7.304  -2.749  0.00  0.00    +0.000 C 
ATOM     10  N   UNL     1       4.096   7.731  -4.028  0.00  0.00    +0.000 N 
ATOM     11  O   UNL     1       4.893   8.021  -1.943  0.00  0.00    +0.000 OA
ATOM     12  H   UNL     1       3.847   7.104  -4.779  0.00  0.00    +0.000 HD
ATOM     13  H   UNL     1       4.509   8.621  -4.274  0.00  0.00    +0.000 HD
ENDBRANCH   6   9
ENDBRANCH   1   3
BRANCH   1  14
ATOM     14  C   UNL     1       3.122   1.480   0.007  0.00  0.00    +0.000 C 
BRANCH  14  16
ATOM     15  C   UNL     1       1.012   0.089   0.569  0.00  0.00    +0.000 C 
ATOM     16  C   UNL     1       2.488   0.154   0.310  0.00  0.00    +0.000 C 
BRANCH  16  17
ATOM     17  C   UNL     1       3.350  -0.898   0.898  0.00  0.00    +0.000 A 
ATOM     18  C   UNL     1       3.075  -2.256   0.690  0.00  0.00    +0.000 A 
ATOM     19  C   UNL     1       3.921  -3.242   1.208  0.00  0.00    +0.000 A 
ATOM     20  C   UNL     1       5.048  -2.886   1.945  0.00  0.00    +0.000 A 
ATOM     21  C   UNL     1       5.325  -1.544   2.178  0.00  0.00    +0.000 A 
ATOM     22  C   UNL     1       4.480  -0.560   1.662  0.00  0.00    +0.000 A 
ENDBRANCH  16  17
ENDBRANCH  14  16
ENDBRANCH   1  14
TORSDOF 5
