REMARK  Name = 
REMARK  7 active torsions:
REMARK  status: ('A' for Active; 'I' for Inactive)
REMARK    1  A    between atoms: C_2  and  C_4
REMARK    2  A    between atoms: C_7  and  N_8
REMARK    3  A    between atoms: N_8  and  C_9
REMARK    4  A    between atoms: C_9  and  C_10
REMARK    5  A    between atoms: C_10  and  C_11
REMARK    6  A    between atoms: C_15  and  N_16
REMARK    7  A    between atoms: C_19  and  O_20
REMARK                            x       y       z     vdW  Elec       q    Type
REMARK                         _______ _______ _______ _____ _____    ______ ____
ROOT
ATOM      1  C   UNL     1       6.072   2.859   6.633  0.00  0.00    +0.000 C 
ENDROOT
BRANCH   1   2
ATOM      2  C   UNL     1       5.588   2.810   8.060  0.00  0.00    +0.000 A 
ATOM      3  C   UNL     1       5.250   3.966   8.753  0.00  0.00    +0.000 A 
ATOM      4  N   UNL     1       4.760   3.977  10.009  0.00  0.00    +0.000 NA
ATOM      5  C   UNL     1       4.585   2.770  10.599  0.00  0.00    +0.000 A 
ATOM      6  C   UNL     1       4.855   1.534  10.011  0.00  0.00    +0.000 A 
ATOM      7  C   UNL     1       5.393   1.591   8.719  0.00  0.00    +0.000 A 
BRANCH   6   8
ATOM      8  N   UNL     1       4.600   0.321  10.623  0.00  0.00    +0.000 N 
ATOM      9  C   UNL     1       4.592   0.192  12.077  0.00  0.00    +0.000 C 
ATOM     10  C   UNL     1       3.189  -0.151  12.565  0.00  0.00    +0.000 C 
ATOM     11  C   UNL     1       2.588  -1.337  11.811  0.00  0.00    +0.000 C 
ATOM     12  C   UNL     1       2.671  -1.159  10.295  0.00  0.00    +0.000 C 
ATOM     13  C   UNL     1       4.083  -0.800   9.842  0.00  0.00    +0.000 C 
BRANCH  11  14
ATOM     14  O   UNL     1       3.214  -2.557  12.209  0.00  0.00    +0.000 OA
ATOM     15  H   UNL     1       4.159  -2.518  11.987  0.00  0.00    +0.000 HD
ENDBRANCH  11  14
ENDBRANCH   6   8
ENDBRANCH   1   2
BRANCH   1  16
ATOM     16  C   UNL     1       4.910   2.769   5.637  0.00  0.00    +0.000 C 
BRANCH  16  17
ATOM     17  N   UNL     1       5.378   2.817   4.252  0.00  0.00    +0.000 N 
ATOM     18  H   UNL     1       6.133   3.471   4.060  0.00  0.00    +0.000 HD
BRANCH  17  22
ATOM     19  C   UNL     1       2.634   2.336   1.069  0.00  0.00    +0.000 A 
ATOM     20  C   UNL     1       2.162   2.439   2.377  0.00  0.00    +0.000 A 
ATOM     21  C   UNL     1       3.062   2.625   3.432  0.00  0.00    +0.000 A 
ATOM     22  C   UNL     1       4.442   2.742   3.212  0.00  0.00    +0.000 A 
ATOM     23  C   UNL     1       4.897   2.641   1.890  0.00  0.00    +0.000 A 
ATOM     24  C   UNL     1       4.005   2.440   0.825  0.00  0.00    +0.000 A 
BRANCH  19  26
ATOM     25  N   UNL     1       0.418   2.441   0.062  0.00  0.00    +0.000 N 
ATOM     26  C   UNL     1       1.718   2.023  -0.060  0.00  0.00    +0.000 C 
ATOM     27  O   UNL     1       2.101   1.430  -1.050  0.00  0.00    +0.000 OA
ATOM     28  H   UNL     1      -0.187   2.268  -0.731  0.00  0.00    +0.000 HD
ATOM     29  H   UNL     1       0.121   3.117   0.748  0.00  0.00    +0.000 HD
ENDBRANCH  19  26
ENDBRANCH  17  22
ENDBRANCH  16  17
ENDBRANCH   1  16
TORSDOF 7
