REMARK  Name = 
REMARK  5 active torsions:
REMARK  status: ('A' for Active; 'I' for Inactive)
REMARK    1  A    between atoms: C_2  and  C_3
REMARK    2  A    between atoms: C_12  and  C_13
REMARK    3  A    between atoms: C_13  and  C_14
REMARK    4  A    between atoms: C_14  and  C_15
REMARK    5  A    between atoms: C_18  and  C_19
REMARK                            x       y       z     vdW  Elec       q    Type
REMARK                         _______ _______ _______ _____ _____    ______ ____
ROOT
ATOM      1  C   UNL     1      -0.329  -4.021  -1.056  0.00  0.00    +0.000 C 
ATOM      2  C   UNL     1      -1.502  -3.075  -1.298  0.00  0.00    +0.000 C 
ATOM      3  C   UNL     1      -0.954  -3.230   0.078  0.00  0.00    +0.000 C 
ATOM      4  F   UNL     1      -1.772  -3.886   0.984  0.00  0.00    +0.000 F 
ENDROOT
BRANCH   1  14
ATOM      5  C   UNL     1      -1.156  -9.287  -4.750  0.00  0.00    +0.000 C 
ATOM      6  C   UNL     1      -2.012  -8.506  -5.759  0.00  0.00    +0.000 C 
ATOM      7  C   UNL     1      -2.326  -7.092  -5.264  0.00  0.00    +0.000 C 
ATOM      8  C   UNL     1      -2.988  -7.124  -3.890  0.00  0.00    +0.000 C 
ATOM      9  N   UNL     1      -2.231  -7.953  -2.962  0.00  0.00    +0.000 N 
ATOM     10  C   UNL     1      -1.529  -7.356  -1.938  0.00  0.00    +0.000 A 
ATOM     11  N   UNL     1      -1.211  -8.100  -0.883  0.00  0.00    +0.000 NA
ATOM     12  C   UNL     1      -0.579  -7.461   0.091  0.00  0.00    +0.000 A 
ATOM     13  N   UNL     1      -0.201  -6.192   0.071  0.00  0.00    +0.000 NA
ATOM     14  C   UNL     1      -0.579  -5.511  -1.014  0.00  0.00    +0.000 A 
ATOM     15  N   UNL     1      -1.232  -6.066  -2.037  0.00  0.00    +0.000 NA
ATOM     16  C   UNL     1      -1.822  -9.294  -3.367  0.00  0.00    +0.000 C 
BRANCH   5  18
ATOM     17  N   UNL     1       1.292  -8.302  -4.675  0.00  0.00    +0.000 NA
ATOM     18  C   UNL     1       0.213  -8.741  -4.685  0.00  0.00    +0.000 C 
ENDBRANCH   5  18
ENDBRANCH   1  14
BRANCH   1  19
ATOM     19  C   UNL     1       1.042  -3.603  -1.554  0.00  0.00    +0.000 C 
BRANCH  19  20
ATOM     20  C   UNL     1       1.110  -3.479  -3.062  0.00  0.00    +0.000 A 
ATOM     21  C   UNL     1       1.433  -4.573  -3.866  0.00  0.00    +0.000 A 
ATOM     22  C   UNL     1       1.514  -4.407  -5.250  0.00  0.00    +0.000 A 
ATOM     23  C   UNL     1       1.268  -3.154  -5.809  0.00  0.00    +0.000 A 
ATOM     24  C   UNL     1       0.979  -2.109  -4.941  0.00  0.00    +0.000 A 
ATOM     25  N   UNL     1       0.883  -2.246  -3.592  0.00  0.00    +0.000 NA
BRANCH  23  26
ATOM     26  C   UNL     1       1.319  -2.886  -7.264  0.00  0.00    +0.000 C 
ATOM     27  N   UNL     1       1.078  -3.938  -8.104  0.00  0.00    +0.000 N 
ATOM     28  O   UNL     1       1.528  -1.763  -7.704  0.00  0.00    +0.000 OA
ATOM     29  H   UNL     1       0.714  -4.826  -7.788  0.00  0.00    +0.000 HD
ATOM     30  H   UNL     1       1.033  -3.733  -9.094  0.00  0.00    +0.000 HD
ENDBRANCH  23  26
ENDBRANCH  19  20
ENDBRANCH   1  19
TORSDOF 5
