REMARK  Name = 
REMARK  7 active torsions:
REMARK  status: ('A' for Active; 'I' for Inactive)
REMARK    1  A    between atoms: C_2  and  C_3
REMARK    2  A    between atoms: C_7  and  O_8
REMARK    3  A    between atoms: O_8  and  C_9
REMARK    4  A    between atoms: C_9  and  C_10
REMARK    5  A    between atoms: C_14  and  C_15
REMARK    6  A    between atoms: C_19  and  O_20
REMARK    7  A    between atoms: O_20  and  C_21
REMARK                            x       y       z     vdW  Elec       q    Type
REMARK                         _______ _______ _______ _____ _____    ______ ____
ROOT
ATOM      1  C   UNL     1      -3.011   3.977   0.232  0.00  0.00    +0.000 A 
ATOM      2  C   UNL     1      -3.797   4.331  -0.875  0.00  0.00    +0.000 A 
ATOM      3  C   UNL     1      -5.168   4.554  -0.749  0.00  0.00    +0.000 A 
ATOM      4  C   UNL     1      -5.790   4.395   0.488  0.00  0.00    +0.000 A 
ATOM      5  C   UNL     1      -5.057   4.043   1.631  0.00  0.00    +0.000 A 
ATOM      6  C   UNL     1      -3.666   3.899   1.480  0.00  0.00    +0.000 A 
ENDROOT
BRANCH   5   7
ATOM      7  C   UNL     1      -5.722   3.740   2.919  0.00  0.00    +0.000 A 
ATOM      8  C   UNL     1      -5.130   4.031   4.158  0.00  0.00    +0.000 A 
ATOM      9  C   UNL     1      -5.765   3.698   5.360  0.00  0.00    +0.000 A 
ATOM     10  C   UNL     1      -7.011   3.069   5.352  0.00  0.00    +0.000 A 
ATOM     11  C   UNL     1      -7.611   2.749   4.137  0.00  0.00    +0.000 A 
ATOM     12  C   UNL     1      -6.968   3.088   2.942  0.00  0.00    +0.000 A 
BRANCH  11  13
ATOM     13  O   UNL     1      -8.821   2.137   3.972  0.00  0.00    +0.000 OA
BRANCH  13  14
ATOM     14  C   UNL     1      -9.288   1.370   5.064  0.00  0.00    +0.000 C 
ATOM     15  F   UNL     1      -9.855   2.199   5.975  0.00  0.00    +0.000 F 
ATOM     16  F   UNL     1     -10.280   0.569   4.596  0.00  0.00    +0.000 F 
ENDBRANCH  13  14
ENDBRANCH  11  13
ENDBRANCH   5   7
BRANCH   1  17
ATOM     17  C   UNL     1      -1.540   3.586   0.092  0.00  0.00    +0.000 C 
ATOM     18  C   UNL     1      -1.035   2.457   0.990  0.00  0.00    +0.000 C 
ATOM     19  C   UNL     1      -1.190   2.221  -0.472  0.00  0.00    +0.000 C 
BRANCH  17  20
ATOM     20  O   UNL     1      -0.557   4.648  -0.062  0.00  0.00    +0.000 OA
BRANCH  20  25
ATOM     21  C   UNL     1      -0.464   7.388  -2.453  0.00  0.00    +0.000 A 
ATOM     22  C   UNL     1      -0.524   6.666  -3.636  0.00  0.00    +0.000 A 
ATOM     23  N   UNL     1      -0.567   5.316  -3.690  0.00  0.00    +0.000 NA
ATOM     24  C   UNL     1      -0.565   4.664  -2.503  0.00  0.00    +0.000 A 
ATOM     25  C   UNL     1      -0.549   5.297  -1.267  0.00  0.00    +0.000 A 
ATOM     26  C   UNL     1      -0.469   6.686  -1.245  0.00  0.00    +0.000 A 
BRANCH  21  28
ATOM     27  N   UNL     1      -0.363   9.972  -2.515  0.00  0.00    +0.000 NA
ATOM     28  C   UNL     1      -0.407   8.811  -2.483  0.00  0.00    +0.000 C 
ENDBRANCH  21  28
ENDBRANCH  20  25
ENDBRANCH  17  20
ENDBRANCH   1  17
TORSDOF 7
