REMARK  Name = 
REMARK  6 active torsions:
REMARK  status: ('A' for Active; 'I' for Inactive)
REMARK    1  A    between atoms: C_2  and  C_4
REMARK    2  A    between atoms: N_8  and  C_9
REMARK    3  A    between atoms: C_9  and  C_10
REMARK    4  A    between atoms: C_10  and  C_11
REMARK    5  A    between atoms: C_15  and  O_16
REMARK    6  A    between atoms: O_16  and  C_17
REMARK                            x       y       z     vdW  Elec       q    Type
REMARK                         _______ _______ _______ _____ _____    ______ ____
ROOT
ATOM      1  C   UNL     1       6.278  -5.754  -1.280  0.00  0.00    +0.000 C 
ATOM      2  C   UNL     1       6.560  -5.761  -2.778  0.00  0.00    +0.000 C 
ATOM      3  C   UNL     1       5.233  -6.238  -2.281  0.00  0.00    +0.000 C 
ENDROOT
BRANCH   1   4
ATOM      4  C   UNL     1       6.991  -6.780  -0.400  0.00  0.00    +0.000 A 
ATOM      5  C   UNL     1       8.344  -6.632  -0.058  0.00  0.00    +0.000 A 
ATOM      6  C   UNL     1       8.943  -7.457   0.897  0.00  0.00    +0.000 A 
ATOM      7  C   UNL     1       8.202  -8.454   1.531  0.00  0.00    +0.000 A 
ATOM      8  C   UNL     1       6.863  -8.630   1.202  0.00  0.00    +0.000 A 
ATOM      9  C   UNL     1       6.287  -7.834   0.210  0.00  0.00    +0.000 A 
BRANCH   8  10
ATOM     10  O   UNL     1       6.046  -9.575   1.742  0.00  0.00    +0.000 OA
BRANCH  10  11
ATOM     11  C   UNL     1       6.063  -9.729   3.157  0.00  0.00    +0.000 C 
ATOM     12  F   UNL     1       6.913  -8.903   3.801  0.00  0.00    +0.000 F 
ATOM     13  F   UNL     1       4.817  -9.504   3.632  0.00  0.00    +0.000 F 
ATOM     14  F   UNL     1       6.397 -11.004   3.451  0.00  0.00    +0.000 F 
ENDBRANCH  10  11
ENDBRANCH   8  10
ENDBRANCH   1   4
BRANCH   1  15
ATOM     15  C   UNL     1       6.118  -4.362  -0.643  0.00  0.00    +0.000 C 
BRANCH  15  20
ATOM     16  C   UNL     1       4.985  -3.590   3.671  0.00  0.00    +0.000 C 
ATOM     17  C   UNL     1       4.115  -4.589   3.451  0.00  0.00    +0.000 C 
ATOM     18  C   UNL     1       3.839  -5.290   2.225  0.00  0.00    +0.000 C 
ATOM     19  C   UNL     1       4.480  -5.138   1.063  0.00  0.00    +0.000 C 
ATOM     20  N   UNL     1       5.563  -4.345   0.738  0.00  0.00    +0.000 N 
ATOM     21  C   UNL     1       6.084  -3.387   1.600  0.00  0.00    +0.000 C 
ATOM     22  N   UNL     1       5.888  -2.997   2.816  0.00  0.00    +0.000 NA
BRANCH  16  24
ATOM     23  N   UNL     1       5.762  -1.963   5.282  0.00  0.00    +0.000 N 
ATOM     24  C   UNL     1       4.919  -3.018   5.080  0.00  0.00    +0.000 C 
ATOM     25  O   UNL     1       4.176  -3.420   5.968  0.00  0.00    +0.000 OA
ATOM     26  H   UNL     1       5.753  -1.479   6.166  0.00  0.00    +0.000 HD
ATOM     27  H   UNL     1       6.327  -1.640   4.506  0.00  0.00    +0.000 HD
ENDBRANCH  16  24
ENDBRANCH  15  20
ENDBRANCH   1  15
TORSDOF 6
