REMARK  Name = 
REMARK  7 active torsions:
REMARK  status: ('A' for Active; 'I' for Inactive)
REMARK    1  A    between atoms: C_2  and  C_4
REMARK    2  A    between atoms: C_7  and  N_8
REMARK    3  A    between atoms: N_8  and  C_9
REMARK    4  A    between atoms: C_9  and  C_10
REMARK    5  A    between atoms: C_10  and  C_11
REMARK    6  A    between atoms: C_15  and  C_16
REMARK    7  A    between atoms: C_16  and  C_19
REMARK                            x       y       z     vdW  Elec       q    Type
REMARK                         _______ _______ _______ _____ _____    ______ ____
ROOT
ATOM      1  C   UNL     1       4.900   5.899   1.011  0.00  0.00    +0.000 C 
ENDROOT
BRANCH   1   2
ATOM      2  N   UNL     1       5.148   4.877  -0.011  0.00  0.00    +0.000 N 
ATOM      3  H   UNL     1       6.137   4.656  -0.116  0.00  0.00    +0.000 HD
BRANCH   2   7
ATOM      4  C   UNL     1       2.812   1.444  -0.324  0.00  0.00    +0.000 A 
ATOM      5  C   UNL     1       2.256   2.548   0.303  0.00  0.00    +0.000 A 
ATOM      6  C   UNL     1       3.035   3.696   0.444  0.00  0.00    +0.000 A 
ATOM      7  C   UNL     1       4.352   3.724  -0.020  0.00  0.00    +0.000 A 
ATOM      8  C   UNL     1       4.797   2.558  -0.659  0.00  0.00    +0.000 A 
ATOM      9  N   UNL     1       4.082   1.413  -0.808  0.00  0.00    +0.000 NA
BRANCH   4  11
ATOM     10  N   UNL     1       2.615  -0.849  -1.094  0.00  0.00    +0.000 N 
ATOM     11  C   UNL     1       1.980   0.216  -0.518  0.00  0.00    +0.000 C 
ATOM     12  O   UNL     1       0.800   0.156  -0.186  0.00  0.00    +0.000 OA
ATOM     13  H   UNL     1       2.104  -1.706  -1.249  0.00  0.00    +0.000 HD
ATOM     14  H   UNL     1       3.598  -0.779  -1.332  0.00  0.00    +0.000 HD
ENDBRANCH   4  11
ENDBRANCH   2   7
ENDBRANCH   1   2
BRANCH   1  15
ATOM     15  C   UNL     1       5.869   7.070   0.820  0.00  0.00    +0.000 C 
BRANCH  15  16
ATOM     16  C   UNL     1       5.668   8.172   1.832  0.00  0.00    +0.000 A 
ATOM     17  C   UNL     1       6.307   8.118   3.076  0.00  0.00    +0.000 A 
ATOM     18  C   UNL     1       6.141   9.151   3.999  0.00  0.00    +0.000 A 
ATOM     19  C   UNL     1       5.340  10.249   3.686  0.00  0.00    +0.000 A 
ATOM     20  C   UNL     1       4.682  10.324   2.449  0.00  0.00    +0.000 A 
ATOM     21  C   UNL     1       4.840   9.266   1.538  0.00  0.00    +0.000 A 
BRANCH  20  22
ATOM     22  C   UNL     1       3.823  11.523   2.096  0.00  0.00    +0.000 C 
ATOM     23  F   UNL     1       2.745  11.170   1.334  0.00  0.00    +0.000 F 
ATOM     24  F   UNL     1       3.301  12.134   3.195  0.00  0.00    +0.000 F 
BRANCH  22  25
ATOM     25  C   UNL     1       4.614  12.533   1.292  0.00  0.00    +0.000 C 
ATOM     26  C   UNL     1       5.730  13.302   1.999  0.00  0.00    +0.000 C 
ATOM     27  O   UNL     1       5.113  14.573   1.697  0.00  0.00    +0.000 OA
ATOM     28  C   UNL     1       3.956  13.908   1.139  0.00  0.00    +0.000 C 
ENDBRANCH  22  25
ENDBRANCH  20  22
ENDBRANCH  15  16
ENDBRANCH   1  15
TORSDOF 7
