REMARK  Name = 
REMARK  6 active torsions:
REMARK  status: ('A' for Active; 'I' for Inactive)
REMARK    1  A    between atoms: C_1  and  O_2
REMARK    2  A    between atoms: O_2  and  C_3
REMARK    3  A    between atoms: N_9  and  C_10
REMARK    4  A    between atoms: C_10  and  C_11
REMARK    5  A    between atoms: C_14  and  C_15
REMARK    6  A    between atoms: C_15  and  N_16
REMARK                            x       y       z     vdW  Elec       q    Type
REMARK                         _______ _______ _______ _____ _____    ______ ____
ROOT
ATOM      1  C   UNL     1       6.630  -1.596   3.417  0.00  0.00    +0.000 C 
ENDROOT
BRANCH   1   8
ATOM      2  C   UNL     1       3.143  -4.472   4.053  0.00  0.00    +0.000 A 
ATOM      3  C   UNL     1       2.975  -5.241   2.907  0.00  0.00    +0.000 A 
ATOM      4  N   UNL     1       3.673  -5.111   1.755  0.00  0.00    +0.000 NA
ATOM      5  C   UNL     1       4.604  -4.127   1.764  0.00  0.00    +0.000 A 
ATOM      6  C   UNL     1       5.494  -3.754   0.733  0.00  0.00    +0.000 A 
ATOM      7  C   UNL     1       6.269  -2.721   1.213  0.00  0.00    +0.000 A 
ATOM      8  N   UNL     1       5.882  -2.461   2.510  0.00  0.00    +0.000 N 
ATOM      9  C   UNL     1       4.845  -3.302   2.865  0.00  0.00    +0.000 A 
ATOM     10  C   UNL     1       4.095  -3.454   4.039  0.00  0.00    +0.000 A 
BRANCH   2  12
ATOM     11  C   UNL     1       1.940  -5.908   5.489  0.00  0.00    +0.000 C 
ATOM     12  O   UNL     1       2.431  -4.599   5.214  0.00  0.00    +0.000 OA
ENDBRANCH   2  12
ENDBRANCH   1   8
BRANCH   1  13
ATOM     13  C   UNL     1       6.212  -0.146   3.392  0.00  0.00    +0.000 A 
ATOM     14  C   UNL     1       4.914   0.249   3.745  0.00  0.00    +0.000 A 
ATOM     15  C   UNL     1       4.596   1.603   3.908  0.00  0.00    +0.000 A 
ATOM     16  C   UNL     1       5.566   2.597   3.720  0.00  0.00    +0.000 A 
ATOM     17  C   UNL     1       6.841   2.200   3.316  0.00  0.00    +0.000 A 
ATOM     18  F   UNL     1       7.800   3.118   3.120  0.00  0.00    +0.000 F 
ATOM     19  C   UNL     1       7.167   0.853   3.148  0.00  0.00    +0.000 A 
BRANCH  16  20
ATOM     20  C   UNL     1       5.272   4.037   4.038  0.00  0.00    +0.000 C 
BRANCH  20  21
ATOM     21  N   UNL     1       4.100   4.538   3.327  0.00  0.00    +0.000 NA
ATOM     22  H   UNL     1       4.287   4.495   2.325  0.00  0.00    +0.000 HD
ATOM     23  H   UNL     1       3.980   5.525   3.548  0.00  0.00    +0.000 HD
ENDBRANCH  20  21
ENDBRANCH  16  20
ENDBRANCH   1  13
TORSDOF 5
