REMARK  Name = 
REMARK  6 active torsions:
REMARK  status: ('A' for Active; 'I' for Inactive)
REMARK    1  A    between atoms: C_1  and  O_2
REMARK    2  A    between atoms: O_2  and  C_3
REMARK    3  A    between atoms: C_5  and  N_6
REMARK    4  A    between atoms: C_5  and  C_16
REMARK    5  A    between atoms: C_10  and  C_11
REMARK    6  A    between atoms: C_19  and  O_20
REMARK                            x       y       z     vdW  Elec       q    Type
REMARK                         _______ _______ _______ _____ _____    ______ ____
ROOT
ATOM      1  C   UNL     1       2.782   0.544   1.095  0.00  0.00    +0.000 C 
ATOM      2  C   UNL     1       1.879   0.467   2.349  0.00  0.00    +0.000 C 
ATOM      3  C   UNL     1       2.362   1.898   2.736  0.00  0.00    +0.000 C 
ATOM      4  C   UNL     1       2.701   2.081   1.214  0.00  0.00    +0.000 C 
ENDROOT
BRANCH   3   5
ATOM      5  N   UNL     1       1.253   2.749   3.086  0.00  0.00    +0.000 N 
ATOM      6  C   UNL     1       0.404   2.702   4.192  0.00  0.00    +0.000 A 
ATOM      7  C   UNL     1       0.750   2.142   5.412  0.00  0.00    +0.000 A 
ATOM      8  C   UNL     1      -0.167   2.163   6.465  0.00  0.00    +0.000 A 
ATOM      9  C   UNL     1      -1.419   2.750   6.287  0.00  0.00    +0.000 A 
ATOM     10  C   UNL     1      -1.674   3.302   5.044  0.00  0.00    +0.000 A 
ATOM     11  N   UNL     1      -0.799   3.287   4.003  0.00  0.00    +0.000 NA
ATOM     12  H   UNL     1       0.688   3.085   2.310  0.00  0.00    +0.000 HD
BRANCH   9  13
ATOM     13  C   UNL     1      -2.384   2.745   7.412  0.00  0.00    +0.000 C 
ATOM     14  N   UNL     1      -3.618   3.306   7.237  0.00  0.00    +0.000 N 
ATOM     15  O   UNL     1      -2.095   2.237   8.490  0.00  0.00    +0.000 OA
ATOM     16  H   UNL     1      -3.962   3.740   6.396  0.00  0.00    +0.000 HD
ATOM     17  H   UNL     1      -4.247   3.259   8.029  0.00  0.00    +0.000 HD
ENDBRANCH   9  13
ENDBRANCH   3   5
BRANCH   3  18
ATOM     18  C   UNL     1       3.591   2.090   3.761  0.00  0.00    +0.000 A 
ATOM     19  C   UNL     1       4.263   1.001   4.362  0.00  0.00    +0.000 A 
ATOM     20  C   UNL     1       5.292   1.170   5.297  0.00  0.00    +0.000 A 
ATOM     21  C   UNL     1       5.686   2.449   5.650  0.00  0.00    +0.000 A 
ATOM     22  C   UNL     1       5.074   3.553   5.079  0.00  0.00    +0.000 A 
ATOM     23  C   UNL     1       4.045   3.370   4.146  0.00  0.00    +0.000 A 
BRANCH  21  24
ATOM     24  O   UNL     1       6.673   2.659   6.566  0.00  0.00    +0.000 OA
ATOM     25  H   UNL     1       6.984   1.799   6.890  0.00  0.00    +0.000 HD
ENDBRANCH  21  24
ENDBRANCH   3  18
BRANCH   1  27
ATOM     26  C   UNL     1       2.987   0.042  -1.277  0.00  0.00    +0.000 C 
ATOM     27  O   UNL     1       2.214  -0.054  -0.090  0.00  0.00    +0.000 OA
ENDBRANCH   1  27
TORSDOF 5
