REMARK  Name = 
REMARK  8 active torsions:
REMARK  status: ('A' for Active; 'I' for Inactive)
REMARK    1  A    between atoms: C_1  and  N_2
REMARK    2  A    between atoms: C_3  and  C_5
REMARK    3  A    between atoms: C_8  and  N_9
REMARK    4  A    between atoms: N_9  and  C_10
REMARK    5  A    between atoms: C_10  and  C_11
REMARK    6  A    between atoms: C_11  and  C_12
REMARK    7  A    between atoms: C_11  and  C_13
REMARK    8  A    between atoms: C_11  and  C_14
REMARK                            x       y       z     vdW  Elec       q    Type
REMARK                         _______ _______ _______ _____ _____    ______ ____
ROOT
ATOM      1  N   UNL     1       8.853   0.362   1.058  0.00  0.00    +0.000 N 
ATOM      2  H   UNL     1       9.304   0.081   1.924  0.00  0.00    +0.000 HD
ENDROOT
BRANCH   1   6
ATOM      3  C   UNL     1       4.992   1.773   1.700  0.00  0.00    +0.000 A 
ATOM      4  C   UNL     1       5.710   2.326   0.652  0.00  0.00    +0.000 A 
ATOM      5  C   UNL     1       7.010   1.871   0.421  0.00  0.00    +0.000 A 
ATOM      6  C   UNL     1       7.588   0.911   1.252  0.00  0.00    +0.000 A 
ATOM      7  C   UNL     1       6.758   0.414   2.269  0.00  0.00    +0.000 A 
ATOM      8  N   UNL     1       5.486   0.815   2.528  0.00  0.00    +0.000 NA
BRANCH   3  11
ATOM      9  C   UNL     1       1.574   1.874   3.313  0.00  0.00    +0.000 C 
ATOM     10  N   UNL     1       2.951   1.608   3.002  0.00  0.00    +0.000 N 
ATOM     11  C   UNL     1       3.581   2.215   1.936  0.00  0.00    +0.000 C 
ATOM     12  O   UNL     1       3.041   3.049   1.214  0.00  0.00    +0.000 OA
ATOM     13  H   UNL     1       3.488   0.916   3.516  0.00  0.00    +0.000 HD
ENDBRANCH   3  11
ENDBRANCH   1   6
BRANCH   1  14
ATOM     14  C   UNL     1       9.743   0.799  -0.026  0.00  0.00    +0.000 C 
BRANCH  14  15
ATOM     15  C   UNL     1      11.257   0.614   0.291  0.00  0.00    +0.000 C 
ATOM     16  C   UNL     1      11.650   1.506   1.490  0.00  0.00    +0.000 C 
ATOM     17  C   UNL     1      11.560  -0.853   0.662  0.00  0.00    +0.000 C 
BRANCH  15  18
ATOM     18  C   UNL     1      12.039   1.100  -0.938  0.00  0.00    +0.000 A 
ATOM     19  C   UNL     1      12.919   0.299  -1.665  0.00  0.00    +0.000 A 
ATOM     20  N   UNL     1      13.605   0.734  -2.752  0.00  0.00    +0.000 NA
ATOM     21  C   UNL     1      13.384   2.017  -3.104  0.00  0.00    +0.000 A 
ATOM     22  C   UNL     1      12.517   2.828  -2.403  0.00  0.00    +0.000 A 
ATOM     23  N   UNL     1      11.834   2.392  -1.319  0.00  0.00    +0.000 NA
ENDBRANCH  15  18
ENDBRANCH  14  15
ENDBRANCH   1  14
TORSDOF 5
