REMARK  Name = 
REMARK  7 active torsions:
REMARK  status: ('A' for Active; 'I' for Inactive)
REMARK    1  A    between atoms: C_1  and  C_2
REMARK    2  A    between atoms: C_2  and  C_3
REMARK    3  A    between atoms: C_8  and  C_9
REMARK    4  A    between atoms: N_11  and  C_12
REMARK    5  A    between atoms: C_12  and  C_13
REMARK    6  A    between atoms: C_16  and  C_17
REMARK    7  A    between atoms: C_17  and  C_18
REMARK                            x       y       z     vdW  Elec       q    Type
REMARK                         _______ _______ _______ _____ _____    ______ ____
ROOT
ATOM      1  C   UNL     1       2.826  -5.850  -2.713  0.00  0.00    +0.000 C 
ATOM      2  O   UNL     1       2.227  -6.304  -3.685  0.00  0.00    +0.000 OA
ATOM      3  N   UNL     1       3.015  -6.582  -1.572  0.00  0.00    +0.000 N 
ATOM      4  H   UNL     1       3.577  -6.212  -0.815  0.00  0.00    +0.000 HD
ENDROOT
BRANCH   1  10
ATOM      5  C   UNL     1       5.256  -1.811  -0.143  0.00  0.00    +0.000 A 
ATOM      6  N   UNL     1       4.893  -1.435  -1.330  0.00  0.00    +0.000 NA
ATOM      7  C   UNL     1       4.312  -2.410  -2.082  0.00  0.00    +0.000 A 
ATOM      8  S   UNL     1       3.767  -2.085  -3.660  0.00  0.00    +0.000 S 
ATOM      9  C   UNL     1       3.166  -3.671  -3.837  0.00  0.00    +0.000 A 
ATOM     10  C   UNL     1       3.358  -4.474  -2.721  0.00  0.00    +0.000 A 
ATOM     11  C   UNL     1       4.084  -3.725  -1.715  0.00  0.00    +0.000 A 
ATOM     12  C   UNL     1       4.574  -4.115  -0.407  0.00  0.00    +0.000 A 
ATOM     13  O   UNL     1       4.543  -5.258   0.037  0.00  0.00    +0.000 OA
ATOM     14  N   UNL     1       5.116  -3.093   0.330  0.00  0.00    +0.000 N 
ATOM     15  H   UNL     1       5.456  -3.350   1.247  0.00  0.00    +0.000 HD
BRANCH   5  17
ATOM     16  C   UNL     1       7.408  -0.922   0.733  0.00  0.00    +0.000 C 
ATOM     17  C   UNL     1       5.895  -0.844   0.823  0.00  0.00    +0.000 C 
ENDBRANCH   5  17
ENDBRANCH   1  10
BRANCH   3  18
ATOM     18  C   UNL     1       2.571  -7.943  -1.408  0.00  0.00    +0.000 C 
BRANCH  18  19
ATOM     19  C   UNL     1       1.641  -8.088  -0.229  0.00  0.00    +0.000 A 
ATOM     20  C   UNL     1       0.260  -7.936  -0.402  0.00  0.00    +0.000 A 
ATOM     21  C   UNL     1      -0.620  -8.138   0.666  0.00  0.00    +0.000 A 
ATOM     22  C   UNL     1      -0.139  -8.501   1.933  0.00  0.00    +0.000 A 
ATOM     23  C   UNL     1       1.246  -8.608   2.116  0.00  0.00    +0.000 A 
ATOM     24  C   UNL     1       2.128  -8.387   1.051  0.00  0.00    +0.000 A 
BRANCH  22  25
ATOM     25  C   UNL     1      -1.091  -8.758   3.081  0.00  0.00    +0.000 C 
BRANCH  25  26
ATOM     26  C   UNL     1      -1.604 -10.178   3.224  0.00  0.00    +0.000 A 
ATOM     27  C   UNL     1      -2.367 -10.773   2.218  0.00  0.00    +0.000 A 
ATOM     28  C   UNL     1      -2.932 -12.027   2.443  0.00  0.00    +0.000 A 
ATOM     29  C   UNL     1      -2.722 -12.660   3.660  0.00  0.00    +0.000 A 
ATOM     30  C   UNL     1      -1.940 -12.015   4.602  0.00  0.00    +0.000 A 
ATOM     31  N   UNL     1      -1.384 -10.796   4.415  0.00  0.00    +0.000 NA
ENDBRANCH  25  26
ENDBRANCH  22  25
ENDBRANCH  18  19
ENDBRANCH   3  18
TORSDOF 6
