REMARK  Name = 
REMARK  5 active torsions:
REMARK  status: ('A' for Active; 'I' for Inactive)
REMARK    1  A    between atoms: N_1  and  C_2
REMARK    2  A    between atoms: C_2  and  C_3
REMARK    3  A    between atoms: C_6  and  O_7
REMARK    4  A    between atoms: O_7  and  C_8
REMARK    5  A    between atoms: C_8  and  C_9
REMARK                            x       y       z     vdW  Elec       q    Type
REMARK                         _______ _______ _______ _____ _____    ______ ____
ROOT
ATOM      1  C   UNL     1       2.868   1.408  -0.477  0.00  0.00    +0.000 A 
ATOM      2  C   UNL     1       2.075   2.523  -0.173  0.00  0.00    +0.000 A 
ATOM      3  C   UNL     1       2.495   3.816  -0.505  0.00  0.00    +0.000 A 
ATOM      4  C   UNL     1       3.721   4.015  -1.139  0.00  0.00    +0.000 A 
ATOM      5  C   UNL     1       4.509   2.908  -1.459  0.00  0.00    +0.000 A 
ATOM      6  C   UNL     1       4.092   1.615  -1.124  0.00  0.00    +0.000 A 
ENDROOT
BRANCH   1   7
ATOM      7  C   UNL     1       2.422   0.021  -0.087  0.00  0.00    +0.000 C 
BRANCH   7   8
ATOM      8  N   UNL     1       1.135  -0.328  -0.679  0.00  0.00    +0.000 NA
ATOM      9  H   UNL     1       0.910  -1.291  -0.440  0.00  0.00    +0.000 HD
ATOM     10  H   UNL     1       1.224  -0.297  -1.694  0.00  0.00    +0.000 HD
ENDBRANCH   7   8
ENDBRANCH   1   7
BRANCH   4  11
ATOM     11  O   UNL     1       4.220   5.228  -1.533  0.00  0.00    +0.000 OA
BRANCH  11  12
ATOM     12  C   UNL     1       3.824   6.346  -0.729  0.00  0.00    +0.000 C 
BRANCH  12  13
ATOM     13  C   UNL     1       4.435   7.625  -1.264  0.00  0.00    +0.000 A 
ATOM     14  N   UNL     1       3.701   8.345  -2.142  0.00  0.00    +0.000 NA
ATOM     15  C   UNL     1       4.251   9.486  -2.595  0.00  0.00    +0.000 A 
ATOM     16  C   UNL     1       5.488   9.938  -2.207  0.00  0.00    +0.000 A 
ATOM     17  C   UNL     1       6.153   9.143  -1.305  0.00  0.00    +0.000 A 
ATOM     18  N   UNL     1       5.655   7.991  -0.816  0.00  0.00    +0.000 NA
ENDBRANCH  12  13
ENDBRANCH  11  12
ENDBRANCH   4  11
TORSDOF 5
