REMARK  Name = 
REMARK  7 active torsions:
REMARK  status: ('A' for Active; 'I' for Inactive)
REMARK    1  A    between atoms: C_1  and  C_2
REMARK    2  A    between atoms: C_2  and  C_3
REMARK    3  A    between atoms: C_2  and  N_4
REMARK    4  A    between atoms: C_2  and  C_5
REMARK    5  A    between atoms: C_5  and  C_6
REMARK    6  A    between atoms: C_9  and  C_10
REMARK    7  A    between atoms: C_10  and  N_11
REMARK                            x       y       z     vdW  Elec       q    Type
REMARK                         _______ _______ _______ _____ _____    ______ ____
ROOT
ATOM      1  C   UNL     1       4.488   1.014   1.062  0.00  0.00    +0.000 A 
ATOM      2  C   UNL     1       5.160   2.202   0.784  0.00  0.00    +0.000 A 
ATOM      3  C   UNL     1       6.556   2.232   0.799  0.00  0.00    +0.000 A 
ATOM      4  C   UNL     1       7.250   1.066   1.117  0.00  0.00    +0.000 A 
ATOM      5  N   UNL     1       6.617  -0.097   1.407  0.00  0.00    +0.000 NA
ATOM      6  C   UNL     1       5.263  -0.098   1.371  0.00  0.00    +0.000 A 
ENDROOT
BRANCH   1   7
ATOM      7  C   UNL     1       2.982   0.927   1.024  0.00  0.00    +0.000 C 
BRANCH   7   9
ATOM      8  C   UNL     1       0.819   0.530  -0.195  0.00  0.00    +0.000 C 
ATOM      9  C   UNL     1       2.349   0.567  -0.353  0.00  0.00    +0.000 C 
ATOM     10  C   UNL     1       2.828  -0.801  -0.866  0.00  0.00    +0.000 C 
BRANCH   9  11
ATOM     11  N   UNL     1       2.659   1.592  -1.362  0.00  0.00    +0.000 NA
ATOM     12  H   UNL     1       2.279   1.311  -2.266  0.00  0.00    +0.000 HD
ATOM     13  H   UNL     1       3.670   1.637  -1.499  0.00  0.00    +0.000 HD
ENDBRANCH   9  11
ENDBRANCH   7   9
ENDBRANCH   1   7
BRANCH   4  14
ATOM     14  C   UNL     1       8.758   1.038   1.123  0.00  0.00    +0.000 C 
BRANCH  14  15
ATOM     15  N   UNL     1       9.284   0.772  -0.203  0.00  0.00    +0.000 N 
ATOM     16  C   UNL     1       9.108  -0.397  -0.897  0.00  0.00    +0.000 A 
ATOM     17  N   UNL     1       9.658  -0.344  -2.088  0.00  0.00    +0.000 NA
ATOM     18  C   UNL     1      10.230   0.902  -2.164  0.00  0.00    +0.000 A 
ATOM     19  C   UNL     1      10.933   1.493  -3.224  0.00  0.00    +0.000 A 
ATOM     20  C   UNL     1      11.436   2.789  -3.059  0.00  0.00    +0.000 A 
ATOM     21  C   UNL     1      11.260   3.475  -1.856  0.00  0.00    +0.000 A 
ATOM     22  C   UNL     1      10.559   2.903  -0.788  0.00  0.00    +0.000 A 
ATOM     23  C   UNL     1      10.042   1.615  -0.981  0.00  0.00    +0.000 A 
ENDBRANCH  14  15
ENDBRANCH   4  14
TORSDOF 5
