REMARK  Name = 
REMARK  5 active torsions:
REMARK  status: ('A' for Active; 'I' for Inactive)
REMARK    1  A    between atoms: C_1  and  C_2
REMARK    2  A    between atoms: C_2  and  N_3
REMARK    3  A    between atoms: C_2  and  C_13
REMARK    4  A    between atoms: N_3  and  C_4
REMARK    5  A    between atoms: C_7  and  C_8
REMARK                            x       y       z     vdW  Elec       q    Type
REMARK                         _______ _______ _______ _____ _____    ______ ____
ROOT
ATOM      1  N   UNL     1       2.898  -1.131   0.822  0.00  0.00    +0.000 N 
ATOM      2  H   UNL     1       3.706  -1.623   0.439  0.00  0.00    +0.000 HD
ENDROOT
BRANCH   1   3
ATOM      3  C   UNL     1       3.037  -0.974   2.207  0.00  0.00    +0.000 A 
ATOM      4  C   UNL     1       2.302  -0.058   2.952  0.00  0.00    +0.000 A 
ATOM      5  C   UNL     1       2.428   0.011   4.340  0.00  0.00    +0.000 A 
ATOM      6  C   UNL     1       3.280  -0.881   4.970  0.00  0.00    +0.000 A 
ATOM      7  N   UNL     1       3.996  -1.828   4.310  0.00  0.00    +0.000 NA
ATOM      8  C   UNL     1       3.837  -1.853   2.957  0.00  0.00    +0.000 A 
BRANCH   6   9
ATOM      9  C   UNL     1       3.411  -0.823   6.461  0.00  0.00    +0.000 C 
ATOM     10  N   UNL     1       4.266  -1.730   7.023  0.00  0.00    +0.000 N 
ATOM     11  O   UNL     1       2.788  -0.022   7.149  0.00  0.00    +0.000 OA
ATOM     12  H   UNL     1       4.743  -2.402   6.432  0.00  0.00    +0.000 HD
ATOM     13  H   UNL     1       4.357  -1.768   8.026  0.00  0.00    +0.000 HD
ENDBRANCH   6   9
ENDBRANCH   1   3
BRANCH   1  15
ATOM     14  C   UNL     1       1.023   0.179  -0.195  0.00  0.00    +0.000 C 
ATOM     15  C   UNL     1       2.539   0.019  -0.030  0.00  0.00    +0.000 C 
BRANCH  15  16
ATOM     16  C   UNL     1       3.168  -0.196  -1.404  0.00  0.00    +0.000 A 
ATOM     17  C   UNL     1       4.111   0.716  -1.902  0.00  0.00    +0.000 A 
ATOM     18  C   UNL     1       4.702   0.511  -3.152  0.00  0.00    +0.000 A 
ATOM     19  C   UNL     1       4.357  -0.606  -3.909  0.00  0.00    +0.000 A 
ATOM     20 CL   UNL     1       5.107  -0.871  -5.434  0.00  0.00    +0.000 Cl
ATOM     21  C   UNL     1       3.416  -1.517  -3.435  0.00  0.00    +0.000 A 
ATOM     22  C   UNL     1       2.823  -1.311  -2.190  0.00  0.00    +0.000 A 
ENDBRANCH  15  16
ENDBRANCH   1  15
TORSDOF 4
