REMARK  Name = 
REMARK  9 active torsions:
REMARK  status: ('A' for Active; 'I' for Inactive)
REMARK    1  A    between atoms: C_1  and  C_2
REMARK    2  A    between atoms: C_2  and  C_3
REMARK    3  A    between atoms: C_3  and  N_4
REMARK    4  A    between atoms: C_3  and  C_17
REMARK    5  A    between atoms: C_5  and  C_7
REMARK    6  A    between atoms: C_20  and  C_21
REMARK    7  A    between atoms: C_21  and  N_22
REMARK    8  A    between atoms: N_22  and  C_23
REMARK    9  A    between atoms: C_23  and  C_24
REMARK                            x       y       z     vdW  Elec       q    Type
REMARK                         _______ _______ _______ _____ _____    ______ ____
ROOT
ATOM      1  C   UNL     1      14.444   4.995  -7.412  0.00  0.00    +0.000 C 
ENDROOT
BRANCH   1   2
ATOM      2  C   UNL     1      13.760   4.383  -6.196  0.00  0.00    +0.000 A 
ATOM      3  C   UNL     1      13.600   5.139  -5.027  0.00  0.00    +0.000 A 
ATOM      4  C   UNL     1      12.984   4.587  -3.900  0.00  0.00    +0.000 A 
ATOM      5  C   UNL     1      12.498   3.271  -3.915  0.00  0.00    +0.000 A 
ATOM      6  C   UNL     1      12.636   2.521  -5.088  0.00  0.00    +0.000 A 
ATOM      7  C   UNL     1      13.259   3.070  -6.213  0.00  0.00    +0.000 A 
BRANCH   5   8
ATOM      8  C   UNL     1      11.818   2.690  -2.692  0.00  0.00    +0.000 C 
BRANCH   8   9
ATOM      9  N   UNL     1      10.624   3.466  -2.370  0.00  0.00    +0.000 NA
ATOM     10  H   UNL     1      10.023   3.485  -3.193  0.00  0.00    +0.000 HD
BRANCH   9  11
ATOM     11  C   UNL     1       9.888   2.955  -1.216  0.00  0.00    +0.000 C 
BRANCH  11  12
ATOM     12  C   UNL     1       8.759   3.931  -0.878  0.00  0.00    +0.000 C 
ATOM     13  C   UNL     1       7.710   4.118  -1.964  0.00  0.00    +0.000 C 
ATOM     14  C   UNL     1       6.613   4.817  -1.190  0.00  0.00    +0.000 C 
ATOM     15  N   UNL     1       6.573   4.125   0.105  0.00  0.00    +0.000 NA
ATOM     16  C   UNL     1       7.905   3.522   0.319  0.00  0.00    +0.000 C 
ATOM     17  H   UNL     1       5.881   3.377   0.057  0.00  0.00    +0.000 HD
ENDBRANCH  11  12
ENDBRANCH   9  11
ENDBRANCH   8   9
ENDBRANCH   5   8
ENDBRANCH   1   2
BRANCH   1  18
ATOM     18  N   UNL     1      13.470   5.124  -8.485  0.00  0.00    +0.000 N 
ATOM     19  C   UNL     1      13.569   6.034  -9.503  0.00  0.00    +0.000 C 
ATOM     20  O   UNL     1      14.524   6.799  -9.612  0.00  0.00    +0.000 OA
ATOM     21  H   UNL     1      12.622   4.577  -8.388  0.00  0.00    +0.000 HD
BRANCH  19  22
ATOM     22  C   UNL     1      12.474   6.026 -10.487  0.00  0.00    +0.000 A 
ATOM     23  C   UNL     1      12.677   6.563 -11.752  0.00  0.00    +0.000 A 
ATOM     24  S   UNL     1      11.300   6.488 -12.756  0.00  0.00    +0.000 S 
ATOM     25  C   UNL     1      10.366   5.786 -11.519  0.00  0.00    +0.000 A 
ATOM     26  N   UNL     1       9.046   5.513 -11.706  0.00  0.00    +0.000 NA
ATOM     27  C   UNL     1       8.449   5.027 -10.669  0.00  0.00    +0.000 A 
ATOM     28  N   UNL     1       9.055   4.767  -9.469  0.00  0.00    +0.000 N 
ATOM     29  C   UNL     1      10.403   4.932  -9.273  0.00  0.00    +0.000 A 
ATOM     30  O   UNL     1      10.940   4.523  -8.251  0.00  0.00    +0.000 OA
ATOM     31  C   UNL     1      11.109   5.557 -10.375  0.00  0.00    +0.000 A 
ATOM     32  H   UNL     1       8.547   4.341  -8.710  0.00  0.00    +0.000 HD
ENDBRANCH  19  22
ENDBRANCH   1  18
BRANCH   1  34
ATOM     33  C   UNL     1      16.753   4.057  -6.823  0.00  0.00    +0.000 C 
ATOM     34  C   UNL     1      15.664   4.176  -7.882  0.00  0.00    +0.000 C 
ENDBRANCH   1  34
TORSDOF 8
