REMARK  Name = 
REMARK  10 active torsions:
REMARK  status: ('A' for Active; 'I' for Inactive)
REMARK    1  A    between atoms: C_1  and  O_2
REMARK    2  A    between atoms: O_2  and  C_3
REMARK    3  A    between atoms: C_10  and  C_11
REMARK    4  A    between atoms: N_13  and  C_14
REMARK    5  A    between atoms: C_14  and  C_15
REMARK    6  A    between atoms: C_18  and  C_19
REMARK    7  A    between atoms: C_19  and  O_20
REMARK    8  A    between atoms: O_20  and  C_21
REMARK    9  A    between atoms: C_21  and  C_22
REMARK   10  A    between atoms: C_26  and  C_27
REMARK                            x       y       z     vdW  Elec       q    Type
REMARK                         _______ _______ _______ _____ _____    ______ ____
ROOT
ATOM      1  C   UNL     1       3.158  -3.007   1.282  0.00  0.00    +0.000 C 
ENDROOT
BRANCH   1   2
ATOM      2  C   UNL     1       2.149  -2.522   2.304  0.00  0.00    +0.000 A 
ATOM      3  C   UNL     1       1.304  -3.426   2.967  0.00  0.00    +0.000 A 
ATOM      4  C   UNL     1       0.394  -2.981   3.939  0.00  0.00    +0.000 A 
ATOM      5  C   UNL     1       0.292  -1.618   4.252  0.00  0.00    +0.000 A 
ATOM      6  C   UNL     1       1.132  -0.717   3.589  0.00  0.00    +0.000 A 
ATOM      7  C   UNL     1       2.045  -1.161   2.622  0.00  0.00    +0.000 A 
BRANCH   5   8
ATOM      8  C   UNL     1      -0.717  -1.116   5.255  0.00  0.00    +0.000 C 
BRANCH   8   9
ATOM      9  O   UNL     1      -0.464  -1.710   6.521  0.00  0.00    +0.000 OA
BRANCH   9  10
ATOM     10  C   UNL     1      -1.379  -1.227   7.510  0.00  0.00    +0.000 C 
BRANCH  10  11
ATOM     11  C   UNL     1      -1.116  -1.875   8.848  0.00  0.00    +0.000 A 
ATOM     12  C   UNL     1       0.171  -2.253   9.220  0.00  0.00    +0.000 A 
ATOM     13  C   UNL     1       0.365  -2.842  10.462  0.00  0.00    +0.000 A 
ATOM     14  C   UNL     1      -0.724  -3.024  11.306  0.00  0.00    +0.000 A 
ATOM     15  C   UNL     1      -1.979  -2.602  10.881  0.00  0.00    +0.000 A 
ATOM     16  C   UNL     1      -3.184  -2.766  11.757  0.00  0.00    +0.000 C 
ATOM     17  N   UNL     1      -2.185  -2.027   9.673  0.00  0.00    +0.000 NA
ENDBRANCH  10  11
ENDBRANCH   9  10
ENDBRANCH   8   9
ENDBRANCH   5   8
ENDBRANCH   1   2
BRANCH   1  20
ATOM     18  C   UNL     1       3.278  -3.553  -1.142  0.00  0.00    +0.000 C 
ATOM     19  O   UNL     1       4.447  -3.913  -1.063  0.00  0.00    +0.000 OA
ATOM     20  N   UNL     1       2.597  -3.085  -0.044  0.00  0.00    +0.000 N 
ATOM     21  H   UNL     1       1.630  -2.811  -0.142  0.00  0.00    +0.000 HD
BRANCH  18  29
ATOM     22  C   UNL     1       0.040  -2.799  -2.002  0.00  0.00    +0.000 A 
ATOM     23  N   UNL     1      -1.135  -2.524  -2.598  0.00  0.00    +0.000 NA
ATOM     24  C   UNL     1      -1.221  -2.691  -3.919  0.00  0.00    +0.000 A 
ATOM     25  N   UNL     1      -0.262  -3.120  -4.737  0.00  0.00    +0.000 NA
ATOM     26  C   UNL     1       0.893  -3.382  -4.098  0.00  0.00    +0.000 A 
ATOM     27  S   UNL     1       2.228  -3.958  -4.978  0.00  0.00    +0.000 S 
ATOM     28  C   UNL     1       3.191  -4.018  -3.575  0.00  0.00    +0.000 A 
ATOM     29  C   UNL     1       2.540  -3.595  -2.423  0.00  0.00    +0.000 A 
ATOM     30  C   UNL     1       1.151  -3.241  -2.739  0.00  0.00    +0.000 A 
BRANCH  22  32
ATOM     31  C   UNL     1      -1.038  -2.107  -0.028  0.00  0.00    +0.000 C 
ATOM     32  O   UNL     1       0.125  -2.656  -0.634  0.00  0.00    +0.000 OA
ENDBRANCH  22  32
ENDBRANCH  18  29
ENDBRANCH   1  20
TORSDOF 8
