REMARK  Name = 
REMARK  7 active torsions:
REMARK  status: ('A' for Active; 'I' for Inactive)
REMARK    1  A    between atoms: C_1  and  S_2
REMARK    2  A    between atoms: S_2  and  C_3
REMARK    3  A    between atoms: C_6  and  C_7
REMARK    4  A    between atoms: C_7  and  O_8
REMARK    5  A    between atoms: O_8  and  C_9
REMARK    6  A    between atoms: C_12  and  C_13
REMARK    7  A    between atoms: C_13  and  N_14
REMARK                            x       y       z     vdW  Elec       q    Type
REMARK                         _______ _______ _______ _____ _____    ______ ____
ROOT
ATOM      1  O   UNL     1       3.686   4.807   4.496  0.00  0.00    +0.000 OA
ENDROOT
BRANCH   1   2
ATOM      2  C   UNL     1       4.080   5.806   5.340  0.00  0.00    +0.000 A 
ATOM      3  C   UNL     1       4.950   5.686   6.424  0.00  0.00    +0.000 A 
ATOM      4  C   UNL     1       5.265   6.809   7.205  0.00  0.00    +0.000 A 
ATOM      5  C   UNL     1       4.711   8.065   6.915  0.00  0.00    +0.000 A 
ATOM      6  C   UNL     1       3.838   8.173   5.826  0.00  0.00    +0.000 A 
ATOM      7  C   UNL     1       3.529   7.054   5.048  0.00  0.00    +0.000 A 
BRANCH   5   8
ATOM      8  C   UNL     1       5.008   9.271   7.772  0.00  0.00    +0.000 C 
BRANCH   8   9
ATOM      9  N   UNL     1       5.606  10.356   7.002  0.00  0.00    +0.000 NA
ATOM     10  H   UNL     1       6.493  10.036   6.615  0.00  0.00    +0.000 HD
ATOM     11  H   UNL     1       5.825  11.128   7.628  0.00  0.00    +0.000 HD
ENDBRANCH   8   9
ENDBRANCH   5   8
ENDBRANCH   1   2
BRANCH   1  12
ATOM     12  C   UNL     1       4.238   3.506   4.709  0.00  0.00    +0.000 C 
BRANCH  12  16
ATOM     13  C   UNL     1       2.767   0.841   1.744  0.00  0.00    +0.000 A 
ATOM     14  C   UNL     1       3.919   1.580   1.579  0.00  0.00    +0.000 A 
ATOM     15  N   UNL     1       4.418   2.431   2.507  0.00  0.00    +0.000 NA
ATOM     16  C   UNL     1       3.711   2.558   3.651  0.00  0.00    +0.000 A 
ATOM     17  N   UNL     1       2.566   1.892   3.910  0.00  0.00    +0.000 NA
ATOM     18  C   UNL     1       2.119   1.061   2.942  0.00  0.00    +0.000 A 
BRANCH  13  20
ATOM     19  C   UNL     1       2.213  -1.820   1.466  0.00  0.00    +0.000 C 
ATOM     20  S   UNL     1       2.182  -0.281   0.507  0.00  0.00    +0.000 S 
ENDBRANCH  13  20
ENDBRANCH  12  16
ENDBRANCH   1  12
TORSDOF 6
