REMARK  Name = 
REMARK  3 active torsions:
REMARK  status: ('A' for Active; 'I' for Inactive)
REMARK    1  A    between atoms: C_3  and  C_4
REMARK    2  A    between atoms: C_4  and  N_5
REMARK    3  A    between atoms: N_5  and  C_6
REMARK                            x       y       z     vdW  Elec       q    Type
REMARK                         _______ _______ _______ _____ _____    ______ ____
ROOT
ATOM      1  C   UNL     1       1.438  -0.065   0.055  0.00  0.00    +0.000 A 
ATOM      2  C   UNL     1       0.773   1.153   0.061  0.00  0.00    +0.000 A 
ATOM      3  C   UNL     1      -0.616   1.148   0.016  0.00  0.00    +0.000 A 
ATOM      4  N   UNL     1      -1.340  -0.003  -0.004  0.00  0.00    +0.000 NA
ATOM      5  C   UNL     1      -0.697  -1.187   0.013  0.00  0.00    +0.000 A 
ATOM      6  N   UNL     1      -1.423  -2.374   0.135  0.00  0.00    +0.000 N 
ATOM      7  C   UNL     1      -2.790  -2.207   0.635  0.00  0.00    +0.000 C 
ATOM      8  C   UNL     1      -3.229  -3.551   1.217  0.00  0.00    +0.000 C 
ATOM      9  C   UNL     1      -3.111  -4.675   0.185  0.00  0.00    +0.000 C 
ATOM     10  C   UNL     1      -1.738  -4.691  -0.493  0.00  0.00    +0.000 C 
ATOM     11  C   UNL     1      -1.327  -3.303  -0.992  0.00  0.00    +0.000 C 
ATOM     12  C   UNL     1       0.697  -1.243   0.022  0.00  0.00    +0.000 A 
ENDROOT
BRANCH   3  13
ATOM     13  C   UNL     1      -1.398   2.446  -0.011  0.00  0.00    +0.000 C 
BRANCH  13  14
ATOM     14  N   UNL     1      -1.710   2.913   1.343  0.00  0.00    +0.000 N 
ATOM     15  H   UNL     1      -0.924   2.841   1.982  0.00  0.00    +0.000 HD
BRANCH  14  16
ATOM     16  C   UNL     1      -2.479   4.067   1.514  0.00  0.00    +0.000 A 
ATOM     17  C   UNL     1      -3.413   4.515   0.579  0.00  0.00    +0.000 A 
ATOM     18  C   UNL     1      -4.187   5.631   0.867  0.00  0.00    +0.000 A 
ATOM     19  N   UNL     1      -4.110   6.323   2.020  0.00  0.00    +0.000 NA
ATOM     20  C   UNL     1      -3.238   5.854   2.934  0.00  0.00    +0.000 A 
ATOM     21  C   UNL     1      -2.428   4.744   2.735  0.00  0.00    +0.000 A 
ENDBRANCH  14  16
ENDBRANCH  13  14
ENDBRANCH   3  13
TORSDOF 3
