REMARK  Name = 
REMARK  5 active torsions:
REMARK  status: ('A' for Active; 'I' for Inactive)
REMARK    1  A    between atoms: C_2  and  C_4
REMARK    2  A    between atoms: C_7  and  O_8
REMARK    3  A    between atoms: O_8  and  C_9
REMARK    4  A    between atoms: C_9  and  C_10
REMARK    5  A    between atoms: C_14  and  C_15
REMARK                            x       y       z     vdW  Elec       q    Type
REMARK                         _______ _______ _______ _____ _____    ______ ____
ROOT
ATOM      1  C   UNL     1       4.551   4.402  -4.066  0.00  0.00    +0.000 C 
ATOM      2  C   UNL     1       4.353   5.697  -3.304  0.00  0.00    +0.000 C 
ATOM      3  C   UNL     1       3.584   5.475  -4.559  0.00  0.00    +0.000 C 
ENDROOT
BRANCH   1   4
ATOM      4  C   UNL     1       5.816   4.207  -4.908  0.00  0.00    +0.000 A 
ATOM      5  C   UNL     1       5.817   3.476  -6.104  0.00  0.00    +0.000 A 
ATOM      6  C   UNL     1       6.915   3.512  -6.970  0.00  0.00    +0.000 A 
ATOM      7  C   UNL     1       8.025   4.306  -6.668  0.00  0.00    +0.000 A 
ATOM      8  C   UNL     1       8.088   5.028  -5.470  0.00  0.00    +0.000 A 
ATOM      9  C   UNL     1       7.004   4.896  -4.583  0.00  0.00    +0.000 A 
BRANCH   8  10
ATOM     10  C   UNL     1       9.162   6.004  -5.187  0.00  0.00    +0.000 A 
ATOM     11  C   UNL     1       9.679   6.213  -3.901  0.00  0.00    +0.000 A 
ATOM     12  C   UNL     1      10.604   7.232  -3.663  0.00  0.00    +0.000 A 
ATOM     13  C   UNL     1      11.006   8.018  -4.727  0.00  0.00    +0.000 A 
ATOM     14  N   UNL     1      10.557   7.852  -5.986  0.00  0.00    +0.000 NA
ATOM     15  C   UNL     1       9.649   6.861  -6.179  0.00  0.00    +0.000 A 
ENDBRANCH   8  10
ENDBRANCH   1   4
BRANCH   1  16
ATOM     16  O   UNL     1       3.774   3.254  -3.664  0.00  0.00    +0.000 OA
BRANCH  16  20
ATOM     17  C   UNL     1       5.351   0.355  -1.279  0.00  0.00    +0.000 A 
ATOM     18  C   UNL     1       4.057   0.217  -1.775  0.00  0.00    +0.000 A 
ATOM     19  C   UNL     1       3.516   1.258  -2.512  0.00  0.00    +0.000 A 
ATOM     20  C   UNL     1       4.292   2.390  -2.724  0.00  0.00    +0.000 A 
ATOM     21  N   UNL     1       5.499   2.605  -2.163  0.00  0.00    +0.000 NA
ATOM     22  C   UNL     1       6.002   1.574  -1.435  0.00  0.00    +0.000 A 
BRANCH  17  24
ATOM     23  N   UNL     1       5.806  -2.011  -1.249  0.00  0.00    +0.000 N 
ATOM     24  C   UNL     1       6.075  -0.786  -0.695  0.00  0.00    +0.000 C 
ATOM     25  O   UNL     1       6.919  -0.641   0.173  0.00  0.00    +0.000 OA
ATOM     26  H   UNL     1       6.416  -2.771  -0.982  0.00  0.00    +0.000 HD
ATOM     27  H   UNL     1       5.328  -2.094  -2.138  0.00  0.00    +0.000 HD
ENDBRANCH  17  24
ENDBRANCH  16  20
ENDBRANCH   1  16
TORSDOF 5
