REMARK  Name = 
REMARK  9 active torsions:
REMARK  status: ('A' for Active; 'I' for Inactive)
REMARK    1  A    between atoms: C_2  and  C_22
REMARK    2  A    between atoms: N_3  and  CA_4
REMARK    3  A    between atoms: CA_4  and  C_5
REMARK    4  A    between atoms: CA_4  and  C_7
REMARK    5  A    between atoms: C_5  and  O_6
REMARK    6  A    between atoms: C_10  and  C_11
REMARK    7  A    between atoms: C_11  and  O_12
REMARK    8  A    between atoms: C_11  and  C_13
REMARK    9  A    between atoms: C_13  and  N_14
REMARK                            x       y       z     vdW  Elec       q    Type
REMARK                         _______ _______ _______ _____ _____    ______ ____
ROOT
ATOM      1  CA  UNL     1       3.720  -2.902 -11.018  0.00  0.00    +0.000 C 
ENDROOT
BRANCH   1   2
ATOM      2  C   UNL     1       4.299  -2.183  -9.812  0.00  0.00    +0.000 A 
ATOM      3  C   UNL     1       5.008  -0.996 -10.040  0.00  0.00    +0.000 A 
ATOM      4  C   UNL     1       5.517  -0.246  -8.979  0.00  0.00    +0.000 A 
ATOM      5  C   UNL     1       5.323  -0.691  -7.677  0.00  0.00    +0.000 A 
ATOM      6  N   UNL     1       4.649  -1.843  -7.413  0.00  0.00    +0.000 NA
ATOM      7  C   UNL     1       4.150  -2.553  -8.479  0.00  0.00    +0.000 A 
BRANCH   5   8
ATOM      8  C   UNL     1       5.929   0.111  -6.513  0.00  0.00    +0.000 C 
BRANCH   8   9
ATOM      9  O   UNL     1       6.269  -0.761  -5.427  0.00  0.00    +0.000 OA
ATOM     10  H   UNL     1       5.803  -1.602  -5.630  0.00  0.00    +0.000 HD
ENDBRANCH   8   9
BRANCH   8  11
ATOM     11  C   UNL     1       4.985   1.234  -6.005  0.00  0.00    +0.000 C 
BRANCH  11  12
ATOM     12  N   UNL     1       5.489   2.348  -5.174  0.00  0.00    +0.000 NA
ATOM     13  C   UNL     1       6.519   3.204  -5.772  0.00  0.00    +0.000 C 
ATOM     14  C   UNL     1       7.959   2.786  -5.442  0.00  0.00    +0.000 C 
ATOM     15  O   UNL     1       8.157   2.750  -4.026  0.00  0.00    +0.000 OA
ATOM     16  C   UNL     1       7.280   1.782  -3.433  0.00  0.00    +0.000 C 
ATOM     17  C   UNL     1       5.799   2.054  -3.766  0.00  0.00    +0.000 C 
ENDBRANCH  11  12
ENDBRANCH   8  11
ENDBRANCH   5   8
ENDBRANCH   1   2
BRANCH   1  20
ATOM     18  O   UNL     1       3.005  -2.223 -13.638  0.00  0.00    +0.000 OA
ATOM     19  C   UNL     1       2.190  -2.003 -12.746  0.00  0.00    +0.000 C 
ATOM     20  N   UNL     1       2.483  -2.244 -11.425  0.00  0.00    +0.000 N 
ATOM     21  H   UNL     1       1.764  -2.124 -10.720  0.00  0.00    +0.000 HD
BRANCH  19  22
ATOM     22  C   UNL     1       0.864  -1.457 -13.047  0.00  0.00    +0.000 A 
ATOM     23  C   UNL     1       0.661  -0.749 -14.225  0.00  0.00    +0.000 A 
ATOM     24  S   UNL     1      -0.955  -0.263 -14.465  0.00  0.00    +0.000 S 
ATOM     25  C   UNL     1      -1.451  -1.027 -13.028  0.00  0.00    +0.000 A 
ATOM     26  N   UNL     1      -2.764  -1.073 -12.679  0.00  0.00    +0.000 NA
ATOM     27  C   UNL     1      -3.002  -1.712 -11.583  0.00  0.00    +0.000 A 
ATOM     28  N   UNL     1      -2.041  -2.279 -10.785  0.00  0.00    +0.000 N 
ATOM     29  C   UNL     1      -0.698  -2.226 -11.079  0.00  0.00    +0.000 A 
ATOM     30  O   UNL     1       0.149  -2.689 -10.318  0.00  0.00    +0.000 OA
ATOM     31  C   UNL     1      -0.387  -1.576 -12.335  0.00  0.00    +0.000 A 
ATOM     32  H   UNL     1      -2.297  -2.732  -9.920  0.00  0.00    +0.000 HD
ENDBRANCH  19  22
ENDBRANCH   1  20
BRANCH   1  33
ATOM     33  C   UNL     1       3.521  -4.436 -10.959  0.00  0.00    +0.000 C 
BRANCH  33  34
ATOM     34  O   UNL     1       2.566  -4.838  -9.978  0.00  0.00    +0.000 OA
ATOM     35  H   UNL     1       1.717  -4.417 -10.213  0.00  0.00    +0.000 HD
ENDBRANCH  33  34
ENDBRANCH   1  33
TORSDOF 9
