REMARK  Name = 
REMARK  8 active torsions:
REMARK  status: ('A' for Active; 'I' for Inactive)
REMARK    1  A    between atoms: C_1  and  C_2
REMARK    2  A    between atoms: C_2  and  N_3
REMARK    3  A    between atoms: C_2  and  C_25
REMARK    4  A    between atoms: N_3  and  C_4
REMARK    5  A    between atoms: C_4  and  C_5
REMARK    6  A    between atoms: C_8  and  C_9
REMARK    7  A    between atoms: C_9  and  N_10
REMARK    8  A    between atoms: C_11  and  C_13
REMARK                            x       y       z     vdW  Elec       q    Type
REMARK                         _______ _______ _______ _____ _____    ______ ____
ROOT
ATOM      1  C   UNL     1       2.991   3.358  -1.502  0.00  0.00    +0.000 A 
ATOM      2  C   UNL     1       2.064   4.405  -1.617  0.00  0.00    +0.000 A 
ATOM      3  C   UNL     1       2.492   5.736  -1.658  0.00  0.00    +0.000 A 
ATOM      4  C   UNL     1       3.853   6.049  -1.583  0.00  0.00    +0.000 A 
ATOM      5  C   UNL     1       4.777   5.008  -1.428  0.00  0.00    +0.000 A 
ATOM      6  C   UNL     1       4.352   3.677  -1.398  0.00  0.00    +0.000 A 
ENDROOT
BRANCH   1   7
ATOM      7  C   UNL     1       2.539   1.912  -1.489  0.00  0.00    +0.000 C 
BRANCH   7   8
ATOM      8  N   UNL     1       1.918   1.548  -2.758  0.00  0.00    +0.000 NA
ATOM      9  H   UNL     1       1.142   2.183  -2.941  0.00  0.00    +0.000 HD
BRANCH   8  11
ATOM     10  C   UNL     1       2.501  -0.883  -2.691  0.00  0.00    +0.000 C 
ATOM     11  C   UNL     1       1.399   0.175  -2.817  0.00  0.00    +0.000 C 
BRANCH  11  12
ATOM     12  C   UNL     1       0.650  -0.004  -4.134  0.00  0.00    +0.000 A 
ATOM     13  C   UNL     1      -0.707  -0.356  -4.150  0.00  0.00    +0.000 A 
ATOM     14  C   UNL     1      -1.396  -0.468  -5.359  0.00  0.00    +0.000 A 
ATOM     15  C   UNL     1      -0.740  -0.232  -6.567  0.00  0.00    +0.000 A 
ATOM     16  C   UNL     1       0.610   0.108  -6.568  0.00  0.00    +0.000 A 
ATOM     17  C   UNL     1       1.299   0.221  -5.361  0.00  0.00    +0.000 A 
ENDBRANCH  11  12
ENDBRANCH   8  11
ENDBRANCH   7   8
ENDBRANCH   1   7
BRANCH   4  18
ATOM     18  C   UNL     1       4.319   7.479  -1.621  0.00  0.00    +0.000 C 
BRANCH  18  19
ATOM     19  N   UNL     1       4.379   8.036  -0.294  0.00  0.00    +0.000 N 
ATOM     20  C   UNL     1       4.697   9.353  -0.091  0.00  0.00    +0.000 C 
ATOM     21  O   UNL     1       4.898  10.125  -1.026  0.00  0.00    +0.000 OA
ATOM     22  H   UNL     1       4.431   7.381   0.479  0.00  0.00    +0.000 HD
BRANCH  20  23
ATOM     23  C   UNL     1       4.727   9.815   1.302  0.00  0.00    +0.000 A 
ATOM     24  C   UNL     1       4.569  11.167   1.578  0.00  0.00    +0.000 A 
ATOM     25  S   UNL     1       4.577  11.531   3.243  0.00  0.00    +0.000 S 
ATOM     26  C   UNL     1       4.844   9.901   3.653  0.00  0.00    +0.000 A 
ATOM     27  N   UNL     1       4.977   9.523   4.952  0.00  0.00    +0.000 NA
ATOM     28  C   UNL     1       5.204   8.264   5.121  0.00  0.00    +0.000 A 
ATOM     29  N   UNL     1       5.304   7.347   4.106  0.00  0.00    +0.000 N 
ATOM     30  C   UNL     1       5.153   7.679   2.781  0.00  0.00    +0.000 A 
ATOM     31  O   UNL     1       5.216   6.827   1.901  0.00  0.00    +0.000 OA
ATOM     32  C   UNL     1       4.906   9.087   2.536  0.00  0.00    +0.000 A 
ATOM     33  H   UNL     1       5.478   6.374   4.306  0.00  0.00    +0.000 HD
ENDBRANCH  20  23
ENDBRANCH  18  19
ENDBRANCH   4  18
TORSDOF 7
