REMARK  Name = 
REMARK  6 active torsions:
REMARK  status: ('A' for Active; 'I' for Inactive)
REMARK    1  A    between atoms: N_1  and  C_2
REMARK    2  A    between atoms: C_2  and  C_3
REMARK    3  A    between atoms: C_2  and  C_9
REMARK    4  A    between atoms: C_12  and  C_13
REMARK    5  A    between atoms: C_13  and  N_14
REMARK    6  A    between atoms: C_15  and  C_17
REMARK                            x       y       z     vdW  Elec       q    Type
REMARK                         _______ _______ _______ _____ _____    ______ ____
ROOT
ATOM      1  C   UNL     1       2.955   0.761   1.270  0.00  0.00    +0.000 A 
ATOM      2  C   UNL     1       3.016   2.163   1.297  0.00  0.00    +0.000 A 
ATOM      3  C   UNL     1       3.314   2.848   2.482  0.00  0.00    +0.000 A 
ATOM      4  C   UNL     1       3.573   2.147   3.667  0.00  0.00    +0.000 A 
ATOM      5  C   UNL     1       3.533   0.748   3.641  0.00  0.00    +0.000 A 
ATOM      6  C   UNL     1       3.235   0.064   2.458  0.00  0.00    +0.000 A 
ENDROOT
BRANCH   1   7
ATOM      7  C   UNL     1       2.557   0.031  -0.009  0.00  0.00    +0.000 C 
BRANCH   7   8
ATOM      8  C   UNL     1       1.267  -0.773   0.160  0.00  0.00    +0.000 A 
ATOM      9  C   UNL     1       1.258  -2.132   0.523  0.00  0.00    +0.000 A 
ATOM     10  C   UNL     1       0.057  -2.801   0.766  0.00  0.00    +0.000 A 
ATOM     11  C   UNL     1      -1.156  -2.128   0.646  0.00  0.00    +0.000 A 
ATOM     12  C   UNL     1      -1.171  -0.789   0.264  0.00  0.00    +0.000 A 
ATOM     13  C   UNL     1       0.030  -0.117   0.024  0.00  0.00    +0.000 A 
ENDBRANCH   7   8
BRANCH   7  14
ATOM     14  N   UNL     1       3.673  -0.761  -0.536  0.00  0.00    +0.000 NA
ATOM     15  H   UNL     1       3.333  -1.310  -1.323  0.00  0.00    +0.000 HD
ATOM     16  H   UNL     1       3.981  -1.418   0.174  0.00  0.00    +0.000 HD
ENDBRANCH   7  14
ENDBRANCH   1   7
BRANCH   4  17
ATOM     17  C   UNL     1       3.823   2.876   4.961  0.00  0.00    +0.000 C 
BRANCH  17  18
ATOM     18  N   UNL     1       2.584   3.124   5.659  0.00  0.00    +0.000 N 
ATOM     19  C   UNL     1       2.548   3.882   6.802  0.00  0.00    +0.000 C 
ATOM     20  O   UNL     1       3.557   4.412   7.260  0.00  0.00    +0.000 OA
ATOM     21  H   UNL     1       1.797   2.524   5.430  0.00  0.00    +0.000 HD
BRANCH  19  22
ATOM     22  C   UNL     1       1.232   4.087   7.421  0.00  0.00    +0.000 A 
ATOM     23  C   UNL     1       1.028   5.182   8.251  0.00  0.00    +0.000 A 
ATOM     24  S   UNL     1      -0.566   5.305   8.845  0.00  0.00    +0.000 S 
ATOM     25  C   UNL     1      -1.030   3.873   8.055  0.00  0.00    +0.000 A 
ATOM     26  N   UNL     1      -2.297   3.390   8.172  0.00  0.00    +0.000 NA
ATOM     27  C   UNL     1      -2.502   2.278   7.548  0.00  0.00    +0.000 A 
ATOM     28  N   UNL     1      -1.559   1.610   6.813  0.00  0.00    +0.000 N 
ATOM     29  C   UNL     1      -0.277   2.075   6.644  0.00  0.00    +0.000 A 
ATOM     30  O   UNL     1       0.535   1.471   5.946  0.00  0.00    +0.000 OA
ATOM     31  C   UNL     1       0.012   3.316   7.334  0.00  0.00    +0.000 A 
ATOM     32  H   UNL     1      -1.786   0.747   6.339  0.00  0.00    +0.000 HD
ENDBRANCH  19  22
ENDBRANCH  17  18
ENDBRANCH   4  17
TORSDOF 6
