REMARK  Name = 
REMARK  7 active torsions:
REMARK  status: ('A' for Active; 'I' for Inactive)
REMARK    1  A    between atoms: C_1  and  C_2
REMARK    2  A    between atoms: C_2  and  C_3
REMARK    3  A    between atoms: C_2  and  C_4
REMARK    4  A    between atoms: C_2  and  C_5
REMARK    5  A    between atoms: N_7  and  C_8
REMARK    6  A    between atoms: C_8  and  C_9
REMARK    7  A    between atoms: C_18  and  C_19
REMARK                            x       y       z     vdW  Elec       q    Type
REMARK                         _______ _______ _______ _____ _____    ______ ____
ROOT
ATOM      1  C   UNL     1       2.993  -1.145  -0.833  0.00  0.00    +0.000 A 
ATOM      2  N   UNL     1       2.621  -2.393  -0.517  0.00  0.00    +0.000 NA
ATOM      3  N   UNL     1       3.175  -3.173  -1.463  0.00  0.00    +0.000 N 
ATOM      4  C   UNL     1       3.845  -2.469  -2.434  0.00  0.00    +0.000 A 
ATOM      5  C   UNL     1       4.474  -2.867  -3.622  0.00  0.00    +0.000 A 
ATOM      6  C   UNL     1       5.132  -1.884  -4.368  0.00  0.00    +0.000 A 
ATOM      7  C   UNL     1       5.164  -0.551  -3.947  0.00  0.00    +0.000 A 
ATOM      8  C   UNL     1       4.499  -0.167  -2.770  0.00  0.00    +0.000 A 
ATOM      9  C   UNL     1       3.812  -1.139  -2.010  0.00  0.00    +0.000 A 
ENDROOT
BRANCH   7  10
ATOM     10  C   UNL     1       5.951   0.416  -4.762  0.00  0.00    +0.000 C 
ATOM     11  N   UNL     1       5.640   1.744  -4.656  0.00  0.00    +0.000 N 
ATOM     12  O   UNL     1       6.832   0.043  -5.526  0.00  0.00    +0.000 OA
ATOM     13  H   UNL     1       4.791   2.080  -4.228  0.00  0.00    +0.000 HD
ATOM     14  H   UNL     1       6.130   2.368  -5.285  0.00  0.00    +0.000 HD
ENDBRANCH   7  10
BRANCH   1  16
ATOM     15  C   UNL     1       1.558  -0.429   1.139  0.00  0.00    +0.000 C 
ATOM     16  C   UNL     1       2.500   0.033   0.001  0.00  0.00    +0.000 C 
ATOM     17  C   UNL     1       1.700   1.017  -0.879  0.00  0.00    +0.000 C 
ATOM     18  C   UNL     1       3.682   0.777   0.649  0.00  0.00    +0.000 C 
ENDBRANCH   1  16
BRANCH   3  19
ATOM     19  C   UNL     1       2.919  -4.608  -1.427  0.00  0.00    +0.000 C 
BRANCH  19  20
ATOM     20  C   UNL     1       3.928  -5.384  -0.623  0.00  0.00    +0.000 A 
ATOM     21  C   UNL     1       4.662  -6.433  -1.191  0.00  0.00    +0.000 A 
ATOM     22  C   UNL     1       5.484  -7.223  -0.394  0.00  0.00    +0.000 A 
ATOM     23  C   UNL     1       5.552  -6.938   0.957  0.00  0.00    +0.000 A 
ATOM     24  N   UNL     1       4.887  -5.919   1.540  0.00  0.00    +0.000 NA
ATOM     25  C   UNL     1       4.095  -5.165   0.742  0.00  0.00    +0.000 A 
ENDBRANCH  19  20
ENDBRANCH   3  19
TORSDOF 4
