REMARK  Name = 
REMARK  7 active torsions:
REMARK  status: ('A' for Active; 'I' for Inactive)
REMARK    1  A    between atoms: C_1  and  C_2
REMARK    2  A    between atoms: C_2  and  C_3
REMARK    3  A    between atoms: C_7  and  C_8
REMARK    4  A    between atoms: C_8  and  C_9
REMARK    5  A    between atoms: C_9  and  N_10
REMARK    6  A    between atoms: N_10  and  C_11
REMARK    7  A    between atoms: C_14  and  C_15
REMARK                            x       y       z     vdW  Elec       q    Type
REMARK                         _______ _______ _______ _____ _____    ______ ____
ROOT
ATOM      1  C   UNL     1       3.283   3.671  -4.058  0.00  0.00    +0.000 C 
ENDROOT
BRANCH   1   2
ATOM      2  N   UNL     1       3.712   4.990  -4.547  0.00  0.00    +0.000 N 
ATOM      3  H   UNL     1       4.348   4.922  -5.340  0.00  0.00    +0.000 HD
BRANCH   2   4
ATOM      4  C   UNL     1       2.672   5.906  -4.803  0.00  0.00    +0.000 A 
ATOM      5  C   UNL     1       2.828   6.886  -5.789  0.00  0.00    +0.000 A 
ATOM      6  C   UNL     1       1.808   7.805  -6.043  0.00  0.00    +0.000 A 
ATOM      7  C   UNL     1       0.656   7.748  -5.269  0.00  0.00    +0.000 A 
ATOM      8  N   UNL     1       0.477   6.862  -4.256  0.00  0.00    +0.000 NA
ATOM      9  C   UNL     1       1.495   5.990  -4.045  0.00  0.00    +0.000 A 
BRANCH   7  10
ATOM     10  C   UNL     1      -0.475   8.689  -5.539  0.00  0.00    +0.000 C 
ATOM     11  N   UNL     1      -1.575   8.534  -4.728  0.00  0.00    +0.000 N 
ATOM     12  O   UNL     1      -0.442   9.535  -6.422  0.00  0.00    +0.000 OA
ATOM     13  H   UNL     1      -1.566   7.821  -4.008  0.00  0.00    +0.000 HD
ATOM     14  H   UNL     1      -2.379   9.128  -4.859  0.00  0.00    +0.000 HD
ENDBRANCH   7  10
ENDBRANCH   2   4
ENDBRANCH   1   2
BRANCH   1  15
ATOM     15  C   UNL     1       4.464   2.709  -3.865  0.00  0.00    +0.000 C 
BRANCH  15  20
ATOM     16  C   UNL     1       3.058   0.109  -1.435  0.00  0.00    +0.000 A 
ATOM     17  C   UNL     1       2.712  -0.911  -2.343  0.00  0.00    +0.000 A 
ATOM     18  C   UNL     1       2.987  -0.797  -3.706  0.00  0.00    +0.000 A 
ATOM     19  C   UNL     1       3.594   0.353  -4.203  0.00  0.00    +0.000 A 
ATOM     20  C   UNL     1       3.955   1.385  -3.332  0.00  0.00    +0.000 A 
ATOM     21  C   UNL     1       3.717   1.236  -1.953  0.00  0.00    +0.000 A 
BRANCH  16  23
ATOM     22  C   UNL     1       1.073   0.001   0.070  0.00  0.00    +0.000 C 
ATOM     23  C   UNL     1       2.613   0.003   0.034  0.00  0.00    +0.000 C 
ATOM     24  C   UNL     1       3.207  -1.238   0.710  0.00  0.00    +0.000 C 
ATOM     25  C   UNL     1       4.442  -0.734   1.445  0.00  0.00    +0.000 C 
ATOM     26  O   UNL     1       4.444   0.695   1.376  0.00  0.00    +0.000 OA
ATOM     27  C   UNL     1       3.128   1.097   0.982  0.00  0.00    +0.000 C 
ENDBRANCH  16  23
ENDBRANCH  15  20
ENDBRANCH   1  15
TORSDOF 6
