REMARK  Name = 
REMARK  6 active torsions:
REMARK  status: ('A' for Active; 'I' for Inactive)
REMARK    1  A    between atoms: C_1  and  C_2
REMARK    2  A    between atoms: C_2  and  N_3
REMARK    3  A    between atoms: C_2  and  C_16
REMARK    4  A    between atoms: C_4  and  C_6
REMARK    5  A    between atoms: C_19  and  O_20
REMARK    6  A    between atoms: O_20  and  C_21
REMARK                            x       y       z     vdW  Elec       q    Type
REMARK                         _______ _______ _______ _____ _____    ______ ____
ROOT
ATOM      1  C   UNL     1       0.914   0.022  -0.061  0.00  0.00    +0.000 C 
ATOM      2  C   UNL     1       2.445   0.006  -0.030  0.00  0.00    +0.000 C 
ENDROOT
BRANCH   2   3
ATOM      3  C   UNL     1       2.905  -1.092   0.916  0.00  0.00    +0.000 A 
ATOM      4  C   UNL     1       3.126  -2.371   0.384  0.00  0.00    +0.000 A 
ATOM      5  C   UNL     1       3.432  -3.450   1.212  0.00  0.00    +0.000 A 
ATOM      6  C   UNL     1       3.578  -3.264   2.587  0.00  0.00    +0.000 A 
ATOM      7  C   UNL     1       3.355  -1.999   3.132  0.00  0.00    +0.000 A 
ATOM      8  C   UNL     1       3.012  -0.923   2.306  0.00  0.00    +0.000 A 
BRANCH   6   9
ATOM      9  O   UNL     1       3.846  -4.278   3.479  0.00  0.00    +0.000 OA
BRANCH   9  10
ATOM     10  C   UNL     1       4.656  -5.329   3.066  0.00  0.00    +0.000 A 
ATOM     11  C   UNL     1       4.458  -6.550   3.691  0.00  0.00    +0.000 A 
ATOM     12  C   UNL     1       5.244  -7.629   3.292  0.00  0.00    +0.000 A 
ATOM     13  C   UNL     1       6.194  -7.447   2.292  0.00  0.00    +0.000 A 
ATOM     14  C   UNL     1       6.337  -6.185   1.744  0.00  0.00    +0.000 A 
ATOM     15  N   UNL     1       5.602  -5.119   2.122  0.00  0.00    +0.000 NA
ENDBRANCH   9  10
ENDBRANCH   6   9
ENDBRANCH   2   3
BRANCH   2  16
ATOM     16  N   UNL     1       2.977   1.314   0.302  0.00  0.00    +0.000 N 
ATOM     17  C   UNL     1       3.058   2.320  -0.626  0.00  0.00    +0.000 C 
ATOM     18  O   UNL     1       2.741   2.157  -1.802  0.00  0.00    +0.000 OA
ATOM     19  H   UNL     1       3.361   1.457   1.229  0.00  0.00    +0.000 HD
BRANCH  17  20
ATOM     20  C   UNL     1       3.485   3.639  -0.135  0.00  0.00    +0.000 A 
ATOM     21  C   UNL     1       3.188   4.775  -0.874  0.00  0.00    +0.000 A 
ATOM     22  S   UNL     1       3.723   6.225  -0.150  0.00  0.00    +0.000 S 
ATOM     23  C   UNL     1       4.416   5.374   1.150  0.00  0.00    +0.000 A 
ATOM     24  N   UNL     1       5.084   6.011   2.144  0.00  0.00    +0.000 NA
ATOM     25  N   UNL     1       5.616   5.334   3.060  0.00  0.00    +0.000 NA
ATOM     26  N   UNL     1       5.482   3.975   3.049  0.00  0.00    +0.000 N 
ATOM     27  C   UNL     1       4.781   3.239   2.124  0.00  0.00    +0.000 A 
ATOM     28  O   UNL     1       4.642   2.027   2.232  0.00  0.00    +0.000 OA
ATOM     29  C   UNL     1       4.213   4.018   1.048  0.00  0.00    +0.000 A 
ATOM     30  H   UNL     1       5.917   3.481   3.816  0.00  0.00    +0.000 HD
ENDBRANCH  17  20
ENDBRANCH   2  16
TORSDOF 5
