REMARK  Name = 
REMARK  8 active torsions:
REMARK  status: ('A' for Active; 'I' for Inactive)
REMARK    1  A    between atoms: C_2  and  C_20
REMARK    2  A    between atoms: N_3  and  C_4
REMARK    3  A    between atoms: C_4  and  C_5
REMARK    4  A    between atoms: C_8  and  C_9
REMARK    5  A    between atoms: C_9  and  O_10
REMARK    6  A    between atoms: C_9  and  C_11
REMARK    7  A    between atoms: C_11  and  C_12
REMARK    8  A    between atoms: C_12  and  N_13
REMARK                            x       y       z     vdW  Elec       q    Type
REMARK                         _______ _______ _______ _____ _____    ______ ____
ROOT
ATOM      1  C   UNL     1       2.154  -1.449   1.914  0.00  0.00    +0.000 C 
ENDROOT
BRANCH   1   2
ATOM      2  C   UNL     1       3.063  -2.120   2.908  0.00  0.00    +0.000 A 
ATOM      3  C   UNL     1       3.924  -1.371   3.720  0.00  0.00    +0.000 A 
ATOM      4  C   UNL     1       4.740  -2.005   4.663  0.00  0.00    +0.000 A 
ATOM      5  C   UNL     1       4.728  -3.400   4.804  0.00  0.00    +0.000 A 
ATOM      6  C   UNL     1       3.857  -4.140   3.991  0.00  0.00    +0.000 A 
ATOM      7  C   UNL     1       3.054  -3.511   3.037  0.00  0.00    +0.000 A 
BRANCH   5   8
ATOM      8  C   UNL     1       5.630  -4.053   5.836  0.00  0.00    +0.000 C 
BRANCH   8   9
ATOM      9  O   UNL     1       4.928  -4.084   7.082  0.00  0.00    +0.000 OA
ATOM     10  H   UNL     1       4.008  -4.335   6.888  0.00  0.00    +0.000 HD
ENDBRANCH   8   9
BRANCH   8  11
ATOM     11  C   UNL     1       6.092  -5.487   5.527  0.00  0.00    +0.000 C 
BRANCH  11  12
ATOM     12  C   UNL     1       6.850  -5.601   4.194  0.00  0.00    +0.000 C 
BRANCH  12  13
ATOM     13  N   UNL     1       7.274  -6.974   3.870  0.00  0.00    +0.000 NA
ATOM     14  C   UNL     1       8.037  -7.001   2.607  0.00  0.00    +0.000 C 
ATOM     15  C   UNL     1       7.008  -7.249   1.521  0.00  0.00    +0.000 C 
ATOM     16  C   UNL     1       6.040  -8.206   2.180  0.00  0.00    +0.000 C 
ATOM     17  C   UNL     1       6.154  -7.913   3.672  0.00  0.00    +0.000 C 
ENDBRANCH  12  13
ENDBRANCH  11  12
ENDBRANCH   8  11
ENDBRANCH   5   8
ENDBRANCH   1   2
BRANCH   1  20
ATOM     18  O   UNL     1       0.850  -0.578  -0.345  0.00  0.00    +0.000 OA
ATOM     19  C   UNL     1       2.062  -0.766  -0.420  0.00  0.00    +0.000 C 
ATOM     20  N   UNL     1       2.781  -1.283   0.628  0.00  0.00    +0.000 N 
ATOM     21  H   UNL     1       3.795  -1.247   0.608  0.00  0.00    +0.000 HD
BRANCH  19  22
ATOM     22  C   UNL     1       2.801  -0.463  -1.651  0.00  0.00    +0.000 A 
ATOM     23  C   UNL     1       2.123  -0.402  -2.860  0.00  0.00    +0.000 A 
ATOM     24  S   UNL     1       3.118  -0.007  -4.186  0.00  0.00    +0.000 S 
ATOM     25  C   UNL     1       4.484   0.142  -3.183  0.00  0.00    +0.000 A 
ATOM     26  N   UNL     1       5.687   0.520  -3.693  0.00  0.00    +0.000 NA
ATOM     27  C   UNL     1       6.625   0.636  -2.814  0.00  0.00    +0.000 A 
ATOM     28  N   UNL     1       6.475   0.389  -1.474  0.00  0.00    +0.000 N 
ATOM     29  C   UNL     1       5.292  -0.043  -0.921  0.00  0.00    +0.000 A 
ATOM     30  O   UNL     1       5.211  -0.328   0.268  0.00  0.00    +0.000 OA
ATOM     31  C   UNL     1       4.192  -0.147  -1.860  0.00  0.00    +0.000 A 
ATOM     32  H   UNL     1       7.256   0.476  -0.842  0.00  0.00    +0.000 HD
ENDBRANCH  19  22
ENDBRANCH   1  20
TORSDOF 8
