REMARK  Name = 
REMARK  10 active torsions:
REMARK  status: ('A' for Active; 'I' for Inactive)
REMARK    1  A    between atoms: C_1  and  C_2
REMARK    2  A    between atoms: C_2  and  O_3
REMARK    3  A    between atoms: C_5  and  O_6
REMARK    4  A    between atoms: O_6  and  C_7
REMARK    5  A    between atoms: C_9  and  C_10
REMARK    6  A    between atoms: C_13  and  C_14
REMARK    7  A    between atoms: C_14  and  C_17
REMARK    8  A    between atoms: C_17  and  N_18
REMARK    9  A    between atoms: N_18  and  C_19
REMARK   10  A    between atoms: C_24  and  C_25
REMARK                            x       y       z     vdW  Elec       q    Type
REMARK                         _______ _______ _______ _____ _____    ______ ____
ROOT
ATOM      1  C   UNL     1       6.399  -0.899   0.644  0.00  0.00    +0.000 A 
ATOM      2  C   UNL     1       6.139  -2.261   0.536  0.00  0.00    +0.000 A 
ATOM      3  C   UNL     1       7.164  -3.183   0.770  0.00  0.00    +0.000 A 
ATOM      4  C   UNL     1       8.451  -2.735   1.107  0.00  0.00    +0.000 A 
ATOM      5  C   UNL     1       8.732  -1.361   1.200  0.00  0.00    +0.000 A 
ATOM      6  C   UNL     1       7.685  -0.457   0.952  0.00  0.00    +0.000 A 
ENDROOT
BRANCH   5   7
ATOM      7  C   UNL     1      10.142  -0.911   1.575  0.00  0.00    +0.000 C 
ATOM      8  F   UNL     1      10.494  -1.411   2.797  0.00  0.00    +0.000 F 
ATOM      9  F   UNL     1      11.064  -1.418   0.698  0.00  0.00    +0.000 F 
BRANCH   7  10
ATOM     10  C   UNL     1      10.320   0.628   1.603  0.00  0.00    +0.000 C 
BRANCH  10  11
ATOM     11  N   UNL     1      11.679   1.103   1.936  0.00  0.00    +0.000 N 
ATOM     12  H   UNL     1      12.391   0.660   1.356  0.00  0.00    +0.000 HD
BRANCH  11  13
ATOM     13  C   UNL     1      11.787   2.509   1.901  0.00  0.00    +0.000 A 
ATOM     14  N   UNL     1      10.670   3.229   1.625  0.00  0.00    +0.000 NA
ATOM     15  C   UNL     1      10.744   4.578   1.622  0.00  0.00    +0.000 A 
ATOM     16  C   UNL     1      11.898   5.279   1.901  0.00  0.00    +0.000 A 
ATOM     17  C   UNL     1      13.042   4.549   2.199  0.00  0.00    +0.000 A 
ATOM     18  C   UNL     1      12.995   3.148   2.201  0.00  0.00    +0.000 A 
BRANCH  18  19
ATOM     19  C   UNL     1      14.182   2.414   2.513  0.00  0.00    +0.000 C 
ATOM     20  N   UNL     1      15.170   1.850   2.745  0.00  0.00    +0.000 NA
ENDBRANCH  18  19
ENDBRANCH  11  13
ENDBRANCH  10  11
ENDBRANCH   7  10
ENDBRANCH   5   7
BRANCH   3  21
ATOM     21  C   UNL     1       6.897  -4.589   0.674  0.00  0.00    +0.000 C 
ATOM     22  N   UNL     1       6.684  -5.726   0.594  0.00  0.00    +0.000 NA
ENDBRANCH   3  21
BRANCH   1  23
ATOM     23  O   UNL     1       5.347  -0.041   0.429  0.00  0.00    +0.000 OA
BRANCH  23  27
ATOM     24  C   UNL     1       3.164   2.307   3.598  0.00  0.00    +0.000 C 
ATOM     25  C   UNL     1       3.753   1.374   2.553  0.00  0.00    +0.000 C 
ATOM     26  C   UNL     1       5.284   1.170   2.679  0.00  0.00    +0.000 C 
ATOM     27  C   UNL     1       5.365   1.229   1.131  0.00  0.00    +0.000 C 
ATOM     28  C   UNL     1       4.029   2.007   1.165  0.00  0.00    +0.000 C 
BRANCH  25  29
ATOM     29  O   UNL     1       2.964   0.165   2.504  0.00  0.00    +0.000 OA
ATOM     30  H   UNL     1       3.097  -0.272   3.362  0.00  0.00    +0.000 HD
ENDBRANCH  25  29
ENDBRANCH  23  27
ENDBRANCH   1  23
TORSDOF 9
