REMARK  Name = 
REMARK  9 active torsions:
REMARK  status: ('A' for Active; 'I' for Inactive)
REMARK    1  A    between atoms: C_1  and  C_2
REMARK    2  A    between atoms: C_2  and  O_3
REMARK    3  A    between atoms: O_3  and  C_4
REMARK    4  A    between atoms: C_8  and  C_9
REMARK    5  A    between atoms: C_9  and  C_10
REMARK    6  A    between atoms: C_10  and  N_11
REMARK    7  A    between atoms: N_11  and  C_12
REMARK    8  A    between atoms: C_15  and  C_16
REMARK    9  A    between atoms: C_23  and  O_24
REMARK                            x       y       z     vdW  Elec       q    Type
REMARK                         _______ _______ _______ _____ _____    ______ ____
ROOT
ATOM      1  C   UNL     1       5.425  -1.652   4.995  0.00  0.00    +0.000 C 
ENDROOT
BRANCH   1   6
ATOM      2  C   UNL     1       3.786  -0.166   1.894  0.00  0.00    +0.000 A 
ATOM      3  C   UNL     1       4.549   0.972   1.671  0.00  0.00    +0.000 A 
ATOM      4  C   UNL     1       5.650   1.232   2.500  0.00  0.00    +0.000 A 
ATOM      5  C   UNL     1       5.968   0.377   3.559  0.00  0.00    +0.000 A 
ATOM      6  C   UNL     1       5.181  -0.753   3.808  0.00  0.00    +0.000 A 
ATOM      7  C   UNL     1       4.092  -1.008   2.965  0.00  0.00    +0.000 A 
BRANCH   2   8
ATOM      8  O   UNL     1       2.696  -0.572   1.180  0.00  0.00    +0.000 OA
BRANCH   8  10
ATOM      9  C   UNL     1       1.228   0.674  -0.326  0.00  0.00    +0.000 C 
ATOM     10  C   UNL     1       2.468  -0.150  -0.176  0.00  0.00    +0.000 C 
ATOM     11  C   UNL     1       3.558  -0.087  -1.220  0.00  0.00    +0.000 C 
ATOM     12  C   UNL     1       2.674  -1.292  -1.165  0.00  0.00    +0.000 C 
BRANCH  12  13
ATOM     13  O   UNL     1       3.323  -2.483  -0.677  0.00  0.00    +0.000 OA
ATOM     14  H   UNL     1       3.821  -2.296   0.141  0.00  0.00    +0.000 HD
ENDBRANCH  12  13
ENDBRANCH   8  10
ENDBRANCH   2   8
ENDBRANCH   1   6
BRANCH   1  15
ATOM     15  C   UNL     1       4.647  -1.159   6.221  0.00  0.00    +0.000 C 
BRANCH  15  16
ATOM     16  N   UNL     1       4.720  -2.125   7.318  0.00  0.00    +0.000 N 
ATOM     17  H   UNL     1       5.599  -2.630   7.380  0.00  0.00    +0.000 HD
BRANCH  16  18
ATOM     18  C   UNL     1       4.218  -1.766   8.576  0.00  0.00    +0.000 A 
ATOM     19  C   UNL     1       3.373  -0.669   8.784  0.00  0.00    +0.000 A 
ATOM     20  C   UNL     1       2.838  -0.394  10.048  0.00  0.00    +0.000 A 
ATOM     21  C   UNL     1       3.101  -1.241  11.125  0.00  0.00    +0.000 A 
ATOM     22  C   UNL     1       3.917  -2.356  10.933  0.00  0.00    +0.000 A 
ATOM     23  C   UNL     1       4.459  -2.617   9.666  0.00  0.00    +0.000 A 
BRANCH  21  24
ATOM     24  C   UNL     1       2.491  -0.909  12.443  0.00  0.00    +0.000 C 
ATOM     25  N   UNL     1       2.283  -1.936  13.318  0.00  0.00    +0.000 N 
ATOM     26  O   UNL     1       2.146   0.233  12.719  0.00  0.00    +0.000 OA
ATOM     27  H   UNL     1       2.308  -2.903  13.034  0.00  0.00    +0.000 HD
ATOM     28  H   UNL     1       1.752  -1.706  14.148  0.00  0.00    +0.000 HD
ENDBRANCH  21  24
ENDBRANCH  16  18
ENDBRANCH  15  16
ENDBRANCH   1  15
TORSDOF 8
