REMARK  Name = 
REMARK  5 active torsions:
REMARK  status: ('A' for Active; 'I' for Inactive)
REMARK    1  A    between atoms: C_1  and  C_2
REMARK    2  A    between atoms: C_7  and  C_8
REMARK    3  A    between atoms: C_12  and  C_13
REMARK    4  A    between atoms: C_13  and  N_14
REMARK    5  A    between atoms: C_18  and  C_19
REMARK                            x       y       z     vdW  Elec       q    Type
REMARK                         _______ _______ _______ _____ _____    ______ ____
ROOT
ATOM      1  C   UNL     1       3.479  -5.578   1.995  0.00  0.00    +0.000 C 
ATOM      2  C   UNL     1       4.397  -5.967   0.821  0.00  0.00    +0.000 C 
ATOM      3  C   UNL     1       3.544  -6.995   1.461  0.00  0.00    +0.000 C 
ENDROOT
BRANCH   1   4
ATOM      4  N   UNL     1       3.976  -5.304   3.346  0.00  0.00    +0.000 N 
ATOM      5  C   UNL     1       3.373  -5.838   4.511  0.00  0.00    +0.000 A 
ATOM      6  C   UNL     1       2.739  -7.070   4.546  0.00  0.00    +0.000 A 
ATOM      7  C   UNL     1       2.234  -7.543   5.760  0.00  0.00    +0.000 A 
ATOM      8  C   UNL     1       2.403  -6.758   6.871  0.00  0.00    +0.000 A 
ATOM      9  N   UNL     1       3.033  -5.561   6.834  0.00  0.00    +0.000 NA
ATOM     10  N   UNL     1       3.507  -5.105   5.639  0.00  0.00    +0.000 NA
ATOM     11  H   UNL     1       4.058  -4.310   3.572  0.00  0.00    +0.000 HD
BRANCH   8  12
ATOM     12  C   UNL     1       1.907  -7.188   8.201  0.00  0.00    +0.000 C 
ATOM     13  N   UNL     1       2.142  -6.334   9.242  0.00  0.00    +0.000 N 
ATOM     14  O   UNL     1       1.313  -8.251   8.362  0.00  0.00    +0.000 OA
ATOM     15  H   UNL     1       2.643  -5.463   9.091  0.00  0.00    +0.000 HD
ATOM     16  H   UNL     1       1.824  -6.582  10.166  0.00  0.00    +0.000 HD
ENDBRANCH   8  12
ENDBRANCH   1   4
BRANCH   1  21
ATOM     17  C   UNL     1       2.110  -2.423   0.335  0.00  0.00    +0.000 A 
ATOM     18  C   UNL     1       0.735  -2.651   0.441  0.00  0.00    +0.000 A 
ATOM     19  C   UNL     1       0.238  -3.725   1.181  0.00  0.00    +0.000 A 
ATOM     20  C   UNL     1       1.109  -4.651   1.749  0.00  0.00    +0.000 A 
ATOM     21  C   UNL     1       2.483  -4.526   1.555  0.00  0.00    +0.000 A 
ATOM     22  C   UNL     1       2.962  -3.367   0.906  0.00  0.00    +0.000 A 
BRANCH  17  29
ATOM     23  C   UNL     1       1.064   0.519   0.372  0.00  0.00    +0.000 C 
ATOM     24  C   UNL     1       2.514   0.146   0.054  0.00  0.00    +0.000 C 
ATOM     25  C   UNL     1       3.089   1.144  -0.969  0.00  0.00    +0.000 C 
ATOM     26  C   UNL     1       2.559   0.866  -2.371  0.00  0.00    +0.000 C 
ATOM     27  O   UNL     1       2.924  -0.450  -2.777  0.00  0.00    +0.000 OA
ATOM     28  C   UNL     1       2.319  -1.448  -1.957  0.00  0.00    +0.000 C 
ATOM     29  C   UNL     1       2.718  -1.297  -0.481  0.00  0.00    +0.000 C 
ENDBRANCH  17  29
ENDBRANCH   1  21
TORSDOF 4
