REMARK  Name = 
REMARK  7 active torsions:
REMARK  status: ('A' for Active; 'I' for Inactive)
REMARK    1  A    between atoms: C_1  and  N_2
REMARK    2  A    between atoms: C_4  and  C_5
REMARK    3  A    between atoms: N_7  and  C_8
REMARK    4  A    between atoms: C_8  and  C_9
REMARK    5  A    between atoms: C_12  and  C_13
REMARK    6  A    between atoms: C_13  and  N_14
REMARK    7  A    between atoms: C_15  and  C_17
REMARK                            x       y       z     vdW  Elec       q    Type
REMARK                         _______ _______ _______ _____ _____    ______ ____
ROOT
ATOM      1  C   UNL     1       3.471  -5.190  -0.092  0.00  0.00    +0.000 A 
ATOM      2  C   UNL     1       4.384  -6.112  -0.624  0.00  0.00    +0.000 A 
ATOM      3  C   UNL     1       4.139  -7.493  -0.558  0.00  0.00    +0.000 A 
ATOM      4  C   UNL     1       2.959  -7.986   0.017  0.00  0.00    +0.000 A 
ATOM      5  C   UNL     1       2.060  -7.065   0.573  0.00  0.00    +0.000 A 
ATOM      6  C   UNL     1       2.304  -5.685   0.507  0.00  0.00    +0.000 A 
ENDROOT
BRANCH   1   7
ATOM      7  C   UNL     1       3.765  -3.710  -0.136  0.00  0.00    +0.000 C 
BRANCH   7  10
ATOM      8  C   UNL     1       3.521  -1.723  -1.552  0.00  0.00    +0.000 C 
ATOM      9  O   UNL     1       4.074  -1.012  -0.720  0.00  0.00    +0.000 OA
ATOM     10  N   UNL     1       3.314  -3.075  -1.352  0.00  0.00    +0.000 N 
ATOM     11  H   UNL     1       2.921  -3.641  -2.087  0.00  0.00    +0.000 HD
BRANCH   8  15
ATOM     12  C   UNL     1       1.604  -1.069  -6.132  0.00  0.00    +0.000 C 
ATOM     13  N   UNL     1       2.194  -0.876  -4.829  0.00  0.00    +0.000 N 
ATOM     14  C   UNL     1       2.400  -1.825  -3.865  0.00  0.00    +0.000 A 
ATOM     15  C   UNL     1       3.047  -1.190  -2.820  0.00  0.00    +0.000 A 
ATOM     16  C   UNL     1       3.155   0.152  -3.265  0.00  0.00    +0.000 A 
ATOM     17  N   UNL     1       2.636   0.343  -4.481  0.00  0.00    +0.000 NA
ENDBRANCH   8  15
ENDBRANCH   7  10
ENDBRANCH   1   7
BRANCH   4  18
ATOM     18  C   UNL     1       2.641  -9.464   0.026  0.00  0.00    +0.000 C 
BRANCH  18  19
ATOM     19  N   UNL     1       3.101 -10.133   1.213  0.00  0.00    +0.000 N 
ATOM     20  C   UNL     1       2.935 -11.485   1.402  0.00  0.00    +0.000 C 
ATOM     21  O   UNL     1       2.334 -12.189   0.600  0.00  0.00    +0.000 OA
ATOM     22  H   UNL     1       3.565  -9.570   1.918  0.00  0.00    +0.000 HD
BRANCH  20  23
ATOM     23  C   UNL     1       3.526 -12.041   2.628  0.00  0.00    +0.000 A 
ATOM     24  C   UNL     1       3.423 -13.381   2.998  0.00  0.00    +0.000 A 
ATOM     25  N   UNL     1       4.078 -13.573   4.191  0.00  0.00    +0.000 N 
ATOM     26  C   UNL     1       4.595 -12.385   4.611  0.00  0.00    +0.000 A 
ATOM     27  N   UNL     1       5.282 -12.235   5.767  0.00  0.00    +0.000 NA
ATOM     28  C   UNL     1       5.654 -11.010   5.978  0.00  0.00    +0.000 A 
ATOM     29  N   UNL     1       5.413  -9.951   5.129  0.00  0.00    +0.000 N 
ATOM     30  C   UNL     1       4.752 -10.084   3.928  0.00  0.00    +0.000 A 
ATOM     31  O   UNL     1       4.582  -9.135   3.171  0.00  0.00    +0.000 OA
ATOM     32  C   UNL     1       4.284 -11.427   3.670  0.00  0.00    +0.000 A 
ATOM     33  H   UNL     1       4.163 -14.448   4.697  0.00  0.00    +0.000 HD
ATOM     34  H   UNL     1       5.734  -9.022   5.353  0.00  0.00    +0.000 HD
ENDBRANCH  20  23
ENDBRANCH  18  19
ENDBRANCH   4  18
TORSDOF 6
