REMARK  Name = 
REMARK  8 active torsions:
REMARK  status: ('A' for Active; 'I' for Inactive)
REMARK    1  A    between atoms: C_1  and  O_2
REMARK    2  A    between atoms: O_2  and  C_3
REMARK    3  A    between atoms: C_10  and  C_11
REMARK    4  A    between atoms: N_13  and  C_14
REMARK    5  A    between atoms: C_14  and  C_15
REMARK    6  A    between atoms: C_18  and  C_19
REMARK    7  A    between atoms: C_20  and  C_21
REMARK    8  A    between atoms: C_21  and  C_22
REMARK                            x       y       z     vdW  Elec       q    Type
REMARK                         _______ _______ _______ _____ _____    ______ ____
ROOT
ATOM      1  C   UNL     1       2.834   1.944  -2.709  0.00  0.00    +0.000 C 
ENDROOT
BRANCH   1   2
ATOM      2  C   UNL     1       1.695   1.009  -3.028  0.00  0.00    +0.000 A 
ATOM      3  C   UNL     1       1.914  -0.371  -3.107  0.00  0.00    +0.000 A 
ATOM      4  C   UNL     1       0.866  -1.241  -3.431  0.00  0.00    +0.000 A 
ATOM      5  C   UNL     1      -0.424  -0.756  -3.682  0.00  0.00    +0.000 A 
ATOM      6  C   UNL     1      -0.632   0.628  -3.639  0.00  0.00    +0.000 A 
ATOM      7  C   UNL     1       0.416   1.502  -3.315  0.00  0.00    +0.000 A 
BRANCH   5   8
ATOM      8  C   UNL     1      -1.526  -1.651  -4.078  0.00  0.00    +0.000 C 
ATOM      9  C   UNL     1      -1.654  -2.924  -3.662  0.00  0.00    +0.000 C 
BRANCH   9  10
ATOM     10  C   UNL     1      -2.710  -3.873  -4.156  0.00  0.00    +0.000 C 
BRANCH  10  11
ATOM     11  C   UNL     1      -3.556  -4.473  -3.066  0.00  0.00    +0.000 A 
ATOM     12  C   UNL     1      -4.429  -3.696  -2.300  0.00  0.00    +0.000 A 
ATOM     13  C   UNL     1      -5.237  -4.303  -1.342  0.00  0.00    +0.000 A 
ATOM     14  C   UNL     1      -5.144  -5.675  -1.177  0.00  0.00    +0.000 A 
ATOM     15  N   UNL     1      -4.309  -6.460  -1.889  0.00  0.00    +0.000 NA
ATOM     16  C   UNL     1      -3.537  -5.843  -2.813  0.00  0.00    +0.000 A 
ENDBRANCH  10  11
ENDBRANCH   9  10
ENDBRANCH   5   8
ENDBRANCH   1   2
BRANCH   1  19
ATOM     17  C   UNL     1       4.643   3.120  -3.900  0.00  0.00    +0.000 C 
ATOM     18  O   UNL     1       5.117   3.538  -2.846  0.00  0.00    +0.000 OA
ATOM     19  N   UNL     1       3.523   2.337  -3.913  0.00  0.00    +0.000 N 
ATOM     20  H   UNL     1       3.121   2.046  -4.793  0.00  0.00    +0.000 HD
BRANCH  17  28
ATOM     21  C   UNL     1       3.954   2.182  -7.143  0.00  0.00    +0.000 A 
ATOM     22  N   UNL     1       3.914   1.979  -8.475  0.00  0.00    +0.000 NA
ATOM     23  C   UNL     1       4.837   2.580  -9.230  0.00  0.00    +0.000 A 
ATOM     24  N   UNL     1       5.817   3.378  -8.813  0.00  0.00    +0.000 NA
ATOM     25  C   UNL     1       5.817   3.560  -7.482  0.00  0.00    +0.000 A 
ATOM     26  S   UNL     1       6.999   4.551  -6.773  0.00  0.00    +0.000 S 
ATOM     27  C   UNL     1       6.369   4.276  -5.219  0.00  0.00    +0.000 A 
ATOM     28  C   UNL     1       5.259   3.439  -5.201  0.00  0.00    +0.000 A 
ATOM     29  C   UNL     1       4.928   3.013  -6.560  0.00  0.00    +0.000 A 
BRANCH  21  31
ATOM     30  C   UNL     1       2.403   0.437  -6.974  0.00  0.00    +0.000 C 
ATOM     31  O   UNL     1       2.977   1.593  -6.368  0.00  0.00    +0.000 OA
ENDBRANCH  21  31
ENDBRANCH  17  28
ENDBRANCH   1  19
TORSDOF 7
