REMARK  Name = 
REMARK  6 active torsions:
REMARK  status: ('A' for Active; 'I' for Inactive)
REMARK    1  A    between atoms: C_2  and  C_4
REMARK    2  A    between atoms: C_7  and  N_8
REMARK    3  A    between atoms: N_8  and  C_9
REMARK    4  A    between atoms: C_9  and  C_10
REMARK    5  A    between atoms: C_10  and  C_13
REMARK    6  A    between atoms: C_17  and  C_18
REMARK                            x       y       z     vdW  Elec       q    Type
REMARK                         _______ _______ _______ _____ _____    ______ ____
ROOT
ATOM      1  C   UNL     1       5.603   2.165   7.053  0.00  0.00    +0.000 C 
ATOM      2  F   UNL     1       6.908   1.923   6.710  0.00  0.00    +0.000 F 
ATOM      3  F   UNL     1       5.475   3.526   7.010  0.00  0.00    +0.000 F 
ENDROOT
BRANCH   1   4
ATOM      4  C   UNL     1       5.271   1.613   8.425  0.00  0.00    +0.000 A 
ATOM      5  C   UNL     1       4.375   2.284   9.265  0.00  0.00    +0.000 A 
ATOM      6  C   UNL     1       4.068   1.764  10.519  0.00  0.00    +0.000 A 
ATOM      7  C   UNL     1       4.644   0.562  10.939  0.00  0.00    +0.000 A 
ATOM      8  C   UNL     1       5.531  -0.155  10.117  0.00  0.00    +0.000 A 
ATOM      9  C   UNL     1       5.842   0.405   8.863  0.00  0.00    +0.000 A 
BRANCH   8  10
ATOM     10  C   UNL     1       6.082  -1.467  10.527  0.00  0.00    +0.000 A 
ATOM     11  C   UNL     1       5.312  -2.382  11.260  0.00  0.00    +0.000 A 
ATOM     12  C   UNL     1       5.844  -3.623  11.582  0.00  0.00    +0.000 A 
ATOM     13  N   UNL     1       7.079  -4.024  11.228  0.00  0.00    +0.000 NA
ATOM     14  C   UNL     1       7.812  -3.137  10.530  0.00  0.00    +0.000 A 
ATOM     15  F   UNL     1       9.041  -3.515  10.150  0.00  0.00    +0.000 F 
ATOM     16  C   UNL     1       7.374  -1.873  10.169  0.00  0.00    +0.000 A 
ENDBRANCH   8  10
ENDBRANCH   1   4
BRANCH   1  17
ATOM     17  C   UNL     1       4.704   1.541   5.952  0.00  0.00    +0.000 C 
BRANCH  17  18
ATOM     18  N   UNL     1       4.985   2.128   4.624  0.00  0.00    +0.000 N 
ATOM     19  H   UNL     1       5.978   2.113   4.399  0.00  0.00    +0.000 HD
BRANCH  18  23
ATOM     20  C   UNL     1       2.685   0.905   1.453  0.00  0.00    +0.000 A 
ATOM     21  C   UNL     1       2.521   0.336   2.705  0.00  0.00    +0.000 A 
ATOM     22  N   UNL     1       3.276   0.694   3.781  0.00  0.00    +0.000 NA
ATOM     23  C   UNL     1       4.214   1.641   3.566  0.00  0.00    +0.000 A 
ATOM     24  C   UNL     1       4.367   2.201   2.288  0.00  0.00    +0.000 A 
ATOM     25  N   UNL     1       3.627   1.852   1.203  0.00  0.00    +0.000 NA
BRANCH  20  27
ATOM     26  N   UNL     1       2.055   1.097  -0.875  0.00  0.00    +0.000 N 
ATOM     27  C   UNL     1       1.799   0.500   0.329  0.00  0.00    +0.000 C 
ATOM     28  O   UNL     1       0.894  -0.315   0.467  0.00  0.00    +0.000 OA
ATOM     29  H   UNL     1       1.482   0.874  -1.677  0.00  0.00    +0.000 HD
ATOM     30  H   UNL     1       2.812   1.767  -0.958  0.00  0.00    +0.000 HD
ENDBRANCH  20  27
ENDBRANCH  18  23
ENDBRANCH  17  18
ENDBRANCH   1  17
TORSDOF 6
