REMARK  Name = 
REMARK  10 active torsions:
REMARK  status: ('A' for Active; 'I' for Inactive)
REMARK    1  A    between atoms: C_2  and  C_3
REMARK    2  A    between atoms: C_3  and  N_4
REMARK    3  A    between atoms: C_5  and  C_7
REMARK    4  A    between atoms: N_17  and  CA_18
REMARK    5  A    between atoms: CA_18  and  C_19
REMARK    6  A    between atoms: CA_18  and  C_21
REMARK    7  A    between atoms: C_19  and  O_20
REMARK    8  A    between atoms: C_24  and  C_25
REMARK    9  A    between atoms: C_25  and  N_26
REMARK   10  A    between atoms: C_27  and  C_29
REMARK                            x       y       z     vdW  Elec       q    Type
REMARK                         _______ _______ _______ _____ _____    ______ ____
ROOT
ATOM      1  CA  UNL     1       4.501   1.086  -0.460  0.00  0.00    +0.000 C 
ENDROOT
BRANCH   1   2
ATOM      2  C   UNL     1       4.907   2.549  -0.599  0.00  0.00    +0.000 A 
ATOM      3  C   UNL     1       5.658   3.176   0.407  0.00  0.00    +0.000 A 
ATOM      4  C   UNL     1       5.997   4.533   0.311  0.00  0.00    +0.000 A 
ATOM      5  C   UNL     1       5.583   5.298  -0.786  0.00  0.00    +0.000 A 
ATOM      6  C   UNL     1       4.872   4.666  -1.812  0.00  0.00    +0.000 A 
ATOM      7  C   UNL     1       4.534   3.314  -1.716  0.00  0.00    +0.000 A 
BRANCH   5   8
ATOM      8  C   UNL     1       5.863   6.775  -0.858  0.00  0.00    +0.000 C 
BRANCH   8   9
ATOM      9  N   UNL     1       7.102   7.083  -1.514  0.00  0.00    +0.000 N 
ATOM     10  C   UNL     1       7.466   8.387  -1.771  0.00  0.00    +0.000 C 
ATOM     11  O   UNL     1       6.768   9.353  -1.473  0.00  0.00    +0.000 OA
ATOM     12  H   UNL     1       7.775   6.362  -1.761  0.00  0.00    +0.000 HD
BRANCH  10  13
ATOM     13  C   UNL     1       8.770   8.525  -2.439  0.00  0.00    +0.000 A 
ATOM     14  C   UNL     1       9.418   9.737  -2.797  0.00  0.00    +0.000 A 
ATOM     15  C   UNL     1      10.590   9.360  -3.403  0.00  0.00    +0.000 A 
ATOM     16  N   UNL     1      10.595   7.997  -3.389  0.00  0.00    +0.000 N 
ATOM     17  N   UNL     1       9.514   7.457  -2.799  0.00  0.00    +0.000 NA
ATOM     18  H   UNL     1      11.303   7.371  -3.761  0.00  0.00    +0.000 HD
ENDBRANCH  10  13
ENDBRANCH   8   9
ENDBRANCH   5   8
ENDBRANCH   1   2
BRANCH   1  21
ATOM     19  O   UNL     1       1.028   0.089  -0.055  0.00  0.00    +0.000 OA
ATOM     20  C   UNL     1       2.238   0.070   0.184  0.00  0.00    +0.000 C 
ATOM     21  N   UNL     1       3.038   0.978  -0.444  0.00  0.00    +0.000 N 
ATOM     22  H   UNL     1       2.517   1.633  -1.013  0.00  0.00    +0.000 HD
BRANCH  20  23
ATOM     23  C   UNL     1       2.841  -0.986   1.103  0.00  0.00    +0.000 C 
BRANCH  23  24
ATOM     24  N   UNL     1       3.243  -2.153   0.349  0.00  0.00    +0.000 N 
ATOM     25  C   UNL     1       4.497  -2.694   0.464  0.00  0.00    +0.000 C 
ATOM     26  O   UNL     1       5.354  -2.177   1.176  0.00  0.00    +0.000 OA
ATOM     27  H   UNL     1       2.582  -2.523  -0.331  0.00  0.00    +0.000 HD
BRANCH  25  28
ATOM     28  C   UNL     1       4.777  -3.924  -0.286  0.00  0.00    +0.000 A 
ATOM     29  C   UNL     1       5.830  -4.736   0.115  0.00  0.00    +0.000 A 
ATOM     30  S   UNL     1       6.015  -6.137  -0.837  0.00  0.00    +0.000 S 
ATOM     31  C   UNL     1       4.726  -5.684  -1.850  0.00  0.00    +0.000 A 
ATOM     32  N   UNL     1       4.367  -6.458  -2.908  0.00  0.00    +0.000 NA
ATOM     33  C   UNL     1       3.401  -5.976  -3.617  0.00  0.00    +0.000 A 
ATOM     34  N   UNL     1       2.758  -4.792  -3.359  0.00  0.00    +0.000 N 
ATOM     35  C   UNL     1       3.065  -3.992  -2.284  0.00  0.00    +0.000 A 
ATOM     36  O   UNL     1       2.447  -2.959  -2.049  0.00  0.00    +0.000 OA
ATOM     37  C   UNL     1       4.155  -4.484  -1.463  0.00  0.00    +0.000 A 
ATOM     38  H   UNL     1       2.006  -4.475  -3.954  0.00  0.00    +0.000 HD
ENDBRANCH  25  28
ENDBRANCH  23  24
ENDBRANCH  20  23
ENDBRANCH   1  21
BRANCH   1  39
ATOM     39  C   UNL     1       5.131   0.196  -1.562  0.00  0.00    +0.000 C 
BRANCH  39  40
ATOM     40  O   UNL     1       4.607   0.460  -2.866  0.00  0.00    +0.000 OA
ATOM     41  H   UNL     1       3.645   0.315  -2.808  0.00  0.00    +0.000 HD
ENDBRANCH  39  40
ENDBRANCH   1  39
TORSDOF 10
