REMARK  Name = 
REMARK  7 active torsions:
REMARK  status: ('A' for Active; 'I' for Inactive)
REMARK    1  A    between atoms: C_1  and  C_2
REMARK    2  A    between atoms: C_2  and  C_3
REMARK    3  A    between atoms: C_2  and  C_4
REMARK    4  A    between atoms: C_2  and  C_15
REMARK    5  A    between atoms: C_4  and  N_5
REMARK    6  A    between atoms: N_5  and  C_6
REMARK    7  A    between atoms: C_9  and  C_10
REMARK                            x       y       z     vdW  Elec       q    Type
REMARK                         _______ _______ _______ _____ _____    ______ ____
ROOT
ATOM      1  N   UNL     1       2.540   2.442  -0.859  0.00  0.00    +0.000 N 
ATOM      2  H   UNL     1       2.755   2.733   0.095  0.00  0.00    +0.000 HD
ENDROOT
BRANCH   1   3
ATOM      3  C   UNL     1       2.988   3.414  -1.770  0.00  0.00    +0.000 A 
ATOM      4  C   UNL     1       3.185   3.156  -3.131  0.00  0.00    +0.000 A 
ATOM      5  C   UNL     1       3.584   4.167  -4.011  0.00  0.00    +0.000 A 
ATOM      6  C   UNL     1       3.752   5.477  -3.555  0.00  0.00    +0.000 A 
ATOM      7  C   UNL     1       3.514   5.765  -2.209  0.00  0.00    +0.000 A 
ATOM      8  C   UNL     1       3.118   4.743  -1.334  0.00  0.00    +0.000 A 
BRANCH   6   9
ATOM      9  C   UNL     1       4.186   6.507  -4.535  0.00  0.00    +0.000 C 
ATOM     10  N   UNL     1       3.871   7.809  -4.265  0.00  0.00    +0.000 N 
ATOM     11  O   UNL     1       4.776   6.208  -5.565  0.00  0.00    +0.000 OA
ATOM     12  H   UNL     1       3.181   8.067  -3.577  0.00  0.00    +0.000 HD
ATOM     13  H   UNL     1       4.070   8.472  -5.004  0.00  0.00    +0.000 HD
ENDBRANCH   6   9
ENDBRANCH   1   3
BRANCH   1  14
ATOM     14  C   UNL     1       2.966   1.053  -1.088  0.00  0.00    +0.000 C 
BRANCH  14  16
ATOM     15  C   UNL     1       0.875   0.005  -0.084  0.00  0.00    +0.000 C 
ATOM     16  C   UNL     1       2.422   0.055  -0.018  0.00  0.00    +0.000 C 
ATOM     17  C   UNL     1       2.899  -1.360  -0.446  0.00  0.00    +0.000 C 
BRANCH  16  18
ATOM     18  C   UNL     1       2.932   0.433   1.390  0.00  0.00    +0.000 A 
ATOM     19  C   UNL     1       4.157  -0.045   1.891  0.00  0.00    +0.000 A 
ATOM     20  C   UNL     1       4.626   0.331   3.154  0.00  0.00    +0.000 A 
ATOM     21  C   UNL     1       3.890   1.207   3.943  0.00  0.00    +0.000 A 
ATOM     22  C   UNL     1       2.681   1.704   3.471  0.00  0.00    +0.000 A 
ATOM     23  C   UNL     1       2.209   1.319   2.213  0.00  0.00    +0.000 A 
ENDBRANCH  16  18
ENDBRANCH  14  16
ENDBRANCH   1  14
TORSDOF 5
