REMARK  Name = 
REMARK  6 active torsions:
REMARK  status: ('A' for Active; 'I' for Inactive)
REMARK    1  A    between atoms: N_1  and  C_2
REMARK    2  A    between atoms: C_2  and  C_3
REMARK    3  A    between atoms: C_3  and  C_4
REMARK    4  A    between atoms: N_6  and  C_7
REMARK    5  A    between atoms: C_7  and  C_8
REMARK    6  A    between atoms: C_12  and  C_13
REMARK                            x       y       z     vdW  Elec       q    Type
REMARK                         _______ _______ _______ _____ _____    ______ ____
ROOT
ATOM      1  C   UNL     1       4.379   1.030  -0.942  0.00  0.00    +0.000 A 
ATOM      2  C   UNL     1       5.163   2.167  -0.922  0.00  0.00    +0.000 A 
ATOM      3  N   UNL     1       6.484   1.795  -0.936  0.00  0.00    +0.000 N 
ATOM      4  C   UNL     1       6.583   0.419  -0.939  0.00  0.00    +0.000 A 
ATOM      5  C   UNL     1       7.696  -0.420  -0.919  0.00  0.00    +0.000 A 
ATOM      6  N   UNL     1       7.518  -1.758  -0.932  0.00  0.00    +0.000 NA
ATOM      7  C   UNL     1       6.263  -2.252  -0.984  0.00  0.00    +0.000 A 
ATOM      8  C   UNL     1       5.113  -1.478  -1.008  0.00  0.00    +0.000 A 
ATOM      9  C   UNL     1       5.277  -0.086  -0.971  0.00  0.00    +0.000 A 
ENDROOT
BRANCH   1  10
ATOM     10  C   UNL     1       2.879   0.999  -0.938  0.00  0.00    +0.000 C 
BRANCH  10  11
ATOM     11  C   UNL     1       2.285   0.981   0.478  0.00  0.00    +0.000 C 
BRANCH  11  12
ATOM     12  N   UNL     1       0.821   0.978   0.446  0.00  0.00    +0.000 NA
ATOM     13  H   UNL     1       0.465   0.896   1.398  0.00  0.00    +0.000 HD
ATOM     14  H   UNL     1       0.488   0.154  -0.053  0.00  0.00    +0.000 HD
ENDBRANCH  11  12
ENDBRANCH  10  11
ENDBRANCH   1  10
BRANCH   3  15
ATOM     15  C   UNL     1       7.606   2.721  -0.842  0.00  0.00    +0.000 C 
BRANCH  15  16
ATOM     16  C   UNL     1       8.138   3.165  -2.185  0.00  0.00    +0.000 A 
ATOM     17  C   UNL     1       7.321   3.837  -3.092  0.00  0.00    +0.000 A 
ATOM     18  C   UNL     1       7.885   4.378  -4.242  0.00  0.00    +0.000 A 
ATOM     19  C   UNL     1       9.248   4.236  -4.467  0.00  0.00    +0.000 A 
ATOM     20  C   UNL     1      10.020   3.532  -3.544  0.00  0.00    +0.000 A 
ATOM     21  N   UNL     1       9.470   3.001  -2.408  0.00  0.00    +0.000 NA
BRANCH  20  22
ATOM     22  C   UNL     1      11.519   3.381  -3.789  0.00  0.00    +0.000 C 
ATOM     23  F   UNL     1      11.942   4.001  -4.934  0.00  0.00    +0.000 F 
ATOM     24  F   UNL     1      12.279   3.918  -2.791  0.00  0.00    +0.000 F 
ATOM     25  F   UNL     1      11.920   2.084  -3.914  0.00  0.00    +0.000 F 
ENDBRANCH  20  22
ENDBRANCH  15  16
ENDBRANCH   3  15
TORSDOF 6
