REMARK  Name = 
REMARK  4 active torsions:
REMARK  status: ('A' for Active; 'I' for Inactive)
REMARK    1  A    between atoms: C_2  and  C_4
REMARK    2  A    between atoms: C_7  and  N_8
REMARK    3  A    between atoms: N_8  and  C_9
REMARK    4  A    between atoms: C_9  and  C_10
REMARK                            x       y       z     vdW  Elec       q    Type
REMARK                         _______ _______ _______ _____ _____    ______ ____
ROOT
ATOM      1  C   UNL     1       2.861   1.671  -0.204  0.00  0.00    +0.000 A 
ATOM      2  C   UNL     1       4.234   1.512  -0.247  0.00  0.00    +0.000 A 
ATOM      3  N   UNL     1       5.091   2.550  -0.046  0.00  0.00    +0.000 NA
ATOM      4  C   UNL     1       4.543   3.747   0.247  0.00  0.00    +0.000 A 
ATOM      5  C   UNL     1       3.149   3.887   0.260  0.00  0.00    +0.000 A 
ATOM      6  N   UNL     1       2.274   2.874   0.043  0.00  0.00    +0.000 NA
ENDROOT
BRANCH   1   8
ATOM      7  N   UNL     1       0.621   0.801  -0.444  0.00  0.00    +0.000 N 
ATOM      8  C   UNL     1       1.961   0.513  -0.451  0.00  0.00    +0.000 C 
ATOM      9  O   UNL     1       2.380  -0.614  -0.657  0.00  0.00    +0.000 OA
ATOM     10  H   UNL     1      -0.046   0.070  -0.634  0.00  0.00    +0.000 HD
ATOM     11  H   UNL     1       0.311   1.756  -0.294  0.00  0.00    +0.000 HD
ENDBRANCH   1   8
BRANCH   4  12
ATOM     12  N   UNL     1       5.436   4.790   0.449  0.00  0.00    +0.000 N 
ATOM     13  H   UNL     1       5.795   5.092  -0.453  0.00  0.00    +0.000 HD
BRANCH  12  14
ATOM     14  C   UNL     1       5.004   5.909   1.271  0.00  0.00    +0.000 C 
BRANCH  14  15
ATOM     15  C   UNL     1       6.204   6.634   1.819  0.00  0.00    +0.000 A 
ATOM     16  C   UNL     1       6.367   8.009   1.633  0.00  0.00    +0.000 A 
ATOM     17  C   UNL     1       7.464   8.630   2.210  0.00  0.00    +0.000 A 
ATOM     18  N   UNL     1       8.392   7.986   2.950  0.00  0.00    +0.000 NA
ATOM     19  C   UNL     1       8.219   6.658   3.116  0.00  0.00    +0.000 A 
ATOM     20  C   UNL     1       7.157   5.949   2.582  0.00  0.00    +0.000 A 
ENDBRANCH  14  15
ENDBRANCH  12  14
ENDBRANCH   4  12
TORSDOF 4
