REMARK  Name = 
REMARK  10 active torsions:
REMARK  status: ('A' for Active; 'I' for Inactive)
REMARK    1  A    between atoms: C_1  and  O_2
REMARK    2  A    between atoms: O_2  and  C_3
REMARK    3  A    between atoms: C_8  and  C_9
REMARK    4  A    between atoms: N_11  and  C_12
REMARK    5  A    between atoms: C_12  and  C_13
REMARK    6  A    between atoms: C_16  and  CA_17
REMARK    7  A    between atoms: CA_17  and  C_18
REMARK    8  A    between atoms: CA_17  and  N_20
REMARK    9  A    between atoms: C_18  and  O_19
REMARK   10  A    between atoms: C_21  and  C_23
REMARK                            x       y       z     vdW  Elec       q    Type
REMARK                         _______ _______ _______ _____ _____    ______ ____
ROOT
ATOM      1  C   UNL     1       3.127   1.753  -3.936  0.00  0.00    +0.000 A 
ATOM      2  C   UNL     1       2.972   0.412  -4.275  0.00  0.00    +0.000 A 
ATOM      3  C   UNL     1       2.017   0.062  -5.225  0.00  0.00    +0.000 A 
ATOM      4  C   UNL     1       1.263   1.054  -5.861  0.00  0.00    +0.000 A 
ATOM      5  C   UNL     1       1.468   2.363  -5.436  0.00  0.00    +0.000 A 
ATOM      6  N   UNL     1       2.381   2.734  -4.506  0.00  0.00    +0.000 NA
ENDROOT
BRANCH   1   7
ATOM      7  C   UNL     1       4.172   2.164  -2.925  0.00  0.00    +0.000 C 
BRANCH   7  10
ATOM      8  C   UNL     1       6.420   1.562  -3.775  0.00  0.00    +0.000 C 
ATOM      9  O   UNL     1       6.313   0.397  -3.398  0.00  0.00    +0.000 OA
ATOM     10  N   UNL     1       5.436   2.492  -3.548  0.00  0.00    +0.000 N 
ATOM     11  H   UNL     1       5.522   3.403  -3.986  0.00  0.00    +0.000 HD
BRANCH   8  17
ATOM     12  C   UNL     1       7.883   3.324  -4.979  0.00  0.00    +0.000 A 
ATOM     13  C   UNL     1       9.041   3.588  -5.727  0.00  0.00    +0.000 A 
ATOM     14  C   UNL     1       9.964   2.577  -6.007  0.00  0.00    +0.000 A 
ATOM     15  C   UNL     1       9.746   1.287  -5.539  0.00  0.00    +0.000 A 
ATOM     16  C   UNL     1       8.592   1.004  -4.810  0.00  0.00    +0.000 A 
ATOM     17  C   UNL     1       7.641   2.006  -4.532  0.00  0.00    +0.000 A 
BRANCH  12  19
ATOM     18  C   UNL     1       7.278   5.643  -4.980  0.00  0.00    +0.000 C 
ATOM     19  O   UNL     1       6.962   4.291  -4.662  0.00  0.00    +0.000 OA
ENDBRANCH  12  19
ENDBRANCH   8  17
ENDBRANCH   7  10
ENDBRANCH   1   7
BRANCH   4  20
ATOM     20  CA  UNL     1       0.275   0.759  -6.969  0.00  0.00    +0.000 C 
BRANCH  20  21
ATOM     21  N   UNL     1      -0.789  -0.108  -6.502  0.00  0.00    +0.000 N 
ATOM     22  C   UNL     1      -2.008   0.367  -6.090  0.00  0.00    +0.000 C 
ATOM     23  O   UNL     1      -2.281   1.564  -6.110  0.00  0.00    +0.000 OA
ATOM     24  H   UNL     1      -0.541  -1.081  -6.360  0.00  0.00    +0.000 HD
BRANCH  22  25
ATOM     25  C   UNL     1      -3.001  -0.639  -5.696  0.00  0.00    +0.000 A 
ATOM     26  C   UNL     1      -4.351  -0.314  -5.718  0.00  0.00    +0.000 A 
ATOM     27  S   UNL     1      -5.372  -1.602  -5.267  0.00  0.00    +0.000 S 
ATOM     28  C   UNL     1      -4.045  -2.624  -4.977  0.00  0.00    +0.000 A 
ATOM     29  N   UNL     1      -4.228  -3.897  -4.529  0.00  0.00    +0.000 NA
ATOM     30  C   UNL     1      -3.136  -4.553  -4.327  0.00  0.00    +0.000 A 
ATOM     31  N   UNL     1      -1.875  -4.058  -4.543  0.00  0.00    +0.000 N 
ATOM     32  C   UNL     1      -1.642  -2.796  -5.032  0.00  0.00    +0.000 A 
ATOM     33  O   UNL     1      -0.503  -2.412  -5.276  0.00  0.00    +0.000 OA
ATOM     34  C   UNL     1      -2.839  -2.005  -5.252  0.00  0.00    +0.000 A 
ATOM     35  H   UNL     1      -1.061  -4.631  -4.385  0.00  0.00    +0.000 HD
ENDBRANCH  22  25
ENDBRANCH  20  21
BRANCH  20  36
ATOM     36  C   UNL     1       0.939   0.164  -8.236  0.00  0.00    +0.000 C 
BRANCH  36  37
ATOM     37  O   UNL     1       1.501  -1.133  -8.029  0.00  0.00    +0.000 OA
ATOM     38  H   UNL     1       2.376  -1.000  -7.622  0.00  0.00    +0.000 HD
ENDBRANCH  36  37
ENDBRANCH  20  36
ENDBRANCH   4  20
TORSDOF 9
