REMARK  Name = 
REMARK  8 active torsions:
REMARK  status: ('A' for Active; 'I' for Inactive)
REMARK    1  A    between atoms: C_1  and  C_2
REMARK    2  A    between atoms: C_2  and  N_3
REMARK    3  A    between atoms: C_2  and  C_9
REMARK    4  A    between atoms: N_3  and  C_4
REMARK    5  A    between atoms: C_12  and  N_13
REMARK    6  A    between atoms: N_13  and  C_14
REMARK    7  A    between atoms: C_14  and  C_15
REMARK    8  A    between atoms: C_14  and  C_16
REMARK                            x       y       z     vdW  Elec       q    Type
REMARK                         _______ _______ _______ _____ _____    ______ ____
ROOT
ATOM      1  C   UNL     1       2.978   1.272  -0.731  0.00  0.00    +0.000 A 
ATOM      2  C   UNL     1       2.390   2.426  -0.217  0.00  0.00    +0.000 A 
ATOM      3  C   UNL     1       2.656   3.660  -0.816  0.00  0.00    +0.000 A 
ATOM      4  C   UNL     1       3.524   3.753  -1.900  0.00  0.00    +0.000 A 
ATOM      5  C   UNL     1       4.126   2.556  -2.287  0.00  0.00    +0.000 A 
ATOM      6  N   UNL     1       3.873   1.338  -1.746  0.00  0.00    +0.000 NA
ENDROOT
BRANCH   1   8
ATOM      7  C   UNL     1       3.426  -1.221  -0.815  0.00  0.00    +0.000 C 
ATOM      8  C   UNL     1       2.618  -0.102  -0.138  0.00  0.00    +0.000 C 
BRANCH   8   9
ATOM      9  N   UNL     1       1.154  -0.360  -0.219  0.00  0.00    +0.000 NA
ATOM     10  H   UNL     1       0.663   0.414   0.220  0.00  0.00    +0.000 HD
BRANCH   9  11
ATOM     11  C   UNL     1       0.714  -1.619   0.406  0.00  0.00    +0.000 C 
ATOM     12  C   UNL     1      -0.783  -1.804   0.221  0.00  0.00    +0.000 C 
ATOM     13  C   UNL     1      -1.379  -1.071   1.399  0.00  0.00    +0.000 C 
ATOM     14  O   UNL     1      -0.422  -1.137   2.464  0.00  0.00    +0.000 OA
ATOM     15  C   UNL     1       0.816  -1.637   1.935  0.00  0.00    +0.000 C 
ENDBRANCH   9  11
ENDBRANCH   8   9
ENDBRANCH   1   8
BRANCH   4  16
ATOM     16  N   UNL     1       3.849   4.936  -2.558  0.00  0.00    +0.000 N 
ATOM     17  H   UNL     1       4.803   5.235  -2.375  0.00  0.00    +0.000 HD
BRANCH  16  18
ATOM     18  C   UNL     1       2.884   6.040  -2.658  0.00  0.00    +0.000 C 
ATOM     19  C   UNL     1       3.054   7.014  -1.481  0.00  0.00    +0.000 C 
BRANCH  18  20
ATOM     20  C   UNL     1       2.990   6.826  -3.959  0.00  0.00    +0.000 A 
ATOM     21  C   UNL     1       4.152   7.015  -4.689  0.00  0.00    +0.000 A 
ATOM     22  S   UNL     1       3.932   8.018  -6.057  0.00  0.00    +0.000 S 
ATOM     23  C   UNL     1       2.276   8.225  -5.716  0.00  0.00    +0.000 A 
ATOM     24  N   UNL     1       1.483   9.013  -6.490  0.00  0.00    +0.000 NA
ATOM     25  C   UNL     1       0.250   9.067  -6.104  0.00  0.00    +0.000 A 
ATOM     26  N   UNL     1      -0.263   8.399  -5.021  0.00  0.00    +0.000 N 
ATOM     27  C   UNL     1       0.499   7.602  -4.201  0.00  0.00    +0.000 A 
ATOM     28  O   UNL     1       0.018   7.036  -3.226  0.00  0.00    +0.000 OA
ATOM     29  C   UNL     1       1.895   7.520  -4.591  0.00  0.00    +0.000 A 
ATOM     30  H   UNL     1      -1.242   8.482  -4.778  0.00  0.00    +0.000 HD
ENDBRANCH  18  20
ENDBRANCH  16  18
ENDBRANCH   4  16
TORSDOF 6
