REMARK  Name = 
REMARK  7 active torsions:
REMARK  status: ('A' for Active; 'I' for Inactive)
REMARK    1  A    between atoms: C_1  and  C_2
REMARK    2  A    between atoms: C_2  and  C_3
REMARK    3  A    between atoms: C_2  and  N_24
REMARK    4  A    between atoms: C_3  and  C_4
REMARK    5  A    between atoms: C_7  and  C_8
REMARK    6  A    between atoms: C_8  and  N_9
REMARK    7  A    between atoms: C_10  and  C_12
REMARK                            x       y       z     vdW  Elec       q    Type
REMARK                         _______ _______ _______ _____ _____    ______ ____
ROOT
ATOM      1  C   UNL     1       0.400  -1.536   0.342  0.00  0.00    +0.000 A 
ATOM      2  C   UNL     1       1.262  -2.538   0.788  0.00  0.00    +0.000 A 
ATOM      3  C   UNL     1       0.768  -3.826   0.982  0.00  0.00    +0.000 A 
ATOM      4  C   UNL     1      -0.575  -4.095   0.723  0.00  0.00    +0.000 A 
ATOM      5  C   UNL     1      -1.371  -3.025   0.329  0.00  0.00    +0.000 A 
ATOM      6  N   UNL     1      -0.914  -1.766   0.116  0.00  0.00    +0.000 NA
ENDROOT
BRANCH   1   7
ATOM      7  C   UNL     1       0.977  -0.184  -0.011  0.00  0.00    +0.000 C 
BRANCH   7   9
ATOM      8  C   UNL     1      -0.512   1.209   1.561  0.00  0.00    +0.000 C 
ATOM      9  C   UNL     1       0.046   1.033   0.146  0.00  0.00    +0.000 C 
BRANCH   9  10
ATOM     10  N   UNL     1       0.696   2.258  -0.319  0.00  0.00    +0.000 N 
ATOM     11  C   UNL     1       1.841   2.802   0.197  0.00  0.00    +0.000 A 
ATOM     12  N   UNL     1       2.515   2.182   1.175  0.00  0.00    +0.000 NA
ATOM     13  C   UNL     1       3.665   2.741   1.592  0.00  0.00    +0.000 A 
ATOM     14  C   UNL     1       4.178   3.896   1.064  0.00  0.00    +0.000 A 
ATOM     15  C   UNL     1       3.416   4.467   0.077  0.00  0.00    +0.000 A 
ATOM     16  N   UNL     1       2.248   3.950  -0.359  0.00  0.00    +0.000 NA
ATOM     17  H   UNL     1       0.169   2.921  -0.870  0.00  0.00    +0.000 HD
ENDBRANCH   9  10
ENDBRANCH   7   9
ENDBRANCH   1   7
BRANCH   4  18
ATOM     18  C   UNL     1      -1.144  -5.473   0.875  0.00  0.00    +0.000 C 
BRANCH  18  19
ATOM     19  N   UNL     1      -1.616  -5.705   2.215  0.00  0.00    +0.000 N 
ATOM     20  C   UNL     1      -2.077  -6.935   2.604  0.00  0.00    +0.000 C 
ATOM     21  O   UNL     1      -2.057  -7.907   1.854  0.00  0.00    +0.000 OA
ATOM     22  H   UNL     1      -1.852  -4.888   2.769  0.00  0.00    +0.000 HD
BRANCH  20  23
ATOM     23  C   UNL     1      -2.548  -7.047   3.992  0.00  0.00    +0.000 A 
ATOM     24  C   UNL     1      -2.567  -8.286   4.616  0.00  0.00    +0.000 A 
ATOM     25  S   UNL     1      -3.087  -8.226   6.240  0.00  0.00    +0.000 S 
ATOM     26  C   UNL     1      -3.359  -6.551   6.148  0.00  0.00    +0.000 A 
ATOM     27  N   UNL     1      -3.844  -5.860   7.216  0.00  0.00    +0.000 NA
ATOM     28  C   UNL     1      -4.027  -4.602   6.999  0.00  0.00    +0.000 A 
ATOM     29  N   UNL     1      -3.768  -3.967   5.811  0.00  0.00    +0.000 N 
ATOM     30  C   UNL     1      -3.254  -4.617   4.716  0.00  0.00    +0.000 A 
ATOM     31  O   UNL     1      -2.993  -4.014   3.678  0.00  0.00    +0.000 OA
ATOM     32  C   UNL     1      -3.040  -6.039   4.904  0.00  0.00    +0.000 A 
ATOM     33  H   UNL     1      -3.927  -2.976   5.709  0.00  0.00    +0.000 HD
ENDBRANCH  20  23
ENDBRANCH  18  19
ENDBRANCH   4  18
TORSDOF 6
