REMARK  Name = 
REMARK  7 active torsions:
REMARK  status: ('A' for Active; 'I' for Inactive)
REMARK    1  A    between atoms: C_1  and  C_2
REMARK    2  A    between atoms: C_5  and  N_6
REMARK    3  A    between atoms: N_6  and  C_7
REMARK    4  A    between atoms: C_7  and  C_8
REMARK    5  A    between atoms: C_8  and  C_11
REMARK    6  A    between atoms: C_15  and  C_16
REMARK    7  A    between atoms: C_16  and  C_17
REMARK                            x       y       z     vdW  Elec       q    Type
REMARK                         _______ _______ _______ _____ _____    ______ ____
ROOT
ATOM      1  C   UNL     1      -5.411   0.290   0.001  0.00  0.00    +0.000 C 
ATOM      2  F   UNL     1      -5.825  -0.772   0.768  0.00  0.00    +0.000 F 
ATOM      3  F   UNL     1      -4.231   0.688   0.571  0.00  0.00    +0.000 F 
ENDROOT
BRANCH   1   4
ATOM      4  C   UNL     1      -6.432   1.410  -0.000  0.00  0.00    +0.000 A 
ATOM      5  C   UNL     1      -7.803   1.132   0.079  0.00  0.00    +0.000 A 
ATOM      6  C   UNL     1      -8.731   2.172   0.152  0.00  0.00    +0.000 A 
ATOM      7  C   UNL     1      -8.301   3.502   0.160  0.00  0.00    +0.000 A 
ATOM      8  C   UNL     1      -6.936   3.804   0.096  0.00  0.00    +0.000 A 
ATOM      9  C   UNL     1      -6.013   2.751  -0.012  0.00  0.00    +0.000 A 
BRANCH   8  10
ATOM     10  C   UNL     1      -6.444   5.225   0.249  0.00  0.00    +0.000 C 
BRANCH  10  11
ATOM     11  C   UNL     1      -6.380   5.975  -1.077  0.00  0.00    +0.000 C 
ATOM     12  C   UNL     1      -5.398   5.508  -2.179  0.00  0.00    +0.000 C 
ATOM     13  C   UNL     1      -4.999   6.986  -2.291  0.00  0.00    +0.000 C 
ATOM     14  N   UNL     1      -5.540   7.199  -0.938  0.00  0.00    +0.000 NA
ATOM     15  H   UNL     1      -6.057   8.068  -0.814  0.00  0.00    +0.000 HD
ENDBRANCH  10  11
ENDBRANCH   8  10
ENDBRANCH   1   4
BRANCH   1  16
ATOM     16  C   UNL     1      -5.114  -0.255  -1.419  0.00  0.00    +0.000 C 
BRANCH  16  17
ATOM     17  N   UNL     1      -4.068  -1.300  -1.383  0.00  0.00    +0.000 N 
ATOM     18  H   UNL     1      -4.271  -2.025  -0.699  0.00  0.00    +0.000 HD
BRANCH  17  23
ATOM     19  C   UNL     1      -2.306  -3.457  -6.250  0.00  0.00    +0.000 C 
ATOM     20  C   UNL     1      -2.817  -2.918  -4.954  0.00  0.00    +0.000 A 
ATOM     21  C   UNL     1      -3.840  -1.979  -4.906  0.00  0.00    +0.000 A 
ATOM     22  N   UNL     1      -4.301  -1.434  -3.752  0.00  0.00    +0.000 NA
ATOM     23  C   UNL     1      -3.713  -1.856  -2.615  0.00  0.00    +0.000 A 
ATOM     24  C   UNL     1      -2.686  -2.804  -2.672  0.00  0.00    +0.000 A 
ATOM     25  N   UNL     1      -2.224  -3.355  -3.821  0.00  0.00    +0.000 NA
ENDBRANCH  17  23
ENDBRANCH  16  17
ENDBRANCH   1  16
TORSDOF 6
