REMARK  Name = 
REMARK  4 active torsions:
REMARK  status: ('A' for Active; 'I' for Inactive)
REMARK    1  A    between atoms: C_2  and  C_4
REMARK    2  A    between atoms: N_8  and  C_9
REMARK    3  A    between atoms: C_9  and  C_10
REMARK    4  A    between atoms: C_14  and  C_15
REMARK                            x       y       z     vdW  Elec       q    Type
REMARK                         _______ _______ _______ _____ _____    ______ ____
ROOT
ATOM      1  C   UNL     1       5.871   3.770   3.953  0.00  0.00    +0.000 C 
ATOM      2  C   UNL     1       6.078   5.034   3.134  0.00  0.00    +0.000 C 
ATOM      3  C   UNL     1       6.898   3.828   2.823  0.00  0.00    +0.000 C 
ENDROOT
BRANCH   1   8
ATOM      4  C   UNL     1       0.808   4.150   4.369  0.00  0.00    +0.000 A 
ATOM      5  C   UNL     1       1.159   3.186   3.456  0.00  0.00    +0.000 A 
ATOM      6  N   UNL     1       2.434   2.805   3.224  0.00  0.00    +0.000 NA
ATOM      7  C   UNL     1       3.398   3.433   3.921  0.00  0.00    +0.000 A 
ATOM      8  N   UNL     1       4.686   2.940   3.730  0.00  0.00    +0.000 N 
ATOM      9  N   UNL     1       3.155   4.447   4.769  0.00  0.00    +0.000 NA
ATOM     10  C   UNL     1       1.862   4.787   4.979  0.00  0.00    +0.000 A 
ATOM     11  H   UNL     1       4.654   2.324   2.926  0.00  0.00    +0.000 HD
BRANCH   4  13
ATOM     12  N   UNL     1      -1.503   3.469   4.600  0.00  0.00    +0.000 N 
ATOM     13  C   UNL     1      -0.578   4.478   4.706  0.00  0.00    +0.000 C 
ATOM     14  O   UNL     1      -0.887   5.589   5.109  0.00  0.00    +0.000 OA
ATOM     15  H   UNL     1      -2.426   3.673   4.962  0.00  0.00    +0.000 HD
ATOM     16  H   UNL     1      -1.246   2.494   4.533  0.00  0.00    +0.000 HD
ENDBRANCH   4  13
ENDBRANCH   1   8
BRANCH   1  17
ATOM     17  C   UNL     1       6.431   3.741   5.367  0.00  0.00    +0.000 A 
ATOM     18  C   UNL     1       6.026   4.640   6.350  0.00  0.00    +0.000 A 
ATOM     19  N   UNL     1       6.599   4.772   7.570  0.00  0.00    +0.000 NA
ATOM     20  C   UNL     1       7.654   3.963   7.826  0.00  0.00    +0.000 A 
ATOM     21  C   UNL     1       8.144   2.983   6.965  0.00  0.00    +0.000 A 
ATOM     22  C   UNL     1       7.472   2.871   5.735  0.00  0.00    +0.000 A 
BRANCH  21  23
ATOM     23  C   UNL     1       9.343   2.177   7.262  0.00  0.00    +0.000 A 
ATOM     24  C   UNL     1       9.803   1.928   8.555  0.00  0.00    +0.000 A 
ATOM     25  C   UNL     1      10.989   1.215   8.734  0.00  0.00    +0.000 A 
ATOM     26  C   UNL     1      11.686   0.761   7.624  0.00  0.00    +0.000 A 
ATOM     27  C   UNL     1      11.162   1.030   6.375  0.00  0.00    +0.000 A 
ATOM     28  N   UNL     1      10.018   1.718   6.174  0.00  0.00    +0.000 NA
ENDBRANCH  21  23
ENDBRANCH   1  17
TORSDOF 4
