REMARK  Name = 
REMARK  10 active torsions:
REMARK  status: ('A' for Active; 'I' for Inactive)
REMARK    1  A    between atoms: C_1  and  C_2
REMARK    2  A    between atoms: C_2  and  N_3
REMARK    3  A    between atoms: C_2  and  C_27
REMARK    4  A    between atoms: N_3  and  C_4
REMARK    5  A    between atoms: C_4  and  C_5
REMARK    6  A    between atoms: C_8  and  CA_9
REMARK    7  A    between atoms: CA_9  and  C_10
REMARK    8  A    between atoms: CA_9  and  N_12
REMARK    9  A    between atoms: C_10  and  O_11
REMARK   10  A    between atoms: C_13  and  C_15
REMARK                            x       y       z     vdW  Elec       q    Type
REMARK                         _______ _______ _______ _____ _____    ______ ____
ROOT
ATOM      1  CA  UNL     1      -5.228  -1.947  -0.199  0.00  0.00    +0.000 C 
ENDROOT
BRANCH   1   5
ATOM      2  C   UNL     1      -7.010   1.825  -1.485  0.00  0.00    +0.000 A 
ATOM      3  C   UNL     1      -5.672   1.545  -1.784  0.00  0.00    +0.000 A 
ATOM      4  C   UNL     1      -5.085   0.345  -1.370  0.00  0.00    +0.000 A 
ATOM      5  C   UNL     1      -5.817  -0.608  -0.639  0.00  0.00    +0.000 A 
ATOM      6  C   UNL     1      -7.153  -0.313  -0.333  0.00  0.00    +0.000 A 
ATOM      7  C   UNL     1      -7.739   0.887  -0.745  0.00  0.00    +0.000 A 
BRANCH   2   8
ATOM      8  C   UNL     1      -7.618   3.173  -1.794  0.00  0.00    +0.000 C 
BRANCH   8   9
ATOM      9  N   UNL     1      -7.368   3.653  -3.160  0.00  0.00    +0.000 NA
ATOM     10  H   UNL     1      -7.874   3.039  -3.801  0.00  0.00    +0.000 HD
BRANCH   9  12
ATOM     11  C   UNL     1      -7.152   6.045  -2.444  0.00  0.00    +0.000 C 
ATOM     12  C   UNL     1      -7.887   5.033  -3.340  0.00  0.00    +0.000 C 
BRANCH  12  13
ATOM     13  C   UNL     1      -7.791   5.582  -4.767  0.00  0.00    +0.000 A 
ATOM     14  C   UNL     1      -6.780   5.196  -5.647  0.00  0.00    +0.000 A 
ATOM     15  C   UNL     1      -6.640   5.877  -6.856  0.00  0.00    +0.000 A 
ATOM     16  C   UNL     1      -7.500   6.926  -7.156  0.00  0.00    +0.000 A 
ATOM     17  C   UNL     1      -8.490   7.236  -6.243  0.00  0.00    +0.000 A 
ATOM     18  N   UNL     1      -8.658   6.587  -5.070  0.00  0.00    +0.000 NA
ENDBRANCH  12  13
ENDBRANCH   9  12
ENDBRANCH   8   9
ENDBRANCH   2   8
ENDBRANCH   1   5
BRANCH   1  19
ATOM     19  N   UNL     1      -3.864  -2.116  -0.662  0.00  0.00    +0.000 N 
ATOM     20  C   UNL     1      -3.490  -2.940  -1.685  0.00  0.00    +0.000 C 
ATOM     21  O   UNL     1      -4.291  -3.617  -2.321  0.00  0.00    +0.000 OA
ATOM     22  H   UNL     1      -3.158  -1.651  -0.101  0.00  0.00    +0.000 HD
BRANCH  20  23
ATOM     23  C   UNL     1      -2.055  -2.938  -2.000  0.00  0.00    +0.000 A 
ATOM     24  C   UNL     1      -1.621  -3.320  -3.262  0.00  0.00    +0.000 A 
ATOM     25  S   UNL     1       0.075  -3.269  -3.438  0.00  0.00    +0.000 S 
ATOM     26  C   UNL     1       0.286  -2.783  -1.822  0.00  0.00    +0.000 A 
ATOM     27  N   UNL     1       1.528  -2.603  -1.298  0.00  0.00    +0.000 NA
ATOM     28  C   UNL     1       1.539  -2.276  -0.045  0.00  0.00    +0.000 A 
ATOM     29  N   UNL     1       0.425  -2.088   0.722  0.00  0.00    +0.000 N 
ATOM     30  C   UNL     1      -0.841  -2.153   0.202  0.00  0.00    +0.000 A 
ATOM     31  O   UNL     1      -1.807  -1.792   0.861  0.00  0.00    +0.000 OA
ATOM     32  C   UNL     1      -0.919  -2.606  -1.172  0.00  0.00    +0.000 A 
ATOM     33  H   UNL     1       0.498  -1.778   1.682  0.00  0.00    +0.000 HD
ENDBRANCH  20  23
ENDBRANCH   1  19
BRANCH   1  34
ATOM     34  C   UNL     1      -5.250  -2.136   1.341  0.00  0.00    +0.000 C 
BRANCH  34  35
ATOM     35  O   UNL     1      -4.446  -1.182   2.042  0.00  0.00    +0.000 OA
ATOM     36  H   UNL     1      -4.410  -0.365   1.515  0.00  0.00    +0.000 HD
ENDBRANCH  34  35
ENDBRANCH   1  34
TORSDOF 9
