REMARK  Name = 
REMARK  5 active torsions:
REMARK  status: ('A' for Active; 'I' for Inactive)
REMARK    1  A    between atoms: N_1  and  S_2
REMARK    2  A    between atoms: S_2  and  C_5
REMARK    3  A    between atoms: N_9  and  C_10
REMARK    4  A    between atoms: C_10  and  C_11
REMARK    5  A    between atoms: C_14  and  O_15
REMARK                            x       y       z     vdW  Elec       q    Type
REMARK                         _______ _______ _______ _____ _____    ______ ____
ROOT
ATOM      1  C   UNL     1       3.422   0.338   1.701  0.00  0.00    +0.000 A 
ATOM      2  C   UNL     1       4.234  -0.458   2.458  0.00  0.00    +0.000 A 
ATOM      3  N   UNL     1       4.560  -0.159   3.735  0.00  0.00    +0.000 NA
ATOM      4  C   UNL     1       4.067   0.985   4.252  0.00  0.00    +0.000 A 
ATOM      5  N   UNL     1       4.331   1.198   5.590  0.00  0.00    +0.000 N 
ATOM      6  N   UNL     1       3.310   1.848   3.559  0.00  0.00    +0.000 NA
ATOM      7  C   UNL     1       3.010   1.508   2.286  0.00  0.00    +0.000 A 
ATOM      8  H   UNL     1       5.101   0.592   5.861  0.00  0.00    +0.000 HD
ENDROOT
BRANCH   1   9
ATOM      9  S   UNL     1       2.988  -0.052   0.072  0.00  0.00    +0.000 S 
ATOM     10  O   UNL     1       3.972  -0.944  -0.488  0.00  0.00    +0.000 OA
ATOM     11  O   UNL     1       2.558   1.151  -0.604  0.00  0.00    +0.000 OA
BRANCH   9  12
ATOM     12  N   UNL     1       1.589  -0.968   0.283  0.00  0.00    +0.000 NA
ATOM     13  H   UNL     1       1.644  -1.814  -0.288  0.00  0.00    +0.000 HD
ATOM     14  H   UNL     1       0.749  -0.412   0.098  0.00  0.00    +0.000 HD
ENDBRANCH   9  12
ENDBRANCH   1   9
BRANCH   5  15
ATOM     15  C   UNL     1       4.449   2.578   6.014  0.00  0.00    +0.000 C 
BRANCH  15  16
ATOM     16  C   UNL     1       4.755   2.624   7.500  0.00  0.00    +0.000 A 
ATOM     17  C   UNL     1       5.901   3.271   7.992  0.00  0.00    +0.000 A 
ATOM     18  C   UNL     1       6.158   3.326   9.368  0.00  0.00    +0.000 A 
ATOM     19  C   UNL     1       5.262   2.729  10.254  0.00  0.00    +0.000 A 
ATOM     20  C   UNL     1       4.125   2.083   9.788  0.00  0.00    +0.000 A 
ATOM     21  C   UNL     1       3.870   2.033   8.418  0.00  0.00    +0.000 A 
BRANCH  19  22
ATOM     22  O   UNL     1       5.468   2.759  11.601  0.00  0.00    +0.000 OA
ATOM     23  H   UNL     1       6.289   3.246  11.780  0.00  0.00    +0.000 HD
ENDBRANCH  19  22
ENDBRANCH  15  16
ENDBRANCH   5  15
TORSDOF 5
