REMARK  Name = 
REMARK  5 active torsions:
REMARK  status: ('A' for Active; 'I' for Inactive)
REMARK    1  A    between atoms: C_1  and  C_2
REMARK    2  A    between atoms: C_7  and  C_8
REMARK    3  A    between atoms: C_8  and  N_9
REMARK    4  A    between atoms: N_9  and  C_10
REMARK    5  A    between atoms: C_13  and  C_14
REMARK                            x       y       z     vdW  Elec       q    Type
REMARK                         _______ _______ _______ _____ _____    ______ ____
ROOT
ATOM      1  C   UNL     1       3.228  -3.605   0.291  0.00  0.00    +0.000 A 
ATOM      2  C   UNL     1       4.582  -3.629  -0.066  0.00  0.00    +0.000 A 
ATOM      3  C   UNL     1       5.363  -4.770   0.151  0.00  0.00    +0.000 A 
ATOM      4  C   UNL     1       4.767  -5.865   0.758  0.00  0.00    +0.000 A 
ATOM      5  N   UNL     1       3.471  -5.885   1.165  0.00  0.00    +0.000 NA
ATOM      6  C   UNL     1       2.754  -4.754   0.935  0.00  0.00    +0.000 A 
ENDROOT
BRANCH   4   7
ATOM      7  C   UNL     1       5.559  -7.112   1.007  0.00  0.00    +0.000 C 
ATOM      8  N   UNL     1       4.869  -8.121   1.628  0.00  0.00    +0.000 N 
ATOM      9  O   UNL     1       6.734  -7.234   0.682  0.00  0.00    +0.000 OA
ATOM     10  H   UNL     1       3.902  -7.971   1.885  0.00  0.00    +0.000 HD
ATOM     11  H   UNL     1       5.329  -8.994   1.837  0.00  0.00    +0.000 HD
ENDBRANCH   4   7
BRANCH   1  12
ATOM     12  N   UNL     1       2.491  -2.426   0.131  0.00  0.00    +0.000 N 
ATOM     13  H   UNL     1       2.915  -1.782  -0.533  0.00  0.00    +0.000 HD
BRANCH  12  14
ATOM     14  C   UNL     1       1.041  -2.509  -0.063  0.00  0.00    +0.000 C 
BRANCH  14  21
ATOM     15  C   UNL     1      -0.574  -1.208  -2.322  0.00  0.00    +0.000 C 
ATOM     16  C   UNL     1      -0.350  -0.540  -0.993  0.00  0.00    +0.000 A 
ATOM     17  C   UNL     1      -0.952   0.714  -0.773  0.00  0.00    +0.000 A 
ATOM     18  C   UNL     1      -0.811   1.378   0.444  0.00  0.00    +0.000 A 
ATOM     19  C   UNL     1      -0.064   0.801   1.463  0.00  0.00    +0.000 A 
ATOM     20  C   UNL     1       0.542  -0.439   1.261  0.00  0.00    +0.000 A 
ATOM     21  C   UNL     1       0.412  -1.130   0.039  0.00  0.00    +0.000 A 
ENDBRANCH  14  21
ENDBRANCH  12  14
ENDBRANCH   1  12
TORSDOF 4
