REMARK  Name = 
REMARK  5 active torsions:
REMARK  status: ('A' for Active; 'I' for Inactive)
REMARK    1  A    between atoms: C_2  and  C_4
REMARK    2  A    between atoms: N_8  and  C_9
REMARK    3  A    between atoms: C_9  and  C_10
REMARK    4  A    between atoms: C_12  and  C_13
REMARK    5  A    between atoms: C_17  and  C_18
REMARK                            x       y       z     vdW  Elec       q    Type
REMARK                         _______ _______ _______ _____ _____    ______ ____
ROOT
ATOM      1  C   UNL     1       5.715  -4.861   2.835  0.00  0.00    +0.000 C 
ATOM      2  C   UNL     1       5.131  -6.098   2.175  0.00  0.00    +0.000 C 
ATOM      3  C   UNL     1       4.434  -5.523   3.362  0.00  0.00    +0.000 C 
ENDROOT
BRANCH   1   8
ATOM      4  C   UNL     1       7.577  -1.072  -0.330  0.00  0.00    +0.000 A 
ATOM      5  C   UNL     1       8.254  -2.164   0.210  0.00  0.00    +0.000 A 
ATOM      6  C   UNL     1       7.580  -3.034   1.079  0.00  0.00    +0.000 A 
ATOM      7  C   UNL     1       6.252  -2.789   1.394  0.00  0.00    +0.000 A 
ATOM      8  N   UNL     1       5.492  -3.513   2.304  0.00  0.00    +0.000 N 
ATOM      9  N   UNL     1       5.586  -1.733   0.870  0.00  0.00    +0.000 NA
ATOM     10  C   UNL     1       6.254  -0.898   0.035  0.00  0.00    +0.000 A 
ATOM     11  H   UNL     1       4.546  -3.150   2.253  0.00  0.00    +0.000 HD
BRANCH   4  13
ATOM     12  N   UNL     1       9.256  -0.492  -1.991  0.00  0.00    +0.000 N 
ATOM     13  C   UNL     1       8.186  -0.084  -1.240  0.00  0.00    +0.000 C 
ATOM     14  O   UNL     1       7.741   1.053  -1.353  0.00  0.00    +0.000 OA
ATOM     15  H   UNL     1       9.585   0.160  -2.688  0.00  0.00    +0.000 HD
ATOM     16  H   UNL     1       9.486  -1.465  -2.116  0.00  0.00    +0.000 HD
ENDBRANCH   4  13
ENDBRANCH   1   8
BRANCH   1  17
ATOM     17  C   UNL     1       6.977  -5.101   3.676  0.00  0.00    +0.000 A 
ATOM     18  C   UNL     1       7.068  -4.601   4.976  0.00  0.00    +0.000 A 
ATOM     19  C   UNL     1       8.081  -5.039   5.839  0.00  0.00    +0.000 A 
ATOM     20  C   UNL     1       9.013  -5.948   5.327  0.00  0.00    +0.000 A 
ATOM     21  C   UNL     1       8.908  -6.348   4.009  0.00  0.00    +0.000 A 
ATOM     22  N   UNL     1       7.927  -5.942   3.183  0.00  0.00    +0.000 NA
BRANCH  19  23
ATOM     23  C   UNL     1       8.129  -4.597   7.246  0.00  0.00    +0.000 A 
ATOM     24  C   UNL     1       8.441  -5.492   8.282  0.00  0.00    +0.000 A 
ATOM     25  C   UNL     1       8.488  -5.074   9.614  0.00  0.00    +0.000 A 
ATOM     26  C   UNL     1       8.217  -3.746   9.940  0.00  0.00    +0.000 A 
ATOM     27  C   UNL     1       7.896  -2.827   8.933  0.00  0.00    +0.000 A 
ATOM     28  C   UNL     1       7.853  -3.264   7.598  0.00  0.00    +0.000 A 
BRANCH  27  29
ATOM     29  C   UNL     1       7.603  -1.381   9.251  0.00  0.00    +0.000 C 
ATOM     30  F   UNL     1       7.731  -1.075  10.571  0.00  0.00    +0.000 F 
ATOM     31  F   UNL     1       8.431  -0.528   8.587  0.00  0.00    +0.000 F 
ATOM     32  F   UNL     1       6.337  -1.021   8.903  0.00  0.00    +0.000 F 
ENDBRANCH  27  29
ENDBRANCH  19  23
ENDBRANCH   1  17
TORSDOF 5
