REMARK  Name = 
REMARK  4 active torsions:
REMARK  status: ('A' for Active; 'I' for Inactive)
REMARK    1  A    between atoms: C_2  and  C_4
REMARK    2  A    between atoms: C_7  and  C_8
REMARK    3  A    between atoms: C_8  and  O_9
REMARK    4  A    between atoms: O_9  and  C_10
REMARK                            x       y       z     vdW  Elec       q    Type
REMARK                         _______ _______ _______ _____ _____    ______ ____
ROOT
ATOM      1  C   UNL     1       3.273  -0.918   0.955  0.00  0.00    +0.000 A 
ATOM      2  C   UNL     1       2.874  -2.234   1.216  0.00  0.00    +0.000 A 
ATOM      3  C   UNL     1       3.687  -3.071   1.990  0.00  0.00    +0.000 A 
ATOM      4  C   UNL     1       4.900  -2.604   2.519  0.00  0.00    +0.000 A 
ATOM      5  C   UNL     1       5.298  -1.289   2.239  0.00  0.00    +0.000 A 
ATOM      6  C   UNL     1       4.491  -0.453   1.462  0.00  0.00    +0.000 A 
ENDROOT
BRANCH   1   8
ATOM      7  N   UNL     1       1.113  -0.206   0.068  0.00  0.00    +0.000 N 
ATOM      8  C   UNL     1       2.463   0.003   0.113  0.00  0.00    +0.000 C 
ATOM      9  O   UNL     1       2.972   0.940  -0.490  0.00  0.00    +0.000 OA
ATOM     10  H   UNL     1       0.572   0.495  -0.423  0.00  0.00    +0.000 HD
ATOM     11  H   UNL     1       0.631  -0.786   0.739  0.00  0.00    +0.000 HD
ENDBRANCH   1   8
BRANCH   4  12
ATOM     12  C   UNL     1       5.787  -3.511   3.342  0.00  0.00    +0.000 C 
BRANCH  12  13
ATOM     13  O   UNL     1       6.673  -4.202   2.464  0.00  0.00    +0.000 OA
BRANCH  13  14
ATOM     14  C   UNL     1       7.542  -5.094   3.029  0.00  0.00    +0.000 A 
ATOM     15  C   UNL     1       7.684  -5.361   4.392  0.00  0.00    +0.000 A 
ATOM     16  C   UNL     1       8.612  -6.312   4.832  0.00  0.00    +0.000 A 
ATOM     17  C   UNL     1       9.405  -6.999   3.914  0.00  0.00    +0.000 A 
ATOM     18  C   UNL     1       9.274  -6.731   2.553  0.00  0.00    +0.000 A 
ATOM     19  C   UNL     1       8.348  -5.783   2.116  0.00  0.00    +0.000 A 
ENDBRANCH  13  14
ENDBRANCH  12  13
ENDBRANCH   4  12
TORSDOF 4
