REMARK  Name = 
REMARK  5 active torsions:
REMARK  status: ('A' for Active; 'I' for Inactive)
REMARK    1  A    between atoms: N_1  and  C_2
REMARK    2  A    between atoms: C_2  and  C_3
REMARK    3  A    between atoms: C_6  and  C_7
REMARK    4  A    between atoms: C_7  and  N_8
REMARK    5  A    between atoms: C_13  and  C_14
REMARK                            x       y       z     vdW  Elec       q    Type
REMARK                         _______ _______ _______ _____ _____    ______ ____
ROOT
ATOM      1  N   UNL     1       4.359   0.290  -6.548  0.00  0.00    +0.000 N 
ATOM      2  N   UNL     1       3.792  -0.356  -7.598  0.00  0.00    +0.000 NA
ATOM      3  N   UNL     1       4.413   0.048  -8.699  0.00  0.00    +0.000 NA
ATOM      4  C   UNL     1       5.220   1.098  -8.363  0.00  0.00    +0.000 A 
ATOM      5  C   UNL     1       6.110   1.842  -9.150  0.00  0.00    +0.000 A 
ATOM      6  C   UNL     1       6.780   2.937  -8.579  0.00  0.00    +0.000 A 
ATOM      7  C   UNL     1       6.520   3.290  -7.245  0.00  0.00    +0.000 A 
ATOM      8  C   UNL     1       5.681   2.506  -6.420  0.00  0.00    +0.000 A 
ATOM      9  C   UNL     1       5.080   1.386  -7.011  0.00  0.00    +0.000 A 
ENDROOT
BRANCH   6  10
ATOM     10  C   UNL     1       7.768   3.637  -9.463  0.00  0.00    +0.000 C 
ATOM     11  N   UNL     1       8.434   4.732  -8.985  0.00  0.00    +0.000 N 
ATOM     12  O   UNL     1       7.997   3.235 -10.595  0.00  0.00    +0.000 OA
ATOM     13  H   UNL     1       8.257   5.189  -8.104  0.00  0.00    +0.000 HD
ATOM     14  H   UNL     1       9.083   5.174  -9.625  0.00  0.00    +0.000 HD
ENDBRANCH   6  10
BRANCH   1  15
ATOM     15  C   UNL     1       4.738  -0.562  -5.418  0.00  0.00    +0.000 C 
BRANCH  15  19
ATOM     16  C   UNL     1       3.103   0.329  -1.497  0.00  0.00    +0.000 A 
ATOM     17  C   UNL     1       2.257  -0.096  -2.534  0.00  0.00    +0.000 A 
ATOM     18  C   UNL     1       2.766  -0.373  -3.813  0.00  0.00    +0.000 A 
ATOM     19  C   UNL     1       4.131  -0.216  -4.087  0.00  0.00    +0.000 A 
ATOM     20  C   UNL     1       4.978   0.178  -3.038  0.00  0.00    +0.000 A 
ATOM     21  C   UNL     1       4.469   0.453  -1.765  0.00  0.00    +0.000 A 
BRANCH  16  22
ATOM     22  C   UNL     1       2.567   0.674  -0.128  0.00  0.00    +0.000 C 
BRANCH  22  23
ATOM     23  N   UNL     1       1.913  -0.463   0.509  0.00  0.00    +0.000 NA
ATOM     24  H   UNL     1       1.652  -0.209   1.459  0.00  0.00    +0.000 HD
ATOM     25  H   UNL     1       2.585  -1.226   0.589  0.00  0.00    +0.000 HD
ENDBRANCH  22  23
ENDBRANCH  16  22
ENDBRANCH  15  19
ENDBRANCH   1  15
TORSDOF 5
