REMARK  Name = 
REMARK  6 active torsions:
REMARK  status: ('A' for Active; 'I' for Inactive)
REMARK    1  A    between atoms: C_2  and  C_20
REMARK    2  A    between atoms: N_3  and  C_4
REMARK    3  A    between atoms: C_4  and  C_5
REMARK    4  A    between atoms: C_8  and  C_9
REMARK    5  A    between atoms: C_9  and  N_10
REMARK    6  A    between atoms: C_11  and  C_13
REMARK                            x       y       z     vdW  Elec       q    Type
REMARK                         _______ _______ _______ _____ _____    ______ ____
ROOT
ATOM      1  C   UNL     1       2.356  -1.646  -1.729  0.00  0.00    +0.000 C 
ENDROOT
BRANCH   1   2
ATOM      2  C   UNL     1       3.328  -2.463  -2.542  0.00  0.00    +0.000 A 
ATOM      3  C   UNL     1       4.384  -1.845  -3.226  0.00  0.00    +0.000 A 
ATOM      4  C   UNL     1       5.268  -2.600  -4.005  0.00  0.00    +0.000 A 
ATOM      5  C   UNL     1       5.100  -3.985  -4.134  0.00  0.00    +0.000 A 
ATOM      6  C   UNL     1       4.037  -4.599  -3.460  0.00  0.00    +0.000 A 
ATOM      7  C   UNL     1       3.155  -3.846  -2.680  0.00  0.00    +0.000 A 
BRANCH   5   8
ATOM      8  C   UNL     1       6.020  -4.802  -4.999  0.00  0.00    +0.000 C 
BRANCH   8   9
ATOM      9  N   UNL     1       7.152  -5.336  -4.271  0.00  0.00    +0.000 N 
ATOM     10  C   UNL     1       8.080  -6.095  -4.950  0.00  0.00    +0.000 C 
ATOM     11  O   UNL     1       7.974  -6.305  -6.158  0.00  0.00    +0.000 OA
ATOM     12  H   UNL     1       7.130  -5.319  -3.260  0.00  0.00    +0.000 HD
BRANCH  10  13
ATOM     13  C   UNL     1       9.292  -6.559  -4.146  0.00  0.00    +0.000 C 
ATOM     14  C   UNL     1      10.207  -7.432  -4.987  0.00  0.00    +0.000 C 
ATOM     15  C   UNL     1       9.541  -8.789  -4.870  0.00  0.00    +0.000 C 
ATOM     16  O   UNL     1       8.954  -8.839  -3.561  0.00  0.00    +0.000 OA
ATOM     17  C   UNL     1       8.955  -7.510  -3.015  0.00  0.00    +0.000 C 
ENDBRANCH  10  13
ENDBRANCH   8   9
ENDBRANCH   5   8
ENDBRANCH   1   2
BRANCH   1  20
ATOM     18  O   UNL     1       0.108  -0.251  -0.823  0.00  0.00    +0.000 OA
ATOM     19  C   UNL     1       0.204  -0.502  -2.019  0.00  0.00    +0.000 C 
ATOM     20  N   UNL     1       1.231  -1.246  -2.536  0.00  0.00    +0.000 N 
ATOM     21  H   UNL     1       1.381  -1.250  -3.539  0.00  0.00    +0.000 HD
BRANCH  19  22
ATOM     22  C   UNL     1      -0.815  -0.059  -2.984  0.00  0.00    +0.000 A 
ATOM     23  C   UNL     1      -2.107   0.204  -2.560  0.00  0.00    +0.000 A 
ATOM     24  S   UNL     1      -3.155   0.668  -3.828  0.00  0.00    +0.000 S 
ATOM     25  C   UNL     1      -1.900   0.578  -4.975  0.00  0.00    +0.000 A 
ATOM     26  N   UNL     1      -2.120   0.877  -6.285  0.00  0.00    +0.000 NA
ATOM     27  C   UNL     1      -1.071   0.802  -7.034  0.00  0.00    +0.000 A 
ATOM     28  N   UNL     1       0.178   0.452  -6.595  0.00  0.00    +0.000 N 
ATOM     29  C   UNL     1       0.441   0.110  -5.291  0.00  0.00    +0.000 A 
ATOM     30  O   UNL     1       1.559  -0.250  -4.943  0.00  0.00    +0.000 OA
ATOM     31  C   UNL     1      -0.705   0.187  -4.401  0.00  0.00    +0.000 A 
ATOM     32  H   UNL     1       0.958   0.400  -7.234  0.00  0.00    +0.000 HD
ENDBRANCH  19  22
ENDBRANCH   1  20
TORSDOF 6
