REMARK  Name = 
REMARK  5 active torsions:
REMARK  status: ('A' for Active; 'I' for Inactive)
REMARK    1  A    between atoms: C_2  and  C_17
REMARK    2  A    between atoms: N_3  and  C_4
REMARK    3  A    between atoms: C_4  and  C_5
REMARK    4  A    between atoms: C_8  and  C_9
REMARK    5  A    between atoms: C_9  and  N_10
REMARK                            x       y       z     vdW  Elec       q    Type
REMARK                         _______ _______ _______ _____ _____    ______ ____
ROOT
ATOM      1  O   UNL     1       0.558   0.915  -3.038  0.00  0.00    +0.000 OA
ATOM      2  C   UNL     1      -0.012  -0.162  -2.880  0.00  0.00    +0.000 C 
ATOM      3  N   UNL     1       0.607  -1.251  -2.326  0.00  0.00    +0.000 N 
ATOM      4  H   UNL     1       0.154  -2.155  -2.369  0.00  0.00    +0.000 HD
ENDROOT
BRANCH   2   5
ATOM      5  C   UNL     1      -1.422  -0.341  -3.246  0.00  0.00    +0.000 A 
ATOM      6  C   UNL     1      -2.245   0.770  -3.377  0.00  0.00    +0.000 A 
ATOM      7  S   UNL     1      -3.851   0.381  -3.798  0.00  0.00    +0.000 S 
ATOM      8  C   UNL     1      -3.494  -1.281  -3.860  0.00  0.00    +0.000 A 
ATOM      9  N   UNL     1      -4.446  -2.192  -4.204  0.00  0.00    +0.000 NA
ATOM     10  C   UNL     1      -4.025  -3.411  -4.254  0.00  0.00    +0.000 A 
ATOM     11  N   UNL     1      -2.744  -3.808  -3.975  0.00  0.00    +0.000 N 
ATOM     12  C   UNL     1      -1.772  -2.934  -3.546  0.00  0.00    +0.000 A 
ATOM     13  O   UNL     1      -0.679  -3.349  -3.169  0.00  0.00    +0.000 OA
ATOM     14  C   UNL     1      -2.174  -1.542  -3.530  0.00  0.00    +0.000 A 
ATOM     15  H   UNL     1      -2.486  -4.783  -3.997  0.00  0.00    +0.000 HD
ENDBRANCH   2   5
BRANCH   3  16
ATOM     16  C   UNL     1       2.012  -1.274  -2.024  0.00  0.00    +0.000 C 
BRANCH  16  17
ATOM     17  C   UNL     1       2.818  -1.790  -3.186  0.00  0.00    +0.000 A 
ATOM     18  C   UNL     1       3.261  -0.902  -4.173  0.00  0.00    +0.000 A 
ATOM     19  C   UNL     1       4.106  -1.340  -5.191  0.00  0.00    +0.000 A 
ATOM     20  C   UNL     1       4.540  -2.670  -5.238  0.00  0.00    +0.000 A 
ATOM     21  C   UNL     1       4.004  -3.582  -4.316  0.00  0.00    +0.000 A 
ATOM     22  C   UNL     1       3.146  -3.147  -3.301  0.00  0.00    +0.000 A 
BRANCH  20  23
ATOM     23  C   UNL     1       5.603  -3.095  -6.230  0.00  0.00    +0.000 C 
BRANCH  23  24
ATOM     24  N   UNL     1       7.012  -2.910  -5.841  0.00  0.00    +0.000 NA
ATOM     25  C   UNL     1       7.439  -3.651  -4.654  0.00  0.00    +0.000 C 
ATOM     26  C   UNL     1       7.319  -2.674  -3.498  0.00  0.00    +0.000 C 
ATOM     27  C   UNL     1       7.639  -1.330  -4.128  0.00  0.00    +0.000 C 
ATOM     28  C   UNL     1       7.432  -1.522  -5.628  0.00  0.00    +0.000 C 
ENDBRANCH  23  24
ENDBRANCH  20  23
ENDBRANCH  16  17
ENDBRANCH   3  16
TORSDOF 5
