REMARK  Name = 
REMARK  9 active torsions:
REMARK  status: ('A' for Active; 'I' for Inactive)
REMARK    1  A    between atoms: C_1  and  C_2
REMARK    2  A    between atoms: C_2  and  C_3
REMARK    3  A    between atoms: C_5  and  N_6
REMARK    4  A    between atoms: N_6  and  C_7
REMARK    5  A    between atoms: C_11  and  C_12
REMARK    6  A    between atoms: C_12  and  C_13
REMARK    7  A    between atoms: C_13  and  N_14
REMARK    8  A    between atoms: N_14  and  C_15
REMARK    9  A    between atoms: C_18  and  C_19
REMARK                            x       y       z     vdW  Elec       q    Type
REMARK                         _______ _______ _______ _____ _____    ______ ____
ROOT
ATOM      1  C   UNL     1      -7.695   0.841   1.066  0.00  0.00    +0.000 C 
ENDROOT
BRANCH   1   6
ATOM      2  C   UNL     1      -3.866   0.731   0.981  0.00  0.00    +0.000 A 
ATOM      3  C   UNL     1      -3.562   0.685   2.343  0.00  0.00    +0.000 A 
ATOM      4  C   UNL     1      -4.574   0.617   3.296  0.00  0.00    +0.000 A 
ATOM      5  C   UNL     1      -5.906   0.637   2.893  0.00  0.00    +0.000 A 
ATOM      6  C   UNL     1      -6.254   0.723   1.537  0.00  0.00    +0.000 A 
ATOM      7  C   UNL     1      -5.215   0.745   0.588  0.00  0.00    +0.000 A 
BRANCH   2   8
ATOM      8  N   UNL     1      -2.864   0.877   0.000  0.00  0.00    +0.000 N 
ATOM      9  H   UNL     1      -2.968   0.210  -0.760  0.00  0.00    +0.000 HD
BRANCH   8  14
ATOM     10  C   UNL     1       1.068   2.881   0.330  0.00  0.00    +0.000 C 
ATOM     11  C   UNL     1      -0.303   3.016  -0.332  0.00  0.00    +0.000 C 
ATOM     12  C   UNL     1      -0.399   4.285  -1.173  0.00  0.00    +0.000 C 
ATOM     13  C   UNL     1      -1.493   2.825   0.648  0.00  0.00    +0.000 C 
ATOM     14  C   UNL     1      -1.528   1.328   0.242  0.00  0.00    +0.000 C 
ATOM     15  C   UNL     1      -0.802   1.731  -1.061  0.00  0.00    +0.000 C 
ENDBRANCH   8  14
ENDBRANCH   2   8
ENDBRANCH   1   6
BRANCH   1  16
ATOM     16  C   UNL     1      -8.728   0.841   2.201  0.00  0.00    +0.000 C 
BRANCH  16  17
ATOM     17  N   UNL     1     -10.105   0.984   1.720  0.00  0.00    +0.000 N 
ATOM     18  H   UNL     1     -10.309   0.427   0.894  0.00  0.00    +0.000 HD
BRANCH  17  19
ATOM     19  C   UNL     1     -11.109   0.915   2.703  0.00  0.00    +0.000 A 
ATOM     20  C   UNL     1     -10.935   1.439   3.994  0.00  0.00    +0.000 A 
ATOM     21  C   UNL     1     -11.974   1.449   4.931  0.00  0.00    +0.000 A 
ATOM     22  C   UNL     1     -13.229   0.943   4.593  0.00  0.00    +0.000 A 
ATOM     23  C   UNL     1     -13.415   0.428   3.311  0.00  0.00    +0.000 A 
ATOM     24  F   UNL     1     -14.603  -0.076   2.933  0.00  0.00    +0.000 F 
ATOM     25  C   UNL     1     -12.376   0.423   2.373  0.00  0.00    +0.000 A 
BRANCH  22  26
ATOM     26  C   UNL     1     -14.304   0.998   5.623  0.00  0.00    +0.000 C 
ATOM     27  N   UNL     1     -15.533   0.513   5.298  0.00  0.00    +0.000 N 
ATOM     28  O   UNL     1     -14.092   1.455   6.737  0.00  0.00    +0.000 OA
ATOM     29  H   UNL     1     -15.759   0.131   4.385  0.00  0.00    +0.000 HD
ATOM     30  H   UNL     1     -16.260   0.558   5.999  0.00  0.00    +0.000 HD
ENDBRANCH  22  26
ENDBRANCH  17  19
ENDBRANCH  16  17
ENDBRANCH   1  16
TORSDOF 7
