REMARK  Name = 
REMARK  8 active torsions:
REMARK  status: ('A' for Active; 'I' for Inactive)
REMARK    1  A    between atoms: C_1  and  N_2
REMARK    2  A    between atoms: N_2  and  C_3
REMARK    3  A    between atoms: C_3  and  C_4
REMARK    4  A    between atoms: C_4  and  N_5
REMARK    5  A    between atoms: C_4  and  C_18
REMARK    6  A    between atoms: C_6  and  C_8
REMARK    7  A    between atoms: C_21  and  C_22
REMARK    8  A    between atoms: C_22  and  C_23
REMARK                            x       y       z     vdW  Elec       q    Type
REMARK                         _______ _______ _______ _____ _____    ______ ____
ROOT
ATOM      1  C   UNL     1       4.450  -0.087  -1.408  0.00  0.00    +0.000 C 
ENDROOT
BRANCH   1   2
ATOM      2  C   UNL     1       5.040  -0.014  -2.810  0.00  0.00    +0.000 A 
ATOM      3  C   UNL     1       5.371   1.240  -3.343  0.00  0.00    +0.000 A 
ATOM      4  C   UNL     1       5.878   1.356  -4.638  0.00  0.00    +0.000 A 
ATOM      5  C   UNL     1       6.086   0.218  -5.429  0.00  0.00    +0.000 A 
ATOM      6  C   UNL     1       5.759  -1.035  -4.902  0.00  0.00    +0.000 A 
ATOM      7  C   UNL     1       5.224  -1.148  -3.614  0.00  0.00    +0.000 A 
BRANCH   5   8
ATOM      8  C   UNL     1       6.640   0.342  -6.830  0.00  0.00    +0.000 C 
BRANCH   8   9
ATOM      9  C   UNL     1       8.148   0.314  -6.951  0.00  0.00    +0.000 A 
ATOM     10  C   UNL     1       8.940   1.276  -6.323  0.00  0.00    +0.000 A 
ATOM     11  C   UNL     1      10.311   1.292  -6.566  0.00  0.00    +0.000 A 
ATOM     12  C   UNL     1      10.860   0.352  -7.425  0.00  0.00    +0.000 A 
ATOM     13  C   UNL     1      10.013  -0.581  -7.996  0.00  0.00    +0.000 A 
ATOM     14  N   UNL     1       8.678  -0.619  -7.783  0.00  0.00    +0.000 NA
ENDBRANCH   8   9
ENDBRANCH   5   8
ENDBRANCH   1   2
BRANCH   1  15
ATOM     15  N   UNL     1       4.898  -1.275  -0.685  0.00  0.00    +0.000 N 
ATOM     16  C   UNL     1       6.026  -1.262   0.093  0.00  0.00    +0.000 C 
ATOM     17  O   UNL     1       6.680  -0.242   0.293  0.00  0.00    +0.000 OA
ATOM     18  H   UNL     1       4.491  -2.161  -0.959  0.00  0.00    +0.000 HD
BRANCH  16  19
ATOM     19  C   UNL     1       6.401  -2.531   0.733  0.00  0.00    +0.000 A 
ATOM     20  C   UNL     1       7.198  -2.507   1.870  0.00  0.00    +0.000 A 
ATOM     21  S   UNL     1       7.581  -4.053   2.474  0.00  0.00    +0.000 S 
ATOM     22  C   UNL     1       6.728  -4.814   1.214  0.00  0.00    +0.000 A 
ATOM     23  N   UNL     1       6.709  -6.170   1.105  0.00  0.00    +0.000 NA
ATOM     24  C   UNL     1       6.061  -6.613   0.082  0.00  0.00    +0.000 A 
ATOM     25  N   UNL     1       5.406  -5.824  -0.830  0.00  0.00    +0.000 N 
ATOM     26  C   UNL     1       5.323  -4.457  -0.705  0.00  0.00    +0.000 A 
ATOM     27  O   UNL     1       4.596  -3.794  -1.439  0.00  0.00    +0.000 OA
ATOM     28  C   UNL     1       6.109  -3.901   0.380  0.00  0.00    +0.000 A 
ATOM     29  H   UNL     1       4.877  -6.240  -1.582  0.00  0.00    +0.000 HD
ENDBRANCH  16  19
ENDBRANCH   1  15
BRANCH   1  30
ATOM     30  C   UNL     1       2.899  -0.013  -1.469  0.00  0.00    +0.000 C 
BRANCH  30  32
ATOM     31  C   UNL     1       0.843   0.114  -0.201  0.00  0.00    +0.000 C 
ATOM     32  N   UNL     1       2.292   0.014  -0.126  0.00  0.00    +0.000 NA
ATOM     33  H   UNL     1       2.566  -0.830   0.378  0.00  0.00    +0.000 HD
ENDBRANCH  30  32
ENDBRANCH   1  30
TORSDOF 7
