REMARK  Name = 
REMARK  4 active torsions:
REMARK  status: ('A' for Active; 'I' for Inactive)
REMARK    1  A    between atoms: C_2  and  C_4
REMARK    2  A    between atoms: N_8  and  C_9
REMARK    3  A    between atoms: C_9  and  C_10
REMARK    4  A    between atoms: C_15  and  C_16
REMARK                            x       y       z     vdW  Elec       q    Type
REMARK                         _______ _______ _______ _____ _____    ______ ____
ROOT
ATOM      1  C   UNL     1       5.095   0.411   5.911  0.00  0.00    +0.000 C 
ATOM      2  C   UNL     1       5.058  -1.041   6.385  0.00  0.00    +0.000 C 
ATOM      3  C   UNL     1       3.840  -0.189   6.512  0.00  0.00    +0.000 C 
ENDROOT
BRANCH   1   8
ATOM      4  C   UNL     1       3.449   3.276   1.898  0.00  0.00    +0.000 A 
ATOM      5  C   UNL     1       2.692   2.732   2.932  0.00  0.00    +0.000 A 
ATOM      6  C   UNL     1       3.297   1.850   3.832  0.00  0.00    +0.000 A 
ATOM      7  C   UNL     1       4.638   1.521   3.675  0.00  0.00    +0.000 A 
ATOM      8  N   UNL     1       5.291   0.568   4.460  0.00  0.00    +0.000 N 
ATOM      9  N   UNL     1       5.381   2.041   2.674  0.00  0.00    +0.000 NA
ATOM     10  C   UNL     1       4.778   2.897   1.809  0.00  0.00    +0.000 A 
ATOM     11  H   UNL     1       6.261   0.587   4.147  0.00  0.00    +0.000 HD
BRANCH   4  13
ATOM     12  N   UNL     1       1.791   4.920   1.223  0.00  0.00    +0.000 N 
ATOM     13  C   UNL     1       2.894   4.190   0.878  0.00  0.00    +0.000 C 
ATOM     14  O   UNL     1       3.413   4.310  -0.223  0.00  0.00    +0.000 OA
ATOM     15  H   UNL     1       1.482   5.610   0.549  0.00  0.00    +0.000 HD
ATOM     16  H   UNL     1       1.486   5.034   2.179  0.00  0.00    +0.000 HD
ENDBRANCH   4  13
ENDBRANCH   1   8
BRANCH   1  17
ATOM     17  C   UNL     1       5.904   1.412   6.738  0.00  0.00    +0.000 A 
ATOM     18  C   UNL     1       7.207   1.108   7.166  0.00  0.00    +0.000 A 
ATOM     19  C   UNL     1       7.979   2.042   7.851  0.00  0.00    +0.000 A 
ATOM     20  C   UNL     1       7.464   3.306   8.114  0.00  0.00    +0.000 A 
ATOM     21  F   UNL     1       8.254   4.172   8.766  0.00  0.00    +0.000 F 
ATOM     22  C   UNL     1       6.172   3.681   7.708  0.00  0.00    +0.000 A 
ATOM     23  C   UNL     1       5.409   2.703   7.032  0.00  0.00    +0.000 A 
BRANCH  22  24
ATOM     24  C   UNL     1       5.645   5.047   7.952  0.00  0.00    +0.000 A 
ATOM     25  C   UNL     1       6.469   6.177   7.848  0.00  0.00    +0.000 A 
ATOM     26  C   UNL     1       5.947   7.437   8.099  0.00  0.00    +0.000 A 
ATOM     27  N   UNL     1       4.660   7.662   8.428  0.00  0.00    +0.000 NA
ATOM     28  C   UNL     1       3.869   6.576   8.520  0.00  0.00    +0.000 A 
ATOM     29  C   UNL     1       4.306   5.275   8.298  0.00  0.00    +0.000 A 
ENDBRANCH  22  24
ENDBRANCH   1  17
TORSDOF 4
