REMARK  Name = 
REMARK  10 active torsions:
REMARK  status: ('A' for Active; 'I' for Inactive)
REMARK    1  A    between atoms: C_1  and  C_2
REMARK    2  A    between atoms: C_2  and  C_3
REMARK    3  A    between atoms: C_3  and  N_4
REMARK    4  A    between atoms: C_3  and  C_22
REMARK    5  A    between atoms: N_4  and  C_5
REMARK    6  A    between atoms: C_5  and  C_6
REMARK    7  A    between atoms: C_9  and  C_10
REMARK    8  A    between atoms: C_10  and  O_11
REMARK    9  A    between atoms: O_11  and  C_12
REMARK   10  A    between atoms: C_12  and  C_13
REMARK                            x       y       z     vdW  Elec       q    Type
REMARK                         _______ _______ _______ _____ _____    ______ ____
ROOT
ATOM      1  C   UNL     1       1.027  -2.368   1.053  0.00  0.00    +0.000 C 
ENDROOT
BRANCH   1   2
ATOM      2  C   UNL     1       0.543  -3.789   0.893  0.00  0.00    +0.000 A 
ATOM      3  C   UNL     1       1.424  -4.876   0.892  0.00  0.00    +0.000 A 
ATOM      4  C   UNL     1       0.934  -6.179   0.759  0.00  0.00    +0.000 A 
ATOM      5  C   UNL     1      -0.442  -6.419   0.631  0.00  0.00    +0.000 A 
ATOM      6  C   UNL     1      -1.323  -5.334   0.650  0.00  0.00    +0.000 A 
ATOM      7  C   UNL     1      -0.835  -4.035   0.777  0.00  0.00    +0.000 A 
BRANCH   5   8
ATOM      8  C   UNL     1      -0.966  -7.816   0.446  0.00  0.00    +0.000 C 
BRANCH   8   9
ATOM      9  O   UNL     1      -0.581  -8.607   1.564  0.00  0.00    +0.000 OA
BRANCH   9  10
ATOM     10  C   UNL     1      -1.072  -9.938   1.456  0.00  0.00    +0.000 C 
BRANCH  10  11
ATOM     11  C   UNL     1      -0.652 -10.685   2.687  0.00  0.00    +0.000 A 
ATOM     12  C   UNL     1      -1.054 -10.258   3.956  0.00  0.00    +0.000 A 
ATOM     13  C   UNL     1      -0.659 -10.956   5.094  0.00  0.00    +0.000 A 
ATOM     14  C   UNL     1       0.139 -12.085   4.957  0.00  0.00    +0.000 A 
ATOM     15  N   UNL     1       0.553 -12.531   3.711  0.00  0.00    +0.000 N 
ATOM     16  O   UNL     1       1.277 -13.565   3.600  0.00  0.00    +0.000 OA
ATOM     17  C   UNL     1       0.151 -11.827   2.589  0.00  0.00    +0.000 A 
ENDBRANCH  10  11
ENDBRANCH   9  10
ENDBRANCH   8   9
ENDBRANCH   5   8
ENDBRANCH   1   2
BRANCH   1  18
ATOM     18  N   UNL     1       1.780  -1.895  -0.105  0.00  0.00    +0.000 NA
ATOM     19  H   UNL     1       2.586  -2.512  -0.213  0.00  0.00    +0.000 HD
BRANCH  18  20
ATOM     20  C   UNL     1       2.287  -0.517   0.025  0.00  0.00    +0.000 C 
BRANCH  20  21
ATOM     21  C   UNL     1       3.238  -0.342  -1.166  0.00  0.00    +0.000 A 
ATOM     22  C   UNL     1       2.823  -0.372  -2.491  0.00  0.00    +0.000 A 
ATOM     23  S   UNL     1       4.104  -0.264  -3.612  0.00  0.00    +0.000 S 
ATOM     24  C   UNL     1       5.261  -0.171  -2.367  0.00  0.00    +0.000 A 
ATOM     25  N   UNL     1       6.587  -0.123  -2.652  0.00  0.00    +0.000 NA
ATOM     26  C   UNL     1       7.351  -0.066  -1.603  0.00  0.00    +0.000 A 
ATOM     27  N   UNL     1       6.900  -0.019  -0.311  0.00  0.00    +0.000 N 
ATOM     28  C   UNL     1       5.563  -0.009   0.023  0.00  0.00    +0.000 A 
ATOM     29  O   UNL     1       5.191   0.135   1.183  0.00  0.00    +0.000 OA
ATOM     30  C   UNL     1       4.667  -0.161  -1.116  0.00  0.00    +0.000 A 
ATOM     31  H   UNL     1       7.550   0.078   0.456  0.00  0.00    +0.000 HD
ENDBRANCH  20  21
BRANCH  20  33
ATOM     32  C   UNL     1       0.228   0.678   1.156  0.00  0.00    +0.000 C 
ATOM     33  C   UNL     1       1.222   0.617   0.004  0.00  0.00    +0.000 C 
ENDBRANCH  20  33
ENDBRANCH  18  20
ENDBRANCH   1  18
TORSDOF 9
