REMARK  Name = 
REMARK  5 active torsions:
REMARK  status: ('A' for Active; 'I' for Inactive)
REMARK    1  A    between atoms: N_1  and  C_2
REMARK    2  A    between atoms: C_2  and  C_3
REMARK    3  A    between atoms: C_3  and  C_4
REMARK    4  A    between atoms: C_7  and  C_8
REMARK    5  A    between atoms: C_8  and  N_9
REMARK                            x       y       z     vdW  Elec       q    Type
REMARK                         _______ _______ _______ _____ _____    ______ ____
ROOT
ATOM      1  C   UNL     1       4.531   1.485  -0.291  0.00  0.00    +0.000 A 
ATOM      2  C   UNL     1       5.167   1.806   0.905  0.00  0.00    +0.000 A 
ATOM      3  C   UNL     1       6.560   1.821   0.946  0.00  0.00    +0.000 A 
ATOM      4  C   UNL     1       7.292   1.500  -0.199  0.00  0.00    +0.000 A 
ATOM      5  C   UNL     1       6.570   1.188  -1.346  0.00  0.00    +0.000 A 
ATOM      6  N   UNL     1       5.218   1.181  -1.417  0.00  0.00    +0.000 NA
ENDROOT
BRANCH   1   7
ATOM      7  C   UNL     1       3.026   1.427  -0.363  0.00  0.00    +0.000 C 
BRANCH   7   8
ATOM      8  C   UNL     1       2.512   0.024  -0.035  0.00  0.00    +0.000 C 
BRANCH   8   9
ATOM      9  N   UNL     1       1.049  -0.028  -0.088  0.00  0.00    +0.000 NA
ATOM     10  H   UNL     1       0.746  -0.989   0.073  0.00  0.00    +0.000 HD
ATOM     11  H   UNL     1       0.741   0.205  -1.033  0.00  0.00    +0.000 HD
ENDBRANCH   8   9
ENDBRANCH   7   8
ENDBRANCH   1   7
BRANCH   4  12
ATOM     12  C   UNL     1       8.793   1.483  -0.214  0.00  0.00    +0.000 C 
BRANCH  12  13
ATOM     13  N   UNL     1       9.345   0.175   0.119  0.00  0.00    +0.000 N 
ATOM     14  N   UNL     1       9.583  -0.713  -0.876  0.00  0.00    +0.000 NA
ATOM     15  C   UNL     1      10.247  -1.697  -0.266  0.00  0.00    +0.000 A 
ATOM     16  C   UNL     1      10.457  -1.450   1.108  0.00  0.00    +0.000 A 
ATOM     17  C   UNL     1      11.108  -2.112   2.164  0.00  0.00    +0.000 A 
ATOM     18  C   UNL     1      11.118  -1.518   3.430  0.00  0.00    +0.000 A 
ATOM     19  C   UNL     1      10.480  -0.297   3.651  0.00  0.00    +0.000 A 
ATOM     20  C   UNL     1       9.823   0.373   2.612  0.00  0.00    +0.000 A 
ATOM     21  C   UNL     1       9.837  -0.225   1.343  0.00  0.00    +0.000 A 
ENDBRANCH  12  13
ENDBRANCH   4  12
TORSDOF 5
