REMARK  Name = 
REMARK  4 active torsions:
REMARK  status: ('A' for Active; 'I' for Inactive)
REMARK    1  A    between atoms: C_2  and  C_4
REMARK    2  A    between atoms: N_8  and  C_9
REMARK    3  A    between atoms: C_9  and  C_10
REMARK    4  A    between atoms: C_15  and  C_16
REMARK                            x       y       z     vdW  Elec       q    Type
REMARK                         _______ _______ _______ _____ _____    ______ ____
ROOT
ATOM      1  C   UNL     1       6.514  -1.160   6.659  0.00  0.00    +0.000 A 
ATOM      2  C   UNL     1       6.983  -0.311   7.660  0.00  0.00    +0.000 A 
ATOM      3  C   UNL     1       7.352  -0.847   8.886  0.00  0.00    +0.000 A 
ATOM      4  F   UNL     1       7.804  -0.030   9.847  0.00  0.00    +0.000 F 
ATOM      5  C   UNL     1       7.257  -2.214   9.143  0.00  0.00    +0.000 A 
ATOM      6  C   UNL     1       6.803  -3.103   8.156  0.00  0.00    +0.000 A 
ATOM      7  C   UNL     1       6.456  -2.545   6.911  0.00  0.00    +0.000 A 
ENDROOT
BRANCH   6   8
ATOM      8  C   UNL     1       6.677  -4.559   8.404  0.00  0.00    +0.000 A 
ATOM      9  C   UNL     1       5.690  -5.327   7.773  0.00  0.00    +0.000 A 
ATOM     10  C   UNL     1       5.619  -6.687   8.028  0.00  0.00    +0.000 A 
ATOM     11  N   UNL     1       6.443  -7.337   8.872  0.00  0.00    +0.000 NA
ATOM     12  C   UNL     1       7.382  -6.605   9.488  0.00  0.00    +0.000 A 
ATOM     13  N   UNL     1       8.247  -7.293  10.335  0.00  0.00    +0.000 N 
ATOM     14  C   UNL     1       7.539  -5.240   9.277  0.00  0.00    +0.000 A 
ATOM     15  H   UNL     1       7.910  -8.252  10.379  0.00  0.00    +0.000 HD
ATOM     16  H   UNL     1       8.292  -6.866  11.253  0.00  0.00    +0.000 HD
ENDBRANCH   6   8
BRANCH   1  17
ATOM     17  C   UNL     1       6.099  -0.633   5.306  0.00  0.00    +0.000 C 
BRANCH  17  22
ATOM     18  C   UNL     1       3.556  -1.420   1.156  0.00  0.00    +0.000 A 
ATOM     19  C   UNL     1       4.829  -1.714   1.574  0.00  0.00    +0.000 A 
ATOM     20  N   UNL     1       5.243  -1.571   2.848  0.00  0.00    +0.000 NA
ATOM     21  C   UNL     1       4.356  -1.102   3.738  0.00  0.00    +0.000 A 
ATOM     22  N   UNL     1       4.715  -0.991   5.066  0.00  0.00    +0.000 N 
ATOM     23  N   UNL     1       3.099  -0.762   3.424  0.00  0.00    +0.000 NA
ATOM     24  C   UNL     1       2.723  -0.922   2.130  0.00  0.00    +0.000 A 
ATOM     25  H   UNL     1       4.028  -0.410   5.531  0.00  0.00    +0.000 HD
BRANCH  18  27
ATOM     26  N   UNL     1       3.735  -2.523  -0.993  0.00  0.00    +0.000 N 
ATOM     27  C   UNL     1       3.103  -1.580  -0.232  0.00  0.00    +0.000 C 
ATOM     28  O   UNL     1       2.181  -0.912  -0.675  0.00  0.00    +0.000 OA
ATOM     29  H   UNL     1       3.357  -2.677  -1.923  0.00  0.00    +0.000 HD
ATOM     30  H   UNL     1       4.320  -3.254  -0.614  0.00  0.00    +0.000 HD
ENDBRANCH  18  27
ENDBRANCH  17  22
ENDBRANCH   1  17
TORSDOF 4
