REMARK  Name = 
REMARK  5 active torsions:
REMARK  status: ('A' for Active; 'I' for Inactive)
REMARK    1  A    between atoms: C_1  and  C_2
REMARK    2  A    between atoms: C_2  and  O_3
REMARK    3  A    between atoms: C_2  and  C_13
REMARK    4  A    between atoms: O_3  and  C_4
REMARK    5  A    between atoms: C_7  and  C_8
REMARK                            x       y       z     vdW  Elec       q    Type
REMARK                         _______ _______ _______ _____ _____    ______ ____
ROOT
ATOM      1  C   UNL     1       2.468   2.398  -0.015  0.00  0.00    +0.000 A 
ATOM      2  C   UNL     1       2.131   3.513   0.737  0.00  0.00    +0.000 A 
ATOM      3  C   UNL     1       1.756   4.678   0.067  0.00  0.00    +0.000 A 
ATOM      4  C   UNL     1       1.779   4.716  -1.330  0.00  0.00    +0.000 A 
ATOM      5  C   UNL     1       2.185   3.560  -1.986  0.00  0.00    +0.000 A 
ATOM      6  N   UNL     1       2.520   2.397  -1.363  0.00  0.00    +0.000 NA
ENDROOT
BRANCH   4   7
ATOM      7  C   UNL     1       1.377   5.972  -2.017  0.00  0.00    +0.000 C 
ATOM      8  N   UNL     1       1.415   6.024  -3.383  0.00  0.00    +0.000 N 
ATOM      9  O   UNL     1       1.014   6.952  -1.384  0.00  0.00    +0.000 OA
ATOM     10  H   UNL     1       1.705   5.287  -4.002  0.00  0.00    +0.000 HD
ATOM     11  H   UNL     1       1.134   6.905  -3.802  0.00  0.00    +0.000 HD
ENDBRANCH   4   7
BRANCH   1  12
ATOM     12  O   UNL     1       2.767   1.246   0.684  0.00  0.00    +0.000 OA
BRANCH  12  14
ATOM     13  C   UNL     1       0.955  -0.124  -0.213  0.00  0.00    +0.000 C 
ATOM     14  C   UNL     1       2.470   0.015  -0.005  0.00  0.00    +0.000 C 
BRANCH  14  15
ATOM     15  C   UNL     1       3.012  -1.176   0.851  0.00  0.00    +0.000 C 
ATOM     16  C   UNL     1       2.361  -1.219   2.249  0.00  0.00    +0.000 C 
ATOM     17  C   UNL     1       2.981  -2.259   3.178  0.00  0.00    +0.000 C 
ATOM     18  C   UNL     1       4.490  -2.089   3.272  0.00  0.00    +0.000 C 
ATOM     19  C   UNL     1       5.124  -2.188   1.891  0.00  0.00    +0.000 C 
ATOM     20  C   UNL     1       4.552  -1.135   0.943  0.00  0.00    +0.000 C 
ENDBRANCH  14  15
ENDBRANCH  12  14
ENDBRANCH   1  12
TORSDOF 4
