REMARK  Name = 
REMARK  8 active torsions:
REMARK  status: ('A' for Active; 'I' for Inactive)
REMARK    1  A    between atoms: C_1  and  C_2
REMARK    2  A    between atoms: C_2  and  N_3
REMARK    3  A    between atoms: N_3  and  C_4
REMARK    4  A    between atoms: C_4  and  C_5
REMARK    5  A    between atoms: C_8  and  C_9
REMARK    6  A    between atoms: N_11  and  C_12
REMARK    7  A    between atoms: C_12  and  C_13
REMARK    8  A    between atoms: C_20  and  C_22
REMARK                            x       y       z     vdW  Elec       q    Type
REMARK                         _______ _______ _______ _____ _____    ______ ____
ROOT
ATOM      1  C   UNL     1       1.946  -0.263  -2.506  0.00  0.00    +0.000 C 
ENDROOT
BRANCH   1   2
ATOM      2  C   UNL     1       0.471  -0.206  -2.226  0.00  0.00    +0.000 A 
ATOM      3  C   UNL     1      -0.249   0.974  -2.449  0.00  0.00    +0.000 A 
ATOM      4  C   UNL     1      -1.638   0.950  -2.415  0.00  0.00    +0.000 A 
ATOM      5  C   UNL     1      -2.268  -0.258  -2.146  0.00  0.00    +0.000 A 
ATOM      6  N   UNL     1      -1.602  -1.412  -1.860  0.00  0.00    +0.000 NA
ATOM      7  C   UNL     1      -0.249  -1.352  -1.904  0.00  0.00    +0.000 A 
BRANCH   5   8
ATOM      8  C   UNL     1      -3.761  -0.335  -2.254  0.00  0.00    +0.000 C 
ATOM      9  O   UNL     1      -4.421   0.652  -2.563  0.00  0.00    +0.000 OA
ATOM     10  N   UNL     1      -4.303  -1.574  -2.016  0.00  0.00    +0.000 N 
ATOM     11  H   UNL     1      -3.678  -2.328  -1.748  0.00  0.00    +0.000 HD
BRANCH  10  12
ATOM     12  C   UNL     1      -5.718  -1.839  -2.121  0.00  0.00    +0.000 C 
BRANCH  12  13
ATOM     13  C   UNL     1      -6.237  -2.254  -0.789  0.00  0.00    +0.000 A 
ATOM     14  C   UNL     1      -6.707  -1.464   0.241  0.00  0.00    +0.000 A 
ATOM     15  N   UNL     1      -7.081  -2.335   1.225  0.00  0.00    +0.000 N 
ATOM     16  C   UNL     1      -6.829  -3.599   0.774  0.00  0.00    +0.000 A 
ATOM     17  N   UNL     1      -6.313  -3.586  -0.434  0.00  0.00    +0.000 NA
ATOM     18  H   UNL     1      -7.477  -2.094   2.123  0.00  0.00    +0.000 HD
ENDBRANCH  12  13
ENDBRANCH  10  12
ENDBRANCH   5   8
ENDBRANCH   1   2
BRANCH   1  19
ATOM     19  N   UNL     1       2.915  -0.129  -1.424  0.00  0.00    +0.000 N 
ATOM     20  C   UNL     1       4.275  -0.469  -1.587  0.00  0.00    +0.000 C 
ATOM     21  O   UNL     1       5.074  -0.367  -0.659  0.00  0.00    +0.000 OA
BRANCH  20  22
ATOM     22  C   UNL     1       4.747  -0.933  -2.901  0.00  0.00    +0.000 A 
ATOM     23  C   UNL     1       4.465  -0.380  -4.149  0.00  0.00    +0.000 A 
ATOM     24  N   UNL     1       5.142  -1.081  -5.117  0.00  0.00    +0.000 N 
ATOM     25  C   UNL     1       5.929  -2.012  -4.516  0.00  0.00    +0.000 A 
ATOM     26  N   UNL     1       6.788  -2.803  -5.198  0.00  0.00    +0.000 NA
ATOM     27  C   UNL     1       7.473  -3.583  -4.418  0.00  0.00    +0.000 A 
ATOM     28  N   UNL     1       7.344  -3.646  -3.047  0.00  0.00    +0.000 N 
ATOM     29  C   UNL     1       6.417  -2.905  -2.331  0.00  0.00    +0.000 A 
ATOM     30  O   UNL     1       6.222  -3.099  -1.138  0.00  0.00    +0.000 OA
ATOM     31  C   UNL     1       5.695  -1.967  -3.159  0.00  0.00    +0.000 A 
ATOM     32  H   UNL     1       5.114  -0.913  -6.113  0.00  0.00    +0.000 HD
ATOM     33  H   UNL     1       7.871  -4.314  -2.510  0.00  0.00    +0.000 HD
ENDBRANCH  20  22
BRANCH  19  35
ATOM     34  C   UNL     1       2.369  -0.568   0.954  0.00  0.00    +0.000 C 
ATOM     35  C   UNL     1       2.530   0.473  -0.144  0.00  0.00    +0.000 C 
ENDBRANCH  19  35
ENDBRANCH   1  19
TORSDOF 7
