REMARK  Name = 
REMARK  9 active torsions:
REMARK  status: ('A' for Active; 'I' for Inactive)
REMARK    1  A    between atoms: C_1  and  O_2
REMARK    2  A    between atoms: O_2  and  C_3
REMARK    3  A    between atoms: C_6  and  O_7
REMARK    4  A    between atoms: O_7  and  C_8
REMARK    5  A    between atoms: C_8  and  C_9
REMARK    6  A    between atoms: C_9  and  C_10
REMARK    7  A    between atoms: C_9  and  C_11
REMARK    8  A    between atoms: C_9  and  C_12
REMARK    9  A    between atoms: C_15  and  C_16
REMARK                            x       y       z     vdW  Elec       q    Type
REMARK                         _______ _______ _______ _____ _____    ______ ____
ROOT
ATOM      1  C   UNL     1       5.512  -3.941  -5.905  0.00  0.00    +0.000 C 
ATOM      2  C   UNL     1       7.009  -3.590  -5.730  0.00  0.00    +0.000 C 
ATOM      3  C   UNL     1       5.308  -5.341  -5.277  0.00  0.00    +0.000 C 
ENDROOT
BRANCH   1   4
ATOM      4  C   UNL     1       5.150  -3.881  -7.402  0.00  0.00    +0.000 A 
ATOM      5  C   UNL     1       4.651  -4.987  -8.110  0.00  0.00    +0.000 A 
ATOM      6  C   UNL     1       4.340  -4.897  -9.476  0.00  0.00    +0.000 A 
ATOM      7  C   UNL     1       4.516  -3.696 -10.172  0.00  0.00    +0.000 A 
ATOM      8  C   UNL     1       5.007  -2.595  -9.478  0.00  0.00    +0.000 A 
ATOM      9  F   UNL     1       5.196  -1.414 -10.088  0.00  0.00    +0.000 F 
ATOM     10  C   UNL     1       5.319  -2.682  -8.120  0.00  0.00    +0.000 A 
BRANCH   7  11
ATOM     11  C   UNL     1       4.174  -3.658 -11.617  0.00  0.00    +0.000 C 
ATOM     12  N   UNL     1       4.346  -2.483 -12.289  0.00  0.00    +0.000 N 
ATOM     13  O   UNL     1       3.749  -4.649 -12.198  0.00  0.00    +0.000 OA
ATOM     14  H   UNL     1       4.702  -1.641 -11.855  0.00  0.00    +0.000 HD
ATOM     15  H   UNL     1       4.119  -2.462 -13.275  0.00  0.00    +0.000 HD
ENDBRANCH   7  11
ENDBRANCH   1   4
BRANCH   1  16
ATOM     16  C   UNL     1       4.634  -2.920  -5.119  0.00  0.00    +0.000 C 
BRANCH  16  17
ATOM     17  O   UNL     1       4.976  -2.955  -3.732  0.00  0.00    +0.000 OA
BRANCH  17  21
ATOM     18  C   UNL     1       3.128  -0.607  -0.931  0.00  0.00    +0.000 A 
ATOM     19  C   UNL     1       2.701  -0.450  -2.240  0.00  0.00    +0.000 A 
ATOM     20  C   UNL     1       3.293  -1.227  -3.238  0.00  0.00    +0.000 A 
ATOM     21  C   UNL     1       4.292  -2.130  -2.892  0.00  0.00    +0.000 A 
ATOM     22  C   UNL     1       4.646  -2.211  -1.550  0.00  0.00    +0.000 A 
ATOM     23  N   UNL     1       4.090  -1.476  -0.561  0.00  0.00    +0.000 NA
BRANCH  18  25
ATOM     24  C   UNL     1       3.005  -0.066   1.336  0.00  0.00    +0.000 C 
ATOM     25  O   UNL     1       2.527   0.194   0.018  0.00  0.00    +0.000 OA
ENDBRANCH  18  25
ENDBRANCH  17  21
ENDBRANCH  16  17
ENDBRANCH   1  16
TORSDOF 6
