REMARK  Name = 
REMARK  6 active torsions:
REMARK  status: ('A' for Active; 'I' for Inactive)
REMARK    1  A    between atoms: C_1  and  C_2
REMARK    2  A    between atoms: C_2  and  C_3
REMARK    3  A    between atoms: C_2  and  C_4
REMARK    4  A    between atoms: C_2  and  C_18
REMARK    5  A    between atoms: C_4  and  N_5
REMARK    6  A    between atoms: C_8  and  C_9
REMARK                            x       y       z     vdW  Elec       q    Type
REMARK                         _______ _______ _______ _____ _____    ______ ____
ROOT
ATOM      1  N   UNL     1       2.568  -1.184  -2.166  0.00  0.00    +0.000 N 
ATOM      2  C   UNL     1       3.648  -1.907  -2.697  0.00  0.00    +0.000 A 
ATOM      3  C   UNL     1       3.376  -3.069  -3.418  0.00  0.00    +0.000 A 
ATOM      4  C   UNL     1       4.418  -3.829  -3.974  0.00  0.00    +0.000 A 
ATOM      5  C   UNL     1       5.720  -3.368  -3.758  0.00  0.00    +0.000 A 
ATOM      6  C   UNL     1       5.914  -2.225  -3.007  0.00  0.00    +0.000 A 
ATOM      7  N   UNL     1       4.912  -1.504  -2.478  0.00  0.00    +0.000 NA
ATOM      8  H   UNL     1       1.882  -1.022  -2.898  0.00  0.00    +0.000 HD
ENDROOT
BRANCH   4   9
ATOM      9  C   UNL     1       4.164  -5.057  -4.759  0.00  0.00    +0.000 A 
ATOM     10  C   UNL     1       5.055  -6.141  -4.759  0.00  0.00    +0.000 A 
ATOM     11  C   UNL     1       4.806  -7.273  -5.533  0.00  0.00    +0.000 A 
ATOM     12  C   UNL     1       3.650  -7.307  -6.292  0.00  0.00    +0.000 A 
ATOM     13  N   UNL     1       2.754  -6.302  -6.323  0.00  0.00    +0.000 NA
ATOM     14  C   UNL     1       3.033  -5.212  -5.565  0.00  0.00    +0.000 A 
ENDBRANCH   4   9
BRANCH   1  15
ATOM     15  C   UNL     1       2.910   0.057  -1.463  0.00  0.00    +0.000 C 
BRANCH  15  17
ATOM     16  C   UNL     1       0.903  -0.027   0.066  0.00  0.00    +0.000 C 
ATOM     17  C   UNL     1       2.448   0.028   0.023  0.00  0.00    +0.000 C 
ATOM     18  C   UNL     1       2.969  -1.245   0.731  0.00  0.00    +0.000 C 
BRANCH  17  19
ATOM     19  C   UNL     1       2.960   1.308   0.801  0.00  0.00    +0.000 C 
ATOM     20  C   UNL     1       2.449   2.638   0.206  0.00  0.00    +0.000 C 
ATOM     21  C   UNL     1       3.027   3.847   0.932  0.00  0.00    +0.000 C 
ATOM     22  O   UNL     1       4.450   3.805   0.929  0.00  0.00    +0.000 OA
ATOM     23  C   UNL     1       4.944   2.667   1.630  0.00  0.00    +0.000 C 
ATOM     24  C   UNL     1       4.498   1.380   0.948  0.00  0.00    +0.000 C 
ENDBRANCH  17  19
ENDBRANCH  15  17
ENDBRANCH   1  15
TORSDOF 4
