REMARK  Name = 
REMARK  9 active torsions:
REMARK  status: ('A' for Active; 'I' for Inactive)
REMARK    1  A    between atoms: C_1  and  O_2
REMARK    2  A    between atoms: O_2  and  C_3
REMARK    3  A    between atoms: C_10  and  C_11
REMARK    4  A    between atoms: N_13  and  C_14
REMARK    5  A    between atoms: C_14  and  C_15
REMARK    6  A    between atoms: C_18  and  N_19
REMARK    7  A    between atoms: N_19  and  C_20
REMARK    8  A    between atoms: C_20  and  C_21
REMARK    9  A    between atoms: N_23  and  C_24
REMARK                            x       y       z     vdW  Elec       q    Type
REMARK                         _______ _______ _______ _____ _____    ______ ____
ROOT
ATOM      1  C   UNL     1       3.338  -3.255   0.449  0.00  0.00    +0.000 C 
ENDROOT
BRANCH   1   2
ATOM      2  C   UNL     1       2.349  -3.078   1.576  0.00  0.00    +0.000 A 
ATOM      3  C   UNL     1       1.641  -4.186   2.045  0.00  0.00    +0.000 A 
ATOM      4  C   UNL     1       0.771  -4.078   3.133  0.00  0.00    +0.000 A 
ATOM      5  C   UNL     1       0.525  -2.850   3.759  0.00  0.00    +0.000 A 
ATOM      6  C   UNL     1       1.201  -1.730   3.257  0.00  0.00    +0.000 A 
ATOM      7  C   UNL     1       2.112  -1.839   2.188  0.00  0.00    +0.000 A 
BRANCH   5   8
ATOM      8  N   UNL     1      -0.250  -2.715   4.915  0.00  0.00    +0.000 N 
ATOM      9  H   UNL     1      -0.892  -1.923   4.887  0.00  0.00    +0.000 HD
BRANCH   8  10
ATOM     10  C   UNL     1      -0.834  -3.909   5.533  0.00  0.00    +0.000 C 
BRANCH  10  11
ATOM     11  C   UNL     1      -1.619  -3.565   6.818  0.00  0.00    +0.000 C 
ATOM     12  C   UNL     1      -2.202  -4.849   7.458  0.00  0.00    +0.000 C 
ATOM     13  N   UNL     1      -3.275  -5.422   6.619  0.00  0.00    +0.000 NA
ATOM     14  C   UNL     1      -3.818  -6.645   7.201  0.00  0.00    +0.000 C 
ATOM     15  C   UNL     1      -4.328  -4.402   6.452  0.00  0.00    +0.000 C 
ATOM     16  C   UNL     1      -3.755  -3.118   5.831  0.00  0.00    +0.000 C 
ATOM     17  O   UNL     1      -2.661  -2.588   6.590  0.00  0.00    +0.000 OA
ENDBRANCH  10  11
ENDBRANCH   8  10
ENDBRANCH   5   8
ENDBRANCH   1   2
BRANCH   1  20
ATOM     18  C   UNL     1       3.180  -3.730  -1.978  0.00  0.00    +0.000 C 
ATOM     19  O   UNL     1       4.153  -4.486  -1.950  0.00  0.00    +0.000 OA
ATOM     20  N   UNL     1       2.703  -3.136  -0.843  0.00  0.00    +0.000 N 
ATOM     21  H   UNL     1       1.946  -2.471  -0.911  0.00  0.00    +0.000 HD
BRANCH  18  29
ATOM     22  C   UNL     1       0.484  -1.748  -2.779  0.00  0.00    +0.000 A 
ATOM     23  N   UNL     1      -0.455  -0.983  -3.362  0.00  0.00    +0.000 NA
ATOM     24  C   UNL     1      -0.569  -1.031  -4.691  0.00  0.00    +0.000 A 
ATOM     25  N   UNL     1       0.152  -1.774  -5.525  0.00  0.00    +0.000 NA
ATOM     26  C   UNL     1       1.090  -2.511  -4.907  0.00  0.00    +0.000 A 
ATOM     27  S   UNL     1       2.098  -3.530  -5.815  0.00  0.00    +0.000 S 
ATOM     28  C   UNL     1       2.941  -4.021  -4.421  0.00  0.00    +0.000 A 
ATOM     29  C   UNL     1       2.494  -3.421  -3.248  0.00  0.00    +0.000 A 
ATOM     30  C   UNL     1       1.358  -2.547  -3.542  0.00  0.00    +0.000 A 
BRANCH  22  32
ATOM     31  C   UNL     1      -0.599  -1.360  -0.745  0.00  0.00    +0.000 C 
ATOM     32  O   UNL     1       0.622  -1.675  -1.408  0.00  0.00    +0.000 OA
ENDBRANCH  22  32
ENDBRANCH  18  29
ENDBRANCH   1  20
TORSDOF 7
