REMARK  Name = 
REMARK  8 active torsions:
REMARK  status: ('A' for Active; 'I' for Inactive)
REMARK    1  A    between atoms: C_1  and  C_2
REMARK    2  A    between atoms: C_2  and  N_3
REMARK    3  A    between atoms: C_2  and  C_25
REMARK    4  A    between atoms: N_3  and  C_4
REMARK    5  A    between atoms: C_4  and  C_5
REMARK    6  A    between atoms: C_8  and  C_9
REMARK    7  A    between atoms: C_9  and  N_10
REMARK    8  A    between atoms: C_11  and  C_13
REMARK                            x       y       z     vdW  Elec       q    Type
REMARK                         _______ _______ _______ _____ _____    ______ ____
ROOT
ATOM      1  C   UNL     1      -0.917   1.079   0.980  0.00  0.00    +0.000 A 
ATOM      2  C   UNL     1      -1.686   0.158   0.254  0.00  0.00    +0.000 A 
ATOM      3  C   UNL     1      -3.074   0.301   0.160  0.00  0.00    +0.000 A 
ATOM      4  C   UNL     1      -3.720   1.374   0.786  0.00  0.00    +0.000 A 
ATOM      5  C   UNL     1      -2.956   2.275   1.539  0.00  0.00    +0.000 A 
ATOM      6  C   UNL     1      -1.569   2.133   1.631  0.00  0.00    +0.000 A 
ENDROOT
BRANCH   1   7
ATOM      7  C   UNL     1       0.576   0.888   1.131  0.00  0.00    +0.000 C 
BRANCH   7   8
ATOM      8  N   UNL     1       1.262   0.847  -0.162  0.00  0.00    +0.000 NA
ATOM      9  H   UNL     1       1.082   1.725  -0.651  0.00  0.00    +0.000 HD
BRANCH   8  11
ATOM     10  C   UNL     1       3.098  -0.623   0.691  0.00  0.00    +0.000 C 
ATOM     11  C   UNL     1       2.721   0.676  -0.041  0.00  0.00    +0.000 C 
BRANCH  11  12
ATOM     12  C   UNL     1       3.414   0.640  -1.403  0.00  0.00    +0.000 A 
ATOM     13  C   UNL     1       4.750   1.064  -1.519  0.00  0.00    +0.000 A 
ATOM     14  C   UNL     1       5.467   0.856  -2.701  0.00  0.00    +0.000 A 
ATOM     15  C   UNL     1       4.855   0.241  -3.790  0.00  0.00    +0.000 A 
ATOM     16  C   UNL     1       3.518  -0.139  -3.710  0.00  0.00    +0.000 A 
ATOM     17  C   UNL     1       2.804   0.055  -2.525  0.00  0.00    +0.000 A 
ENDBRANCH  11  12
ENDBRANCH   8  11
ENDBRANCH   7   8
ENDBRANCH   1   7
BRANCH   4  18
ATOM     18  C   UNL     1      -5.218   1.527   0.716  0.00  0.00    +0.000 C 
BRANCH  18  19
ATOM     19  N   UNL     1      -5.846   0.835   1.812  0.00  0.00    +0.000 N 
ATOM     20  C   UNL     1      -7.206   0.761   1.945  0.00  0.00    +0.000 C 
ATOM     21  O   UNL     1      -7.974   1.253   1.124  0.00  0.00    +0.000 OA
ATOM     22  H   UNL     1      -5.257   0.637   2.614  0.00  0.00    +0.000 HD
BRANCH  20  23
ATOM     23  C   UNL     1      -7.698  -0.005   3.099  0.00  0.00    +0.000 A 
ATOM     24  C   UNL     1      -8.968  -0.561   3.071  0.00  0.00    +0.000 A 
ATOM     25  S   UNL     1      -9.338  -1.490   4.453  0.00  0.00    +0.000 S 
ATOM     26  C   UNL     1      -7.834  -1.134   5.165  0.00  0.00    +0.000 A 
ATOM     27  N   UNL     1      -7.504  -1.622   6.392  0.00  0.00    +0.000 NA
ATOM     28  C   UNL     1      -6.344  -1.255   6.817  0.00  0.00    +0.000 A 
ATOM     29  N   UNL     1      -5.483  -0.443   6.134  0.00  0.00    +0.000 N 
ATOM     30  C   UNL     1      -5.764   0.064   4.884  0.00  0.00    +0.000 A 
ATOM     31  O   UNL     1      -4.960   0.776   4.293  0.00  0.00    +0.000 OA
ATOM     32  C   UNL     1      -7.056  -0.328   4.351  0.00  0.00    +0.000 A 
ATOM     33  H   UNL     1      -4.585  -0.189   6.520  0.00  0.00    +0.000 HD
ENDBRANCH  20  23
ENDBRANCH  18  19
ENDBRANCH   4  18
TORSDOF 7
