REMARK  Name = 
REMARK  7 active torsions:
REMARK  status: ('A' for Active; 'I' for Inactive)
REMARK    1  A    between atoms: C_1  and  O_2
REMARK    2  A    between atoms: O_2  and  C_3
REMARK    3  A    between atoms: N_9  and  C_10
REMARK    4  A    between atoms: C_10  and  C_11
REMARK    5  A    between atoms: C_14  and  C_15
REMARK    6  A    between atoms: C_15  and  C_16
REMARK    7  A    between atoms: C_16  and  N_17
REMARK                            x       y       z     vdW  Elec       q    Type
REMARK                         _______ _______ _______ _____ _____    ______ ____
ROOT
ATOM      1  C   UNL     1       6.988  -1.117  -3.044  0.00  0.00    +0.000 C 
ENDROOT
BRANCH   1   8
ATOM      2  C   UNL     1       4.003   0.738  -5.974  0.00  0.00    +0.000 A 
ATOM      3  C   UNL     1       3.793   2.095  -5.744  0.00  0.00    +0.000 A 
ATOM      4  C   UNL     1       4.389   2.731  -4.650  0.00  0.00    +0.000 A 
ATOM      5  C   UNL     1       5.219   1.996  -3.784  0.00  0.00    +0.000 A 
ATOM      6  C   UNL     1       5.951   2.337  -2.615  0.00  0.00    +0.000 A 
ATOM      7  C   UNL     1       6.617   1.209  -2.198  0.00  0.00    +0.000 A 
ATOM      8  N   UNL     1       6.324   0.187  -3.071  0.00  0.00    +0.000 N 
ATOM      9  C   UNL     1       5.433   0.635  -4.032  0.00  0.00    +0.000 A 
ATOM     10  C   UNL     1       4.806  -0.017  -5.107  0.00  0.00    +0.000 A 
BRANCH   2  12
ATOM     11  C   UNL     1       3.180   0.772  -8.189  0.00  0.00    +0.000 C 
ATOM     12  O   UNL     1       3.437   0.027  -7.002  0.00  0.00    +0.000 OA
ENDBRANCH   2  12
ENDBRANCH   1   8
BRANCH   1  13
ATOM     13  C   UNL     1       6.300  -2.087  -2.118  0.00  0.00    +0.000 A 
ATOM     14  C   UNL     1       5.345  -2.984  -2.613  0.00  0.00    +0.000 A 
ATOM     15  C   UNL     1       4.596  -3.776  -1.741  0.00  0.00    +0.000 A 
ATOM     16  C   UNL     1       4.781  -3.679  -0.356  0.00  0.00    +0.000 A 
ATOM     17  C   UNL     1       5.805  -2.861   0.134  0.00  0.00    +0.000 A 
ATOM     18  C   UNL     1       6.556  -2.069  -0.739  0.00  0.00    +0.000 A 
BRANCH  16  19
ATOM     19  C   UNL     1       3.822  -4.363   0.587  0.00  0.00    +0.000 C 
BRANCH  19  20
ATOM     20  C   UNL     1       4.190  -5.807   0.927  0.00  0.00    +0.000 C 
BRANCH  20  21
ATOM     21  N   UNL     1       3.174  -6.391   1.804  0.00  0.00    +0.000 NA
ATOM     22  H   UNL     1       3.133  -5.870   2.679  0.00  0.00    +0.000 HD
ATOM     23  H   UNL     1       3.439  -7.344   2.049  0.00  0.00    +0.000 HD
ENDBRANCH  20  21
ENDBRANCH  19  20
ENDBRANCH  16  19
ENDBRANCH   1  13
TORSDOF 6
