REMARK  Name = 
REMARK  8 active torsions:
REMARK  status: ('A' for Active; 'I' for Inactive)
REMARK    1  A    between atoms: C_1  and  C_2
REMARK    2  A    between atoms: C_8  and  C_9
REMARK    3  A    between atoms: C_9  and  C_10
REMARK    4  A    between atoms: C_9  and  C_11
REMARK    5  A    between atoms: C_9  and  C_12
REMARK    6  A    between atoms: C_12  and  N_13
REMARK    7  A    between atoms: N_13  and  C_14
REMARK    8  A    between atoms: C_17  and  C_18
REMARK                            x       y       z     vdW  Elec       q    Type
REMARK                         _______ _______ _______ _____ _____    ______ ____
ROOT
ATOM      1  C   UNL     1       3.894  -1.238  -4.574  0.00  0.00    +0.000 C 
ATOM      2  C   UNL     1       3.598  -2.749  -4.389  0.00  0.00    +0.000 C 
ATOM      3  C   UNL     1       2.732  -0.618  -5.392  0.00  0.00    +0.000 C 
ENDROOT
BRANCH   1  11
ATOM      4  C   UNL     1      -1.487  -2.084   1.494  0.00  0.00    +0.000 C 
ATOM      5  C   UNL     1      -0.620  -0.905   1.056  0.00  0.00    +0.000 C 
ATOM      6  C   UNL     1       0.800  -1.022   1.646  0.00  0.00    +0.000 C 
ATOM      7  C   UNL     1       1.747   0.055   1.096  0.00  0.00    +0.000 C 
ATOM      8  N   UNL     1       1.675  -0.019  -0.355  0.00  0.00    +0.000 N 
ATOM      9  C   UNL     1       2.822   0.045  -1.114  0.00  0.00    +0.000 A 
ATOM     10  C   UNL     1       2.833  -0.568  -2.370  0.00  0.00    +0.000 A 
ATOM     11  C   UNL     1       3.971  -0.577  -3.189  0.00  0.00    +0.000 A 
ATOM     12  C   UNL     1       5.106   0.026  -2.652  0.00  0.00    +0.000 A 
ATOM     13  C   UNL     1       5.026   0.621  -1.400  0.00  0.00    +0.000 A 
ATOM     14  F   UNL     1       6.118   1.241  -0.930  0.00  0.00    +0.000 F 
ATOM     15  N   UNL     1       3.924   0.635  -0.625  0.00  0.00    +0.000 NA
ATOM     16  C   UNL     1       0.374   0.271  -0.942  0.00  0.00    +0.000 C 
ATOM     17  C   UNL     1      -0.588  -0.818  -0.480  0.00  0.00    +0.000 C 
ENDBRANCH   1  11
BRANCH   1  18
ATOM     18  C   UNL     1       5.198  -1.135  -5.423  0.00  0.00    +0.000 C 
BRANCH  18  19
ATOM     19  N   UNL     1       5.526   0.251  -5.787  0.00  0.00    +0.000 N 
ATOM     20  H   UNL     1       5.337   0.928  -5.054  0.00  0.00    +0.000 HD
BRANCH  19  21
ATOM     21  C   UNL     1       6.762   0.465  -6.407  0.00  0.00    +0.000 A 
ATOM     22  C   UNL     1       7.482   1.632  -6.146  0.00  0.00    +0.000 A 
ATOM     23  C   UNL     1       8.694   1.876  -6.794  0.00  0.00    +0.000 A 
ATOM     24  C   UNL     1       9.141   0.940  -7.713  0.00  0.00    +0.000 A 
ATOM     25  N   UNL     1       8.471  -0.201  -8.025  0.00  0.00    +0.000 NA
ATOM     26  C   UNL     1       7.301  -0.393  -7.373  0.00  0.00    +0.000 A 
BRANCH  24  27
ATOM     27  C   UNL     1      10.432   1.160  -8.442  0.00  0.00    +0.000 C 
ATOM     28  N   UNL     1      10.765   0.184  -9.341  0.00  0.00    +0.000 N 
ATOM     29  O   UNL     1      11.141   2.140  -8.253  0.00  0.00    +0.000 OA
ATOM     30  H   UNL     1      10.139  -0.605  -9.469  0.00  0.00    +0.000 HD
ATOM     31  H   UNL     1      11.614   0.263  -9.875  0.00  0.00    +0.000 HD
ENDBRANCH  24  27
ENDBRANCH  19  21
ENDBRANCH  18  19
ENDBRANCH   1  18
TORSDOF 5
