REMARK  Name = 
REMARK  5 active torsions:
REMARK  status: ('A' for Active; 'I' for Inactive)
REMARK    1  A    between atoms: C_2  and  C_4
REMARK    2  A    between atoms: C_7  and  N_8
REMARK    3  A    between atoms: N_8  and  C_9
REMARK    4  A    between atoms: C_9  and  C_10
REMARK    5  A    between atoms: C_14  and  C_15
REMARK                            x       y       z     vdW  Elec       q    Type
REMARK                         _______ _______ _______ _____ _____    ______ ____
ROOT
ATOM      1  C   UNL     1       4.629  -3.598   5.002  0.00  0.00    +0.000 C 
ENDROOT
BRANCH   1   2
ATOM      2  C   UNL     1       5.348  -3.941   6.291  0.00  0.00    +0.000 A 
ATOM      3  C   UNL     1       5.957  -2.946   7.062  0.00  0.00    +0.000 A 
ATOM      4  C   UNL     1       6.598  -3.279   8.252  0.00  0.00    +0.000 A 
ATOM      5  C   UNL     1       6.627  -4.607   8.691  0.00  0.00    +0.000 A 
ATOM      6  C   UNL     1       6.011  -5.635   7.957  0.00  0.00    +0.000 A 
ATOM      7  C   UNL     1       5.398  -5.275   6.741  0.00  0.00    +0.000 A 
BRANCH   6   8
ATOM      8  C   UNL     1       5.952  -7.024   8.462  0.00  0.00    +0.000 A 
ATOM      9  C   UNL     1       5.812  -7.309   9.828  0.00  0.00    +0.000 A 
ATOM     10  N   UNL     1       5.699  -8.550  10.369  0.00  0.00    +0.000 NA
ATOM     11  C   UNL     1       5.714  -9.583   9.500  0.00  0.00    +0.000 A 
ATOM     12  C   UNL     1       5.850  -9.422   8.135  0.00  0.00    +0.000 A 
ATOM     13  F   UNL     1       5.849 -10.485   7.321  0.00  0.00    +0.000 F 
ATOM     14  C   UNL     1       5.978  -8.141   7.611  0.00  0.00    +0.000 A 
ENDBRANCH   6   8
ENDBRANCH   1   2
BRANCH   1  15
ATOM     15  N   UNL     1       3.268  -4.116   5.083  0.00  0.00    +0.000 N 
ATOM     16  H   UNL     1       2.804  -3.806   5.932  0.00  0.00    +0.000 HD
BRANCH  15  20
ATOM     17  C   UNL     1       0.784  -3.567   1.860  0.00  0.00    +0.000 A 
ATOM     18  C   UNL     1       2.077  -3.071   1.842  0.00  0.00    +0.000 A 
ATOM     19  N   UNL     1       2.934  -3.218   2.891  0.00  0.00    +0.000 NA
ATOM     20  C   UNL     1       2.456  -3.874   3.970  0.00  0.00    +0.000 A 
ATOM     21  C   UNL     1       1.145  -4.374   3.962  0.00  0.00    +0.000 A 
ATOM     22  N   UNL     1       0.273  -4.233   2.930  0.00  0.00    +0.000 NA
BRANCH  17  24
ATOM     23  N   UNL     1      -1.371  -3.884   0.807  0.00  0.00    +0.000 N 
ATOM     24  C   UNL     1      -0.103  -3.387   0.678  0.00  0.00    +0.000 C 
ATOM     25  O   UNL     1       0.275  -2.829  -0.345  0.00  0.00    +0.000 OA
ATOM     26  H   UNL     1      -2.021  -3.804   0.037  0.00  0.00    +0.000 HD
ATOM     27  H   UNL     1      -1.651  -4.345   1.666  0.00  0.00    +0.000 HD
ENDBRANCH  17  24
ENDBRANCH  15  20
ENDBRANCH   1  15
TORSDOF 5
