REMARK  Name = 
REMARK  5 active torsions:
REMARK  status: ('A' for Active; 'I' for Inactive)
REMARK    1  A    between atoms: C_1  and  C_2
REMARK    2  A    between atoms: C_5  and  C_6
REMARK    3  A    between atoms: C_6  and  N_7
REMARK    4  A    between atoms: N_7  and  C_8
REMARK    5  A    between atoms: C_11  and  C_12
REMARK                            x       y       z     vdW  Elec       q    Type
REMARK                         _______ _______ _______ _____ _____    ______ ____
ROOT
ATOM      1  N   UNL     1      -3.629  -1.227   0.770  0.00  0.00    +0.000 N 
ATOM      2  H   UNL     1      -3.859  -1.030   1.739  0.00  0.00    +0.000 HD
ENDROOT
BRANCH   1   3
ATOM      3  C   UNL     1      -3.841  -2.541   0.358  0.00  0.00    +0.000 A 
ATOM      4  C   UNL     1      -3.765  -3.019  -0.940  0.00  0.00    +0.000 A 
ATOM      5  N   UNL     1      -3.972  -4.308  -1.307  0.00  0.00    +0.000 NA
ATOM      6  C   UNL     1      -4.254  -5.163  -0.295  0.00  0.00    +0.000 A 
ATOM      7  N   UNL     1      -4.332  -4.835   1.007  0.00  0.00    +0.000 NA
ATOM      8  C   UNL     1      -4.114  -3.536   1.290  0.00  0.00    +0.000 A 
BRANCH   6   9
ATOM      9  C   UNL     1      -4.525  -6.605  -0.668  0.00  0.00    +0.000 C 
ATOM     10  N   UNL     1      -4.461  -6.895  -2.012  0.00  0.00    +0.000 N 
ATOM     11  O   UNL     1      -4.800  -7.484   0.141  0.00  0.00    +0.000 OA
ATOM     12  H   UNL     1      -4.256  -6.164  -2.682  0.00  0.00    +0.000 HD
ATOM     13  H   UNL     1      -4.659  -7.837  -2.317  0.00  0.00    +0.000 HD
ENDBRANCH   6   9
ENDBRANCH   1   3
BRANCH   1  14
ATOM     14  C   UNL     1      -3.230  -0.089  -0.068  0.00  0.00    +0.000 C 
ATOM     15  C   UNL     1      -4.111   0.440  -1.182  0.00  0.00    +0.000 C 
ATOM     16  C   UNL     1      -4.086   1.164   0.121  0.00  0.00    +0.000 C 
BRANCH  14  21
ATOM     17  C   UNL     1       2.523   0.939  -0.648  0.00  0.00    +0.000 C 
ATOM     18  C   UNL     1       1.069   0.617  -0.475  0.00  0.00    +0.000 A 
ATOM     19  C   UNL     1       0.403  -0.229  -1.362  0.00  0.00    +0.000 A 
ATOM     20  C   UNL     1      -0.969  -0.473  -1.217  0.00  0.00    +0.000 A 
ATOM     21  C   UNL     1      -1.720   0.115  -0.185  0.00  0.00    +0.000 A 
ATOM     22  C   UNL     1      -1.018   0.930   0.721  0.00  0.00    +0.000 A 
ATOM     23  C   UNL     1       0.349   1.189   0.576  0.00  0.00    +0.000 A 
ENDBRANCH  14  21
ENDBRANCH   1  14
TORSDOF 4
