REMARK  Name = 
REMARK  8 active torsions:
REMARK  status: ('A' for Active; 'I' for Inactive)
REMARK    1  A    between atoms: N_1  and  C_2
REMARK    2  A    between atoms: C_2  and  C_3
REMARK    3  A    between atoms: C_3  and  N_4
REMARK    4  A    between atoms: C_3  and  C_17
REMARK    5  A    between atoms: C_5  and  C_7
REMARK    6  A    between atoms: C_20  and  O_21
REMARK    7  A    between atoms: O_21  and  C_22
REMARK    8  A    between atoms: C_22  and  C_23
REMARK                            x       y       z     vdW  Elec       q    Type
REMARK                         _______ _______ _______ _____ _____    ______ ____
ROOT
ATOM      1  C   UNL     1       2.805   0.918   0.856  0.00  0.00    +0.000 C 
ENDROOT
BRANCH   1   2
ATOM      2  C   UNL     1       4.328   0.964   0.961  0.00  0.00    +0.000 A 
ATOM      3  C   UNL     1       5.033   2.158   0.756  0.00  0.00    +0.000 A 
ATOM      4  C   UNL     1       6.428   2.187   0.885  0.00  0.00    +0.000 A 
ATOM      5  C   UNL     1       7.130   1.032   1.229  0.00  0.00    +0.000 A 
ATOM      6  C   UNL     1       6.439  -0.167   1.397  0.00  0.00    +0.000 A 
ATOM      7  C   UNL     1       5.051  -0.196   1.281  0.00  0.00    +0.000 A 
BRANCH   5   8
ATOM      8  O   UNL     1       8.481   1.178   1.393  0.00  0.00    +0.000 OA
BRANCH   8   9
ATOM      9  C   UNL     1       9.097   0.168   2.202  0.00  0.00    +0.000 C 
BRANCH   9  10
ATOM     10  C   UNL     1      10.432   0.625   2.738  0.00  0.00    +0.000 A 
ATOM     11  C   UNL     1      11.282   1.423   1.978  0.00  0.00    +0.000 A 
ATOM     12  C   UNL     1      12.507   1.802   2.518  0.00  0.00    +0.000 A 
ATOM     13  C   UNL     1      12.856   1.364   3.790  0.00  0.00    +0.000 A 
ATOM     14  C   UNL     1      11.966   0.555   4.472  0.00  0.00    +0.000 A 
ATOM     15  N   UNL     1      10.770   0.173   3.976  0.00  0.00    +0.000 NA
ENDBRANCH   9  10
ENDBRANCH   8   9
ENDBRANCH   5   8
ENDBRANCH   1   2
BRANCH   1  16
ATOM     16  N   UNL     1       2.275   0.584   2.174  0.00  0.00    +0.000 N 
ATOM     17  C   UNL     1       0.934   0.553   2.458  0.00  0.00    +0.000 C 
ATOM     18  O   UNL     1       0.069   0.670   1.596  0.00  0.00    +0.000 OA
ATOM     19  H   UNL     1       2.916   0.731   2.948  0.00  0.00    +0.000 HD
BRANCH  17  20
ATOM     20  C   UNL     1       0.577   0.317   3.859  0.00  0.00    +0.000 A 
ATOM     21  C   UNL     1      -0.613  -0.325   4.173  0.00  0.00    +0.000 A 
ATOM     22  S   UNL     1      -0.884  -0.472   5.851  0.00  0.00    +0.000 S 
ATOM     23  C   UNL     1       0.561   0.353   6.212  0.00  0.00    +0.000 A 
ATOM     24  N   UNL     1       0.911   0.626   7.497  0.00  0.00    +0.000 NA
ATOM     25  C   UNL     1       2.012   1.291   7.619  0.00  0.00    +0.000 A 
ATOM     26  N   UNL     1       2.808   1.686   6.574  0.00  0.00    +0.000 N 
ATOM     27  C   UNL     1       2.525   1.378   5.266  0.00  0.00    +0.000 A 
ATOM     28  O   UNL     1       3.306   1.647   4.362  0.00  0.00    +0.000 OA
ATOM     29  C   UNL     1       1.266   0.686   5.070  0.00  0.00    +0.000 A 
ATOM     30  H   UNL     1       3.678   2.169   6.739  0.00  0.00    +0.000 HD
ENDBRANCH  17  20
ENDBRANCH   1  16
BRANCH   1  31
ATOM     31  C   UNL     1       2.353  -0.087  -0.249  0.00  0.00    +0.000 C 
BRANCH  31  32
ATOM     32  N   UNL     1       2.886   0.203  -1.589  0.00  0.00    +0.000 NA
ATOM     33  H   UNL     1       2.734  -0.611  -2.183  0.00  0.00    +0.000 HD
ATOM     34  H   UNL     1       3.897   0.332  -1.534  0.00  0.00    +0.000 HD
ENDBRANCH  31  32
ENDBRANCH   1  31
TORSDOF 8
