REMARK  Name = 
REMARK  5 active torsions:
REMARK  status: ('A' for Active; 'I' for Inactive)
REMARK    1  A    between atoms: C_1  and  C_2
REMARK    2  A    between atoms: N_8  and  C_9
REMARK    3  A    between atoms: C_9  and  C_10
REMARK    4  A    between atoms: C_17  and  C_18
REMARK    5  A    between atoms: C_18  and  N_19
REMARK                            x       y       z     vdW  Elec       q    Type
REMARK                         _______ _______ _______ _____ _____    ______ ____
ROOT
ATOM      1  C   UNL     1       0.998   0.010  -0.094  0.00  0.00    +0.000 C 
ATOM      2  C   UNL     1       2.503  -0.073  -0.084  0.00  0.00    +0.000 A 
ATOM      3  C   UNL     1       3.231   1.135  -0.133  0.00  0.00    +0.000 A 
ATOM      4  C   UNL     1       4.633   1.091  -0.053  0.00  0.00    +0.000 A 
ATOM      5  C   UNL     1       5.323  -0.119   0.021  0.00  0.00    +0.000 A 
ATOM      6  C   UNL     1       6.710   0.182   0.071  0.00  0.00    +0.000 A 
ATOM      7  C   UNL     1       6.841   1.551   0.059  0.00  0.00    +0.000 A 
ATOM      8  N   UNL     1       5.582   2.095  -0.008  0.00  0.00    +0.000 N 
ATOM      9  C   UNL     1       4.588  -1.319   0.043  0.00  0.00    +0.000 A 
ATOM     10  C   UNL     1       3.177  -1.307   0.007  0.00  0.00    +0.000 A 
ENDROOT
BRANCH   8  11
ATOM     11  C   UNL     1       5.309   3.528   0.078  0.00  0.00    +0.000 C 
BRANCH  11  12
ATOM     12  C   UNL     1       5.443   4.270  -1.215  0.00  0.00    +0.000 A 
ATOM     13  C   UNL     1       5.616   3.701  -2.462  0.00  0.00    +0.000 A 
ATOM     14  N   UNL     1       5.752   4.414  -3.600  0.00  0.00    +0.000 NA
ATOM     15  C   UNL     1       5.704   5.748  -3.471  0.00  0.00    +0.000 A 
ATOM     16  N   UNL     1       5.515   6.416  -2.325  0.00  0.00    +0.000 NA
ATOM     17  C   UNL     1       5.386   5.653  -1.222  0.00  0.00    +0.000 A 
ENDBRANCH  11  12
ENDBRANCH   8  11
BRANCH  10  18
ATOM     18  C   UNL     1       2.461  -2.636   0.127  0.00  0.00    +0.000 C 
BRANCH  18  19
ATOM     19  N   UNL     1       2.821  -3.552  -0.951  0.00  0.00    +0.000 NA
ATOM     20  H   UNL     1       2.503  -3.157  -1.835  0.00  0.00    +0.000 HD
ATOM     21  H   UNL     1       2.320  -4.429  -0.826  0.00  0.00    +0.000 HD
ENDBRANCH  18  19
ENDBRANCH  10  18
TORSDOF 4
