REMARK  Name = 
REMARK  6 active torsions:
REMARK  status: ('A' for Active; 'I' for Inactive)
REMARK    1  A    between atoms: N_1  and  C_2
REMARK    2  A    between atoms: C_2  and  C_3
REMARK    3  A    between atoms: C_3  and  O_4
REMARK    4  A    between atoms: C_3  and  C_5
REMARK    5  A    between atoms: C_8  and  C_9
REMARK    6  A    between atoms: C_9  and  N_10
REMARK                            x       y       z     vdW  Elec       q    Type
REMARK                         _______ _______ _______ _____ _____    ______ ____
ROOT
ATOM      1  C   UNL     1       4.763   0.811  -1.129  0.00  0.00    +0.000 A 
ATOM      2  C   UNL     1       5.515   1.991  -1.190  0.00  0.00    +0.000 A 
ATOM      3  C   UNL     1       6.906   1.947  -1.151  0.00  0.00    +0.000 A 
ATOM      4  C   UNL     1       7.589   0.722  -1.047  0.00  0.00    +0.000 A 
ATOM      5  C   UNL     1       6.835  -0.461  -0.997  0.00  0.00    +0.000 A 
ATOM      6  C   UNL     1       5.443  -0.414  -1.052  0.00  0.00    +0.000 A 
ENDROOT
BRANCH   1   7
ATOM      7  C   UNL     1       3.253   0.859  -1.148  0.00  0.00    +0.000 C 
BRANCH   7   8
ATOM      8  O   UNL     1       2.742  -0.245  -0.390  0.00  0.00    +0.000 OA
ATOM      9  H   UNL     1       1.923  -0.511  -0.852  0.00  0.00    +0.000 HD
ENDBRANCH   7   8
BRANCH   7  10
ATOM     10  C   UNL     1       2.669   0.808  -2.579  0.00  0.00    +0.000 C 
BRANCH  10  11
ATOM     11  N   UNL     1       1.195   0.810  -2.542  0.00  0.00    +0.000 NA
ATOM     12  H   UNL     1       0.841   0.853  -3.494  0.00  0.00    +0.000 HD
ATOM     13  H   UNL     1       0.870   1.668  -2.088  0.00  0.00    +0.000 HD
ENDBRANCH  10  11
ENDBRANCH   7  10
ENDBRANCH   1   7
BRANCH   4  14
ATOM     14  C   UNL     1       9.088   0.661  -1.042  0.00  0.00    +0.000 C 
BRANCH  14  15
ATOM     15  N   UNL     1       9.710   0.704   0.277  0.00  0.00    +0.000 N 
ATOM     16  C   UNL     1       9.456   1.636   1.248  0.00  0.00    +0.000 A 
ATOM     17  N   UNL     1      10.473   1.775   2.068  0.00  0.00    +0.000 NA
ATOM     18  C   UNL     1      11.410   0.870   1.640  0.00  0.00    +0.000 A 
ATOM     19  C   UNL     1      12.724   0.669   2.086  0.00  0.00    +0.000 A 
ATOM     20  C   UNL     1      13.488  -0.321   1.464  0.00  0.00    +0.000 A 
ATOM     21 CL   UNL     1      15.141  -0.519   1.912  0.00  0.00    +0.000 Cl
ATOM     22  C   UNL     1      12.950  -1.136   0.467  0.00  0.00    +0.000 A 
ATOM     23  C   UNL     1      11.644  -0.942   0.004  0.00  0.00    +0.000 A 
ATOM     24  C   UNL     1      10.917   0.106   0.584  0.00  0.00    +0.000 A 
ENDBRANCH  14  15
ENDBRANCH   4  14
TORSDOF 6
