REMARK  Name = 
REMARK  6 active torsions:
REMARK  status: ('A' for Active; 'I' for Inactive)
REMARK    1  A    between atoms: C_2  and  C_3
REMARK    2  A    between atoms: C_8  and  C_9
REMARK    3  A    between atoms: C_9  and  C_10
REMARK    4  A    between atoms: C_13  and  C_14
REMARK    5  A    between atoms: C_14  and  N_15
REMARK    6  A    between atoms: C_16  and  C_18
REMARK                            x       y       z     vdW  Elec       q    Type
REMARK                         _______ _______ _______ _____ _____    ______ ____
ROOT
ATOM      1  C   UNL     1       6.208  -1.835   0.597  0.00  0.00    +0.000 C 
ENDROOT
BRANCH   1   5
ATOM      2  C   UNL     1       1.928  -2.450   0.249  0.00  0.00    +0.000 A 
ATOM      3  C   UNL     1       2.469  -1.868   1.408  0.00  0.00    +0.000 A 
ATOM      4  C   UNL     1       3.855  -1.708   1.554  0.00  0.00    +0.000 A 
ATOM      5  C   UNL     1       4.729  -2.139   0.548  0.00  0.00    +0.000 A 
ATOM      6  C   UNL     1       4.193  -2.827  -0.549  0.00  0.00    +0.000 A 
ATOM      7  C   UNL     1       2.809  -2.973  -0.703  0.00  0.00    +0.000 A 
BRANCH   2   8
ATOM      8  C   UNL     1       0.429  -2.446   0.007  0.00  0.00    +0.000 C 
BRANCH   8  14
ATOM      9  C   UNL     1      -0.204  -1.052  -2.079  0.00  0.00    +0.000 A 
ATOM     10  C   UNL     1      -0.624   0.188  -2.588  0.00  0.00    +0.000 A 
ATOM     11  C   UNL     1      -0.947   1.233  -1.723  0.00  0.00    +0.000 A 
ATOM     12  C   UNL     1      -0.844   0.991  -0.370  0.00  0.00    +0.000 A 
ATOM     13  N   UNL     1      -0.417  -0.175   0.158  0.00  0.00    +0.000 NA
ATOM     14  C   UNL     1      -0.082  -1.193  -0.687  0.00  0.00    +0.000 A 
BRANCH   9  16
ATOM     15  N   UNL     1       0.129  -2.908  -3.854  0.00  0.00    +0.000 NA
ATOM     16  C   UNL     1       0.014  -2.104  -3.024  0.00  0.00    +0.000 C 
ENDBRANCH   9  16
ENDBRANCH   8  14
ENDBRANCH   2   8
ENDBRANCH   1   5
BRANCH   1  17
ATOM     17  N   UNL     1       6.973  -2.865   1.249  0.00  0.00    +0.000 N 
ATOM     18  C   UNL     1       8.336  -2.763   1.382  0.00  0.00    +0.000 C 
ATOM     19  O   UNL     1       8.963  -1.778   1.004  0.00  0.00    +0.000 OA
ATOM     20  H   UNL     1       6.544  -3.786   1.302  0.00  0.00    +0.000 HD
BRANCH  18  21
ATOM     21  C   UNL     1       9.003  -3.878   2.064  0.00  0.00    +0.000 A 
ATOM     22  C   UNL     1      10.177  -3.661   2.774  0.00  0.00    +0.000 A 
ATOM     23  S   UNL     1      10.798  -5.068   3.512  0.00  0.00    +0.000 S 
ATOM     24  C   UNL     1       9.544  -6.024   2.872  0.00  0.00    +0.000 A 
ATOM     25  N   UNL     1       9.501  -7.365   3.097  0.00  0.00    +0.000 NA
ATOM     26  C   UNL     1       8.506  -7.967   2.535  0.00  0.00    +0.000 A 
ATOM     27  N   UNL     1       7.543  -7.349   1.781  0.00  0.00    +0.000 N 
ATOM     28  C   UNL     1       7.529  -5.993   1.551  0.00  0.00    +0.000 A 
ATOM     29  O   UNL     1       6.623  -5.465   0.915  0.00  0.00    +0.000 OA
ATOM     30  C   UNL     1       8.643  -5.274   2.136  0.00  0.00    +0.000 A 
ATOM     31  H   UNL     1       6.779  -7.874   1.383  0.00  0.00    +0.000 HD
ENDBRANCH  18  21
ENDBRANCH   1  17
TORSDOF 6
