REMARK  Name = 
REMARK  8 active torsions:
REMARK  status: ('A' for Active; 'I' for Inactive)
REMARK    1  A    between atoms: C_1  and  C_2
REMARK    2  A    between atoms: C_2  and  C_3
REMARK    3  A    between atoms: C_7  and  C_8
REMARK    4  A    between atoms: C_8  and  C_9
REMARK    5  A    between atoms: C_9  and  N_10
REMARK    6  A    between atoms: N_10  and  C_11
REMARK    7  A    between atoms: C_14  and  C_15
REMARK    8  A    between atoms: C_23  and  O_24
REMARK                            x       y       z     vdW  Elec       q    Type
REMARK                         _______ _______ _______ _____ _____    ______ ____
ROOT
ATOM      1  C   UNL     1       2.905   0.499   1.394  0.00  0.00    +0.000 A 
ATOM      2  C   UNL     1       2.666   1.773   1.933  0.00  0.00    +0.000 A 
ATOM      3  C   UNL     1       2.998   2.070   3.260  0.00  0.00    +0.000 A 
ATOM      4  C   UNL     1       3.571   1.098   4.082  0.00  0.00    +0.000 A 
ATOM      5  C   UNL     1       3.838  -0.177   3.581  0.00  0.00    +0.000 A 
ATOM      6  C   UNL     1       3.514  -0.440   2.238  0.00  0.00    +0.000 A 
ENDROOT
BRANCH   1   8
ATOM      7  C   UNL     1       0.895   0.209  -0.033  0.00  0.00    +0.000 C 
ATOM      8  C   UNL     1       2.440   0.118  -0.032  0.00  0.00    +0.000 C 
ATOM      9  C   UNL     1       3.053   1.098  -1.066  0.00  0.00    +0.000 C 
ATOM     10  C   UNL     1       2.758   0.729  -2.526  0.00  0.00    +0.000 C 
ATOM     11  C   UNL     1       3.134  -0.709  -2.873  0.00  0.00    +0.000 C 
ATOM     12  C   UNL     1       2.542  -1.708  -1.887  0.00  0.00    +0.000 C 
ATOM     13  C   UNL     1       2.849  -1.335  -0.437  0.00  0.00    +0.000 C 
BRANCH  11  14
ATOM     14  O   UNL     1       4.553  -0.851  -2.918  0.00  0.00    +0.000 OA
ATOM     15  H   UNL     1       4.925  -0.594  -2.058  0.00  0.00    +0.000 HD
ENDBRANCH  11  14
ENDBRANCH   1   8
BRANCH   5  16
ATOM     16  C   UNL     1       4.413  -1.250   4.493  0.00  0.00    +0.000 C 
BRANCH  16  17
ATOM     17  C   UNL     1       4.677  -2.588   3.786  0.00  0.00    +0.000 C 
BRANCH  17  18
ATOM     18  N   UNL     1       5.135  -3.637   4.685  0.00  0.00    +0.000 N 
ATOM     19  H   UNL     1       5.813  -3.342   5.382  0.00  0.00    +0.000 HD
BRANCH  18  20
ATOM     20  C   UNL     1       5.445  -4.889   4.131  0.00  0.00    +0.000 A 
ATOM     21  C   UNL     1       5.218  -5.234   2.788  0.00  0.00    +0.000 A 
ATOM     22  C   UNL     1       5.465  -6.527   2.316  0.00  0.00    +0.000 A 
ATOM     23  C   UNL     1       5.922  -7.517   3.186  0.00  0.00    +0.000 A 
ATOM     24  C   UNL     1       6.121  -7.202   4.532  0.00  0.00    +0.000 A 
ATOM     25  C   UNL     1       5.884  -5.901   4.994  0.00  0.00    +0.000 A 
BRANCH  23  26
ATOM     26  C   UNL     1       6.131  -8.887   2.650  0.00  0.00    +0.000 C 
ATOM     27  N   UNL     1       6.988  -9.706   3.329  0.00  0.00    +0.000 N 
ATOM     28  O   UNL     1       5.586  -9.268   1.620  0.00  0.00    +0.000 OA
ATOM     29  H   UNL     1       7.630  -9.365   4.029  0.00  0.00    +0.000 HD
ATOM     30  H   UNL     1       7.194 -10.596   2.894  0.00  0.00    +0.000 HD
ENDBRANCH  23  26
ENDBRANCH  18  20
ENDBRANCH  17  18
ENDBRANCH  16  17
ENDBRANCH   5  16
TORSDOF 7
