REMARK  Name = 
REMARK  7 active torsions:
REMARK  status: ('A' for Active; 'I' for Inactive)
REMARK    1  A    between atoms: N_1  and  C_2
REMARK    2  A    between atoms: C_2  and  C_3
REMARK    3  A    between atoms: C_3  and  N_4
REMARK    4  A    between atoms: C_3  and  C_17
REMARK    5  A    between atoms: C_5  and  C_7
REMARK    6  A    between atoms: C_20  and  C_21
REMARK    7  A    between atoms: C_21  and  C_22
REMARK                            x       y       z     vdW  Elec       q    Type
REMARK                         _______ _______ _______ _____ _____    ______ ____
ROOT
ATOM      1  C   UNL     1       2.955   1.185  -0.623  0.00  0.00    +0.000 C 
ENDROOT
BRANCH   1   2
ATOM      2  C   UNL     1       4.475   1.254  -0.565  0.00  0.00    +0.000 A 
ATOM      3  C   UNL     1       5.231   0.622  -1.566  0.00  0.00    +0.000 A 
ATOM      4  C   UNL     1       6.628   0.657  -1.538  0.00  0.00    +0.000 A 
ATOM      5  C   UNL     1       7.303   1.325  -0.508  0.00  0.00    +0.000 A 
ATOM      6  C   UNL     1       6.553   1.943   0.498  0.00  0.00    +0.000 A 
ATOM      7  C   UNL     1       5.157   1.895   0.479  0.00  0.00    +0.000 A 
BRANCH   5   8
ATOM      8  C   UNL     1       8.814   1.380  -0.469  0.00  0.00    +0.000 C 
BRANCH   8   9
ATOM      9  C   UNL     1       9.454   2.562  -1.165  0.00  0.00    +0.000 A 
ATOM     10  C   UNL     1       9.253   2.794  -2.526  0.00  0.00    +0.000 A 
ATOM     11  C   UNL     1       9.976   3.803  -3.157  0.00  0.00    +0.000 A 
ATOM     12  C   UNL     1      10.874   4.561  -2.419  0.00  0.00    +0.000 A 
ATOM     13  C   UNL     1      11.000   4.288  -1.068  0.00  0.00    +0.000 A 
ATOM     14  N   UNL     1      10.319   3.309  -0.431  0.00  0.00    +0.000 NA
ENDBRANCH   8   9
ENDBRANCH   5   8
ENDBRANCH   1   2
BRANCH   1  15
ATOM     15  N   UNL     1       2.521  -0.016   0.079  0.00  0.00    +0.000 N 
ATOM     16  C   UNL     1       1.399  -0.712  -0.306  0.00  0.00    +0.000 C 
ATOM     17  O   UNL     1       0.697  -0.364  -1.248  0.00  0.00    +0.000 OA
ATOM     18  H   UNL     1       2.993  -0.254   0.939  0.00  0.00    +0.000 HD
BRANCH  16  19
ATOM     19  C   UNL     1       1.136  -1.933   0.454  0.00  0.00    +0.000 A 
ATOM     20  C   UNL     1       2.129  -2.744   0.982  0.00  0.00    +0.000 A 
ATOM     21  S   UNL     1       1.523  -4.197   1.651  0.00  0.00    +0.000 S 
ATOM     22  C   UNL     1      -0.079  -3.784   1.248  0.00  0.00    +0.000 A 
ATOM     23  N   UNL     1      -1.112  -4.636   1.485  0.00  0.00    +0.000 NA
ATOM     24  C   UNL     1      -2.263  -4.189   1.102  0.00  0.00    +0.000 A 
ATOM     25  N   UNL     1      -2.479  -2.958   0.536  0.00  0.00    +0.000 N 
ATOM     26  C   UNL     1      -1.483  -2.017   0.393  0.00  0.00    +0.000 A 
ATOM     27  O   UNL     1      -1.748  -0.850   0.130  0.00  0.00    +0.000 OA
ATOM     28  C   UNL     1      -0.156  -2.525   0.683  0.00  0.00    +0.000 A 
ATOM     29  H   UNL     1      -3.416  -2.635   0.344  0.00  0.00    +0.000 HD
ENDBRANCH  16  19
ENDBRANCH   1  15
BRANCH   1  30
ATOM     30  C   UNL     1       2.210   2.443  -0.082  0.00  0.00    +0.000 C 
BRANCH  30  31
ATOM     31  N   UNL     1       2.555   3.692  -0.770  0.00  0.00    +0.000 NA
ATOM     32  H   UNL     1       2.074   4.471  -0.323  0.00  0.00    +0.000 HD
ATOM     33  H   UNL     1       2.206   3.653  -1.728  0.00  0.00    +0.000 HD
ENDBRANCH  30  31
ENDBRANCH   1  30
TORSDOF 7
