REMARK  Name = 
REMARK  10 active torsions:
REMARK  status: ('A' for Active; 'I' for Inactive)
REMARK    1  A    between atoms: N_1  and  C_2
REMARK    2  A    between atoms: C_2  and  C_3
REMARK    3  A    between atoms: C_3  and  N_4
REMARK    4  A    between atoms: C_3  and  C_20
REMARK    5  A    between atoms: N_4  and  C_5
REMARK    6  A    between atoms: C_5  and  C_6
REMARK    7  A    between atoms: C_9  and  C_10
REMARK    8  A    between atoms: C_10  and  N_11
REMARK    9  A    between atoms: N_11  and  C_12
REMARK   10  A    between atoms: C_12  and  C_13
REMARK                            x       y       z     vdW  Elec       q    Type
REMARK                         _______ _______ _______ _____ _____    ______ ____
ROOT
ATOM      1  N   UNL     1       2.516  -0.959   2.154  0.00  0.00    +0.000 NA
ATOM      2  H   UNL     1       2.929  -0.987   3.091  0.00  0.00    +0.000 HD
ENDROOT
BRANCH   1   3
ATOM      3  C   UNL     1       3.005   0.255   1.468  0.00  0.00    +0.000 C 
BRANCH   3   4
ATOM      4  C   UNL     1       4.530   0.230   1.506  0.00  0.00    +0.000 A 
ATOM      5  C   UNL     1       5.315  -0.913   1.468  0.00  0.00    +0.000 A 
ATOM      6  S   UNL     1       6.991  -0.589   1.496  0.00  0.00    +0.000 S 
ATOM      7  C   UNL     1       6.724   1.092   1.531  0.00  0.00    +0.000 A 
ATOM      8  N   UNL     1       7.761   1.972   1.546  0.00  0.00    +0.000 NA
ATOM      9  C   UNL     1       7.400   3.214   1.543  0.00  0.00    +0.000 A 
ATOM     10  N   UNL     1       6.098   3.654   1.532  0.00  0.00    +0.000 N 
ATOM     11  C   UNL     1       5.017   2.802   1.515  0.00  0.00    +0.000 A 
ATOM     12  O   UNL     1       3.865   3.223   1.483  0.00  0.00    +0.000 OA
ATOM     13  C   UNL     1       5.376   1.397   1.525  0.00  0.00    +0.000 A 
ATOM     14  H   UNL     1       5.887   4.641   1.523  0.00  0.00    +0.000 HD
ENDBRANCH   3   4
BRANCH   3  15
ATOM     15  C   UNL     1       2.498   0.383  -0.007  0.00  0.00    +0.000 C 
BRANCH  15  16
ATOM     16  N   UNL     1       2.821  -0.772  -0.857  0.00  0.00    +0.000 NA
ATOM     17  H   UNL     1       2.295  -0.728  -1.725  0.00  0.00    +0.000 HD
ATOM     18  H   UNL     1       2.551  -1.622  -0.360  0.00  0.00    +0.000 HD
ENDBRANCH  15  16
ENDBRANCH   3  15
ENDBRANCH   1   3
BRANCH   1  19
ATOM     19  C   UNL     1       1.063  -0.957   2.353  0.00  0.00    +0.000 C 
BRANCH  19  20
ATOM     20  C   UNL     1       0.621  -2.179   3.138  0.00  0.00    +0.000 A 
ATOM     21  C   UNL     1      -0.166  -3.151   2.527  0.00  0.00    +0.000 A 
ATOM     22  C   UNL     1      -0.517  -4.285   3.252  0.00  0.00    +0.000 A 
ATOM     23  C   UNL     1      -0.067  -4.440   4.564  0.00  0.00    +0.000 A 
ATOM     24  C   UNL     1       0.701  -3.410   5.099  0.00  0.00    +0.000 A 
ATOM     25  N   UNL     1       1.049  -2.289   4.424  0.00  0.00    +0.000 NA
BRANCH  23  26
ATOM     26  C   UNL     1      -0.402  -5.671   5.361  0.00  0.00    +0.000 C 
BRANCH  26  27
ATOM     27  N   UNL     1       0.122  -6.871   4.702  0.00  0.00    +0.000 NA
ATOM     28  H   UNL     1       1.141  -6.794   4.675  0.00  0.00    +0.000 HD
BRANCH  27  29
ATOM     29  C   UNL     1      -0.220  -8.068   5.480  0.00  0.00    +0.000 C 
BRANCH  29  30
ATOM     30  C   UNL     1       0.310  -9.307   4.833  0.00  0.00    +0.000 A 
ATOM     31  N   UNL     1       0.704 -10.411   5.436  0.00  0.00    +0.000 NA
ATOM     32  C   UNL     1       1.091 -11.263   4.434  0.00  0.00    +0.000 A 
ATOM     33  C   UNL     1       0.936 -10.672   3.204  0.00  0.00    +0.000 A 
ATOM     34  N   UNL     1       0.432  -9.431   3.469  0.00  0.00    +0.000 N 
ATOM     35  H   UNL     1       0.205  -8.701   2.807  0.00  0.00    +0.000 HD
ENDBRANCH  29  30
ENDBRANCH  27  29
ENDBRANCH  26  27
ENDBRANCH  23  26
ENDBRANCH  19  20
ENDBRANCH   1  19
TORSDOF 10
