REMARK  Name = 
REMARK  10 active torsions:
REMARK  status: ('A' for Active; 'I' for Inactive)
REMARK    1  A    between atoms: C_1  and  N_2
REMARK    2  A    between atoms: C_4  and  O_5
REMARK    3  A    between atoms: O_5  and  C_6
REMARK    4  A    between atoms: C_10  and  C_11
REMARK    5  A    between atoms: C_11  and  C_12
REMARK    6  A    between atoms: C_11  and  C_13
REMARK    7  A    between atoms: C_11  and  C_14
REMARK    8  A    between atoms: C_14  and  N_15
REMARK    9  A    between atoms: N_15  and  C_16
REMARK   10  A    between atoms: C_19  and  C_20
REMARK                            x       y       z     vdW  Elec       q    Type
REMARK                         _______ _______ _______ _____ _____    ______ ____
ROOT
ATOM      1  C   UNL     1      10.159  -1.043   0.718  0.00  0.00    +0.000 C 
ATOM      2  C   UNL     1      10.307  -0.183  -0.561  0.00  0.00    +0.000 C 
ATOM      3  C   UNL     1      10.495  -0.152   1.939  0.00  0.00    +0.000 C 
ENDROOT
BRANCH   1   8
ATOM      4  C   UNL     1       7.082  -3.344   1.200  0.00  0.00    +0.000 A 
ATOM      5  C   UNL     1       6.047  -2.424   1.288  0.00  0.00    +0.000 A 
ATOM      6  C   UNL     1       6.321  -1.068   1.118  0.00  0.00    +0.000 A 
ATOM      7  C   UNL     1       7.633  -0.632   0.901  0.00  0.00    +0.000 A 
ATOM      8  C   UNL     1       8.704  -1.541   0.841  0.00  0.00    +0.000 A 
ATOM      9  C   UNL     1       8.385  -2.904   0.956  0.00  0.00    +0.000 A 
BRANCH   4  10
ATOM     10  O   UNL     1       6.967  -4.696   1.393  0.00  0.00    +0.000 OA
BRANCH  10  14
ATOM     11  C   UNL     1       4.187  -7.533   3.235  0.00  0.00    +0.000 C 
ATOM     12  N   UNL     1       5.247  -6.621   2.833  0.00  0.00    +0.000 NA
ATOM     13  C   UNL     1       4.692  -5.312   2.418  0.00  0.00    +0.000 C 
ATOM     14  C   UNL     1       5.677  -5.322   1.221  0.00  0.00    +0.000 C 
ATOM     15  C   UNL     1       5.665  -6.861   1.431  0.00  0.00    +0.000 C 
ENDBRANCH  10  14
ENDBRANCH   4  10
ENDBRANCH   1   8
BRANCH   1  16
ATOM     16  C   UNL     1      11.238  -2.172   0.608  0.00  0.00    +0.000 C 
BRANCH  16  17
ATOM     17  N   UNL     1      11.284  -3.048   1.775  0.00  0.00    +0.000 N 
ATOM     18  H   UNL     1      10.854  -2.718   2.633  0.00  0.00    +0.000 HD
BRANCH  17  19
ATOM     19  C   UNL     1      12.043  -4.198   1.846  0.00  0.00    +0.000 A 
ATOM     20  C   UNL     1      12.930  -4.593   0.841  0.00  0.00    +0.000 A 
ATOM     21  C   UNL     1      13.660  -5.782   0.945  0.00  0.00    +0.000 A 
ATOM     22  C   UNL     1      13.497  -6.617   2.053  0.00  0.00    +0.000 A 
ATOM     23  C   UNL     1      12.583  -6.251   3.036  0.00  0.00    +0.000 A 
ATOM     24  F   UNL     1      12.367  -7.026   4.112  0.00  0.00    +0.000 F 
ATOM     25  C   UNL     1      11.858  -5.063   2.931  0.00  0.00    +0.000 A 
BRANCH  22  26
ATOM     26  C   UNL     1      14.310  -7.863   2.123  0.00  0.00    +0.000 C 
ATOM     27  N   UNL     1      14.146  -8.678   3.201  0.00  0.00    +0.000 N 
ATOM     28  O   UNL     1      15.101  -8.158   1.232  0.00  0.00    +0.000 OA
ATOM     29  H   UNL     1      13.489  -8.486   3.947  0.00  0.00    +0.000 HD
ATOM     30  H   UNL     1      14.687  -9.531   3.238  0.00  0.00    +0.000 HD
ENDBRANCH  22  26
ENDBRANCH  17  19
ENDBRANCH  16  17
ENDBRANCH   1  16
TORSDOF 7
