REMARK  Name = 
REMARK  5 active torsions:
REMARK  status: ('A' for Active; 'I' for Inactive)
REMARK    1  A    between atoms: C_1  and  C_2
REMARK    2  A    between atoms: C_2  and  N_3
REMARK    3  A    between atoms: C_2  and  C_13
REMARK    4  A    between atoms: N_3  and  C_4
REMARK    5  A    between atoms: C_7  and  C_8
REMARK                            x       y       z     vdW  Elec       q    Type
REMARK                         _______ _______ _______ _____ _____    ______ ____
ROOT
ATOM      1  N   UNL     1       2.837  -0.056   1.426  0.00  0.00    +0.000 N 
ATOM      2  H   UNL     1       3.572  -0.730   1.638  0.00  0.00    +0.000 HD
ENDROOT
BRANCH   1   3
ATOM      3  C   UNL     1       3.048   1.144   2.113  0.00  0.00    +0.000 A 
ATOM      4  C   UNL     1       2.404   2.338   1.802  0.00  0.00    +0.000 A 
ATOM      5  C   UNL     1       2.566   3.470   2.603  0.00  0.00    +0.000 A 
ATOM      6  C   UNL     1       3.372   3.380   3.727  0.00  0.00    +0.000 A 
ATOM      7  N   UNL     1       4.022   2.244   4.092  0.00  0.00    +0.000 NA
ATOM      8  C   UNL     1       3.824   1.167   3.285  0.00  0.00    +0.000 A 
BRANCH   6   9
ATOM      9  C   UNL     1       3.513   4.578   4.614  0.00  0.00    +0.000 C 
ATOM     10  N   UNL     1       4.326   4.424   5.707  0.00  0.00    +0.000 N 
ATOM     11  O   UNL     1       2.934   5.633   4.399  0.00  0.00    +0.000 OA
ATOM     12  H   UNL     1       4.761   3.528   5.888  0.00  0.00    +0.000 HD
ATOM     13  H   UNL     1       4.412   5.181   6.368  0.00  0.00    +0.000 HD
ENDBRANCH   6   9
ENDBRANCH   1   3
BRANCH   1  15
ATOM     14  C   UNL     1       0.968  -0.022  -0.227  0.00  0.00    +0.000 C 
ATOM     15  C   UNL     1       2.483  -0.081  -0.003  0.00  0.00    +0.000 C 
BRANCH  15  16
ATOM     16  C   UNL     1       3.040  -1.376  -0.592  0.00  0.00    +0.000 A 
ATOM     17  C   UNL     1       2.559  -2.632  -0.183  0.00  0.00    +0.000 A 
ATOM     18  C   UNL     1       3.111  -3.809  -0.693  0.00  0.00    +0.000 A 
ATOM     19  C   UNL     1       4.159  -3.751  -1.614  0.00  0.00    +0.000 A 
ATOM     20 CL   UNL     1       4.821  -5.245  -2.174  0.00  0.00    +0.000 Cl
ATOM     21  C   UNL     1       4.643  -2.509  -2.037  0.00  0.00    +0.000 A 
ATOM     22 CL   UNL     1       5.941  -2.356  -3.168  0.00  0.00    +0.000 Cl
ATOM     23  C   UNL     1       4.082  -1.330  -1.531  0.00  0.00    +0.000 A 
ENDBRANCH  15  16
ENDBRANCH   1  15
TORSDOF 4
