REMARK  Name = 
REMARK  4 active torsions:
REMARK  status: ('A' for Active; 'I' for Inactive)
REMARK    1  A    between atoms: C_2  and  C_4
REMARK    2  A    between atoms: C_7  and  N_8
REMARK    3  A    between atoms: N_8  and  C_9
REMARK    4  A    between atoms: C_9  and  C_10
REMARK                            x       y       z     vdW  Elec       q    Type
REMARK                         _______ _______ _______ _____ _____    ______ ____
ROOT
ATOM      1  N   UNL     1       5.149   3.398  -3.085  0.00  0.00    +0.000 N 
ATOM      2  H   UNL     1       5.363   2.775  -3.863  0.00  0.00    +0.000 HD
ENDROOT
BRANCH   1   6
ATOM      3  C   UNL     1       4.842   1.213   0.407  0.00  0.00    +0.000 A 
ATOM      4  C   UNL     1       5.371   2.500   0.446  0.00  0.00    +0.000 A 
ATOM      5  N   UNL     1       5.524   3.277  -0.677  0.00  0.00    +0.000 NA
ATOM      6  C   UNL     1       5.138   2.722  -1.847  0.00  0.00    +0.000 A 
ATOM      7  C   UNL     1       4.588   1.426  -1.841  0.00  0.00    +0.000 A 
ATOM      8  N   UNL     1       4.432   0.639  -0.748  0.00  0.00    +0.000 NA
BRANCH   3  10
ATOM      9  N   UNL     1       4.171  -0.861   1.450  0.00  0.00    +0.000 N 
ATOM     10  C   UNL     1       4.687   0.396   1.642  0.00  0.00    +0.000 C 
ATOM     11  O   UNL     1       4.987   0.815   2.751  0.00  0.00    +0.000 OA
ATOM     12  H   UNL     1       4.030  -1.476   2.238  0.00  0.00    +0.000 HD
ATOM     13  H   UNL     1       3.927  -1.164   0.513  0.00  0.00    +0.000 HD
ENDBRANCH   3  10
ENDBRANCH   1   6
BRANCH   1  14
ATOM     14  C   UNL     1       5.473   4.815  -3.299  0.00  0.00    +0.000 C 
ATOM     15  C   UNL     1       4.929   5.984  -2.493  0.00  0.00    +0.000 C 
ATOM     16  C   UNL     1       4.253   5.614  -3.766  0.00  0.00    +0.000 C 
BRANCH  14  17
ATOM     17  C   UNL     1       6.814   5.091  -3.971  0.00  0.00    +0.000 A 
ATOM     18  C   UNL     1       6.931   5.315  -5.352  0.00  0.00    +0.000 A 
ATOM     19  C   UNL     1       8.098   5.858  -5.885  0.00  0.00    +0.000 A 
ATOM     20  C   UNL     1       9.145   6.115  -5.020  0.00  0.00    +0.000 A 
ATOM     21 CL   UNL     1      10.540   6.954  -5.554  0.00  0.00    +0.000 Cl
ATOM     22  N   UNL     1       9.135   5.810  -3.708  0.00  0.00    +0.000 NA
ATOM     23  C   UNL     1       7.976   5.303  -3.222  0.00  0.00    +0.000 A 
ENDBRANCH  14  17
ENDBRANCH   1  14
TORSDOF 4
