REMARK  Name = 
REMARK  9 active torsions:
REMARK  status: ('A' for Active; 'I' for Inactive)
REMARK    1  A    between atoms: C_1  and  C_2
REMARK    2  A    between atoms: C_2  and  N_3
REMARK    3  A    between atoms: N_3  and  C_4
REMARK    4  A    between atoms: C_4  and  C_5
REMARK    5  A    between atoms: C_6  and  C_8
REMARK    6  A    between atoms: C_11  and  O_12
REMARK    7  A    between atoms: O_12  and  C_13
REMARK    8  A    between atoms: C_13  and  C_14
REMARK    9  A    between atoms: C_14  and  C_15
REMARK                            x       y       z     vdW  Elec       q    Type
REMARK                         _______ _______ _______ _____ _____    ______ ____
ROOT
ATOM      1  C   UNL     1       4.947   0.974  -3.010  0.00  0.00    +0.000 A 
ATOM      2  C   UNL     1       4.472   2.143  -3.598  0.00  0.00    +0.000 A 
ATOM      3  C   UNL     1       4.901   2.473  -4.886  0.00  0.00    +0.000 A 
ATOM      4  C   UNL     1       5.789   1.631  -5.547  0.00  0.00    +0.000 A 
ATOM      5  C   UNL     1       6.181   0.469  -4.894  0.00  0.00    +0.000 A 
ATOM      6  N   UNL     1       5.788   0.121  -3.648  0.00  0.00    +0.000 NA
ENDROOT
BRANCH   1   8
ATOM      7  N   UNL     1       5.288  -0.110  -0.745  0.00  0.00    +0.000 N 
ATOM      8  C   UNL     1       4.458   0.601  -1.639  0.00  0.00    +0.000 C 
ATOM      9  O   UNL     1       3.318   0.953  -1.333  0.00  0.00    +0.000 OA
BRANCH   7  11
ATOM     10  C   UNL     1       4.502   0.424   1.555  0.00  0.00    +0.000 C 
ATOM     11  C   UNL     1       4.654  -0.632   0.467  0.00  0.00    +0.000 C 
ENDBRANCH   7  11
BRANCH   7  12
ATOM     12  C   UNL     1       6.687  -0.432  -1.062  0.00  0.00    +0.000 C 
ATOM     13  C   UNL     1       7.593  -0.900   0.067  0.00  0.00    +0.000 C 
ENDBRANCH   7  12
ENDBRANCH   1   8
BRANCH   4  14
ATOM     14  O   UNL     1       6.304   1.822  -6.794  0.00  0.00    +0.000 OA
BRANCH  14  15
ATOM     15  C   UNL     1       6.325   3.170  -7.271  0.00  0.00    +0.000 C 
BRANCH  15  16
ATOM     16  C   UNL     1       7.401   3.260  -8.351  0.00  0.00    +0.000 C 
BRANCH  16  17
ATOM     17  C   UNL     1       7.573   4.664  -8.865  0.00  0.00    +0.000 A 
ATOM     18  C   UNL     1       8.436   5.555  -8.220  0.00  0.00    +0.000 A 
ATOM     19  C   UNL     1       8.547   6.846  -8.715  0.00  0.00    +0.000 A 
ATOM     20  N   UNL     1       7.867   7.301  -9.787  0.00  0.00    +0.000 NA
ATOM     21  C   UNL     1       7.038   6.424 -10.393  0.00  0.00    +0.000 A 
ATOM     22  C   UNL     1       6.857   5.115  -9.973  0.00  0.00    +0.000 A 
ENDBRANCH  16  17
ENDBRANCH  15  16
ENDBRANCH  14  15
ENDBRANCH   4  14
TORSDOF 7
