REMARK  Name = 
REMARK  5 active torsions:
REMARK  status: ('A' for Active; 'I' for Inactive)
REMARK    1  A    between atoms: N_1  and  C_2
REMARK    2  A    between atoms: C_2  and  C_3
REMARK    3  A    between atoms: C_6  and  C_7
REMARK    4  A    between atoms: C_7  and  N_8
REMARK    5  A    between atoms: C_13  and  C_14
REMARK                            x       y       z     vdW  Elec       q    Type
REMARK                         _______ _______ _______ _____ _____    ______ ____
ROOT
ATOM      1  N   UNL     1      -0.242   2.243   4.619  0.00  0.00    +0.000 N 
ATOM      2  C   UNL     1      -0.073   2.682   5.906  0.00  0.00    +0.000 A 
ATOM      3  N   UNL     1      -0.852   2.046   6.754  0.00  0.00    +0.000 NA
ATOM      4  C   UNL     1      -1.592   1.194   5.975  0.00  0.00    +0.000 A 
ATOM      5  C   UNL     1      -2.595   0.284   6.327  0.00  0.00    +0.000 A 
ATOM      6  C   UNL     1      -3.216  -0.415   5.284  0.00  0.00    +0.000 A 
ATOM      7  C   UNL     1      -2.778  -0.193   3.974  0.00  0.00    +0.000 A 
ATOM      8  N   UNL     1      -1.785   0.656   3.586  0.00  0.00    +0.000 NA
ATOM      9  C   UNL     1      -1.249   1.315   4.633  0.00  0.00    +0.000 A 
ENDROOT
BRANCH   6  10
ATOM     10  C   UNL     1      -4.336  -1.360   5.501  0.00  0.00    +0.000 C 
ATOM     11  N   UNL     1      -4.785  -1.565   6.776  0.00  0.00    +0.000 N 
ATOM     12  O   UNL     1      -4.864  -1.943   4.559  0.00  0.00    +0.000 OA
ATOM     13  H   UNL     1      -4.426  -1.113   7.603  0.00  0.00    +0.000 HD
ATOM     14  H   UNL     1      -5.572  -2.191   6.890  0.00  0.00    +0.000 HD
ENDBRANCH   6  10
BRANCH   1  15
ATOM     15  C   UNL     1       0.523   2.669   3.463  0.00  0.00    +0.000 C 
BRANCH  15  19
ATOM     16  C   UNL     1       3.089   0.722   1.288  0.00  0.00    +0.000 C 
ATOM     17  C   UNL     1       2.260   0.109   2.429  0.00  0.00    +0.000 C 
ATOM     18  C   UNL     1       2.360   0.889   3.740  0.00  0.00    +0.000 C 
ATOM     19  C   UNL     1       2.037   2.387   3.593  0.00  0.00    +0.000 C 
ATOM     20  C   UNL     1       2.831   3.004   2.429  0.00  0.00    +0.000 C 
ATOM     21  C   UNL     1       2.730   2.209   1.127  0.00  0.00    +0.000 C 
BRANCH  16  22
ATOM     22  C   UNL     1       4.612   0.529   1.456  0.00  0.00    +0.000 C 
BRANCH  22  23
ATOM     23  N   UNL     1       4.990  -0.881   1.454  0.00  0.00    +0.000 NA
ATOM     24  H   UNL     1       5.994  -0.964   1.617  0.00  0.00    +0.000 HD
ATOM     25  H   UNL     1       4.825  -1.278   0.527  0.00  0.00    +0.000 HD
ENDBRANCH  22  23
ENDBRANCH  16  22
ENDBRANCH  15  19
ENDBRANCH   1  15
TORSDOF 5
