REMARK  Name = 
REMARK  7 active torsions:
REMARK  status: ('A' for Active; 'I' for Inactive)
REMARK    1  A    between atoms: C_2  and  C_20
REMARK    2  A    between atoms: N_3  and  C_4
REMARK    3  A    between atoms: C_4  and  C_5
REMARK    4  A    between atoms: C_8  and  O_9
REMARK    5  A    between atoms: O_9  and  C_10
REMARK    6  A    between atoms: C_10  and  C_11
REMARK    7  A    between atoms: C_11  and  N_12
REMARK                            x       y       z     vdW  Elec       q    Type
REMARK                         _______ _______ _______ _____ _____    ______ ____
ROOT
ATOM      1  C   UNL     1       2.176  -1.964  -1.518  0.00  0.00    +0.000 C 
ENDROOT
BRANCH   1   2
ATOM      2  C   UNL     1       3.130  -2.936  -2.140  0.00  0.00    +0.000 A 
ATOM      3  C   UNL     1       4.274  -2.533  -2.836  0.00  0.00    +0.000 A 
ATOM      4  C   UNL     1       5.098  -3.495  -3.422  0.00  0.00    +0.000 A 
ATOM      5  C   UNL     1       4.757  -4.829  -3.270  0.00  0.00    +0.000 A 
ATOM      6  N   UNL     1       3.693  -5.243  -2.556  0.00  0.00    +0.000 NA
ATOM      7  C   UNL     1       2.907  -4.299  -2.009  0.00  0.00    +0.000 A 
BRANCH   5   8
ATOM      8  O   UNL     1       5.532  -5.761  -3.930  0.00  0.00    +0.000 OA
BRANCH   8   9
ATOM      9  C   UNL     1       5.078  -7.110  -3.732  0.00  0.00    +0.000 C 
BRANCH   9  10
ATOM     10  C   UNL     1       5.444  -7.939  -4.966  0.00  0.00    +0.000 C 
BRANCH  10  11
ATOM     11  N   UNL     1       4.928  -9.315  -4.903  0.00  0.00    +0.000 NA
ATOM     12  C   UNL     1       5.228 -10.149  -6.062  0.00  0.00    +0.000 C 
ATOM     13  C   UNL     1       4.556  -9.645  -7.334  0.00  0.00    +0.000 C 
ATOM     14  C   UNL     1       3.061  -9.431  -7.123  0.00  0.00    +0.000 C 
ATOM     15  C   UNL     1       2.739  -8.773  -5.788  0.00  0.00    +0.000 C 
ATOM     16  O   UNL     1       3.480  -9.339  -4.700  0.00  0.00    +0.000 OA
ENDBRANCH  10  11
ENDBRANCH   9  10
ENDBRANCH   8   9
ENDBRANCH   5   8
ENDBRANCH   1   2
BRANCH   1  19
ATOM     17  O   UNL     1       1.210  -3.208   0.813  0.00  0.00    +0.000 OA
ATOM     18  C   UNL     1       2.077  -2.344   0.916  0.00  0.00    +0.000 C 
ATOM     19  N   UNL     1       2.558  -1.654  -0.167  0.00  0.00    +0.000 N 
ATOM     20  H   UNL     1       3.402  -1.101  -0.062  0.00  0.00    +0.000 HD
BRANCH  18  21
ATOM     21  C   UNL     1       2.630  -1.958   2.219  0.00  0.00    +0.000 A 
ATOM     22  C   UNL     1       1.909  -2.210   3.378  0.00  0.00    +0.000 A 
ATOM     23  S   UNL     1       2.683  -1.664   4.796  0.00  0.00    +0.000 S 
ATOM     24  C   UNL     1       4.034  -1.119   3.916  0.00  0.00    +0.000 A 
ATOM     25  N   UNL     1       5.100  -0.559   4.546  0.00  0.00    +0.000 NA
ATOM     26  C   UNL     1       6.074  -0.233   3.764  0.00  0.00    +0.000 A 
ATOM     27  N   UNL     1       6.075  -0.405   2.404  0.00  0.00    +0.000 N 
ATOM     28  C   UNL     1       4.990  -0.891   1.717  0.00  0.00    +0.000 A 
ATOM     29  O   UNL     1       4.971  -0.900   0.489  0.00  0.00    +0.000 OA
ATOM     30  C   UNL     1       3.885  -1.323   2.555  0.00  0.00    +0.000 A 
ATOM     31  H   UNL     1       6.856  -0.097   1.844  0.00  0.00    +0.000 HD
ENDBRANCH  18  21
ENDBRANCH   1  19
TORSDOF 7
