REMARK  Name = 
REMARK  8 active torsions:
REMARK  status: ('A' for Active; 'I' for Inactive)
REMARK    1  A    between atoms: C_1  and  C_2
REMARK    2  A    between atoms: C_2  and  N_3
REMARK    3  A    between atoms: C_2  and  C_18
REMARK    4  A    between atoms: N_3  and  C_4
REMARK    5  A    between atoms: C_4  and  C_5
REMARK    6  A    between atoms: N_8  and  C_9
REMARK    7  A    between atoms: C_9  and  C_10
REMARK    8  A    between atoms: C_18  and  C_20
REMARK                            x       y       z     vdW  Elec       q    Type
REMARK                         _______ _______ _______ _____ _____    ______ ____
ROOT
ATOM      1  N   UNL     1       2.585   0.626   1.201  0.00  0.00    +0.000 NA
ATOM      2  H   UNL     1       3.595   0.519   1.251  0.00  0.00    +0.000 HD
ENDROOT
BRANCH   1   4
ATOM      3  C   UNL     1       2.777   0.353  -1.278  0.00  0.00    +0.000 C 
ATOM      4  C   UNL     1       2.106  -0.127   0.013  0.00  0.00    +0.000 C 
BRANCH   4   5
ATOM      5  C   UNL     1       0.564  -0.163  -0.112  0.00  0.00    +0.000 C 
ATOM      6  O   UNL     1      -0.000   0.407  -1.048  0.00  0.00    +0.000 OA
BRANCH   5   7
ATOM      7  C   UNL     1      -0.237  -0.868   0.905  0.00  0.00    +0.000 A 
ATOM      8  C   UNL     1       0.119  -0.974   2.239  0.00  0.00    +0.000 A 
ATOM      9  S   UNL     1      -1.112  -1.641   3.220  0.00  0.00    +0.000 S 
ATOM     10  C   UNL     1      -2.136  -1.859   1.879  0.00  0.00    +0.000 A 
ATOM     11  N   UNL     1      -3.396  -2.350   2.026  0.00  0.00    +0.000 NA
ATOM     12  C   UNL     1      -4.052  -2.459   0.918  0.00  0.00    +0.000 A 
ATOM     13  N   UNL     1      -3.553  -2.155  -0.324  0.00  0.00    +0.000 N 
ATOM     14  C   UNL     1      -2.244  -1.775  -0.529  0.00  0.00    +0.000 A 
ATOM     15  O   UNL     1      -1.746  -1.791  -1.650  0.00  0.00    +0.000 OA
ATOM     16  C   UNL     1      -1.519  -1.495   0.697  0.00  0.00    +0.000 A 
ATOM     17  H   UNL     1      -4.082  -2.368  -1.156  0.00  0.00    +0.000 HD
ENDBRANCH   5   7
ENDBRANCH   4   5
ENDBRANCH   1   4
BRANCH   1  18
ATOM     18  C   UNL     1       2.255   2.055   1.201  0.00  0.00    +0.000 C 
BRANCH  18  19
ATOM     19  C   UNL     1       2.772   2.757   2.485  0.00  0.00    +0.000 C 
ATOM     20  C   UNL     1       2.423   4.254   2.473  0.00  0.00    +0.000 C 
ATOM     21  C   UNL     1       3.239   5.034   1.436  0.00  0.00    +0.000 C 
ATOM     22  N   UNL     1       4.692   4.839   1.582  0.00  0.00    +0.000 NA
ATOM     23  C   UNL     1       5.068   3.418   1.630  0.00  0.00    +0.000 C 
ATOM     24  C   UNL     1       4.289   2.652   2.700  0.00  0.00    +0.000 C 
BRANCH  22  25
ATOM     25  C   UNL     1       5.438   5.507   0.494  0.00  0.00    +0.000 C 
BRANCH  25  26
ATOM     26  C   UNL     1       5.246   7.001   0.459  0.00  0.00    +0.000 A 
ATOM     27  C   UNL     1       5.603   7.811   1.539  0.00  0.00    +0.000 A 
ATOM     28  C   UNL     1       5.356   9.179   1.487  0.00  0.00    +0.000 A 
ATOM     29  C   UNL     1       4.765   9.694   0.344  0.00  0.00    +0.000 A 
ATOM     30  N   UNL     1       4.427   8.949  -0.730  0.00  0.00    +0.000 NA
ATOM     31  C   UNL     1       4.674   7.623  -0.648  0.00  0.00    +0.000 A 
ENDBRANCH  25  26
ENDBRANCH  22  25
ENDBRANCH  18  19
ENDBRANCH   1  18
TORSDOF 7
