REMARK  Name = 
REMARK  6 active torsions:
REMARK  status: ('A' for Active; 'I' for Inactive)
REMARK    1  A    between atoms: N_1  and  C_2
REMARK    2  A    between atoms: C_2  and  C_3
REMARK    3  A    between atoms: C_3  and  C_4
REMARK    4  A    between atoms: C_7  and  C_8
REMARK    5  A    between atoms: C_8  and  N_9
REMARK    6  A    between atoms: C_14  and  C_15
REMARK                            x       y       z     vdW  Elec       q    Type
REMARK                         _______ _______ _______ _____ _____    ______ ____
ROOT
ATOM      1  N   UNL     1       9.218  -2.209  -0.812  0.00  0.00    +0.000 N 
ATOM      2  C   UNL     1       9.167  -2.937   0.347  0.00  0.00    +0.000 A 
ATOM      3  N   UNL     1       9.674  -4.138   0.188  0.00  0.00    +0.000 NA
ATOM      4  C   UNL     1      10.083  -4.185  -1.120  0.00  0.00    +0.000 A 
ATOM      5  C   UNL     1      10.660  -5.248  -1.829  0.00  0.00    +0.000 A 
ATOM      6  C   UNL     1      11.001  -5.066  -3.181  0.00  0.00    +0.000 A 
ATOM      7  C   UNL     1      10.797  -3.814  -3.787  0.00  0.00    +0.000 A 
ATOM      8  C   UNL     1      10.220  -2.742  -3.095  0.00  0.00    +0.000 A 
ATOM      9  C   UNL     1       9.850  -2.972  -1.765  0.00  0.00    +0.000 A 
ENDROOT
BRANCH   6  10
ATOM     10  C   UNL     1      11.560  -6.207  -3.992  0.00  0.00    +0.000 C 
ATOM     11  F   UNL     1      11.684  -7.371  -3.296  0.00  0.00    +0.000 F 
ATOM     12  F   UNL     1      10.781  -6.501  -5.071  0.00  0.00    +0.000 F 
ATOM     13  F   UNL     1      12.797  -5.936  -4.491  0.00  0.00    +0.000 F 
ENDBRANCH   6  10
BRANCH   1  14
ATOM     14  C   UNL     1       8.685  -0.871  -0.974  0.00  0.00    +0.000 C 
BRANCH  14  18
ATOM     15  C   UNL     1       4.434  -0.781  -0.571  0.00  0.00    +0.000 A 
ATOM     16  C   UNL     1       4.988  -1.063  -1.820  0.00  0.00    +0.000 A 
ATOM     17  C   UNL     1       6.374  -1.114  -1.969  0.00  0.00    +0.000 A 
ATOM     18  C   UNL     1       7.181  -0.860  -0.862  0.00  0.00    +0.000 A 
ATOM     19  N   UNL     1       6.664  -0.607   0.365  0.00  0.00    +0.000 NA
ATOM     20  C   UNL     1       5.317  -0.588   0.485  0.00  0.00    +0.000 A 
BRANCH  15  21
ATOM     21  C   UNL     1       2.943  -0.699  -0.367  0.00  0.00    +0.000 C 
BRANCH  21  22
ATOM     22  C   UNL     1       2.496   0.691   0.110  0.00  0.00    +0.000 C 
BRANCH  22  23
ATOM     23  N   UNL     1       1.049   0.751   0.293  0.00  0.00    +0.000 NA
ATOM     24  H   UNL     1       0.792   1.679   0.630  0.00  0.00    +0.000 HD
ATOM     25  H   UNL     1       0.764   0.099   1.025  0.00  0.00    +0.000 HD
ENDBRANCH  22  23
ENDBRANCH  21  22
ENDBRANCH  15  21
ENDBRANCH  14  18
ENDBRANCH   1  14
TORSDOF 6
