REMARK  Name = 
REMARK  11 active torsions:
REMARK  status: ('A' for Active; 'I' for Inactive)
REMARK    1  A    between atoms: C_1  and  O_2
REMARK    2  A    between atoms: O_2  and  C_3
REMARK    3  A    between atoms: C_5  and  C_6
REMARK    4  A    between atoms: C_6  and  C_7
REMARK    5  A    between atoms: C_6  and  N_8
REMARK    6  A    between atoms: C_6  and  C_9
REMARK    7  A    between atoms: C_9  and  O_10
REMARK    8  A    between atoms: N_15  and  C_16
REMARK    9  A    between atoms: C_16  and  C_17
REMARK   10  A    between atoms: C_20  and  C_21
REMARK   11  A    between atoms: C_21  and  N_22
REMARK                            x       y       z     vdW  Elec       q    Type
REMARK                         _______ _______ _______ _____ _____    ______ ____
ROOT
ATOM      1  C   UNL     1       6.103  -0.138  -5.811  0.00  0.00    +0.000 A 
ATOM      2  C   UNL     1       4.923  -0.527  -5.144  0.00  0.00    +0.000 A 
ATOM      3  C   UNL     1       3.632  -0.253  -5.615  0.00  0.00    +0.000 A 
ATOM      4  C   UNL     1       3.522   0.549  -6.756  0.00  0.00    +0.000 A 
ATOM      5  C   UNL     1       4.681   1.032  -7.417  0.00  0.00    +0.000 A 
ATOM      6  C   UNL     1       4.848   1.857  -8.560  0.00  0.00    +0.000 A 
ATOM      7  C   UNL     1       6.195   2.003  -8.775  0.00  0.00    +0.000 A 
ATOM      8  N   UNL     1       6.872   1.278  -7.816  0.00  0.00    +0.000 N 
ATOM      9  C   UNL     1       5.961   0.683  -6.948  0.00  0.00    +0.000 A 
ENDROOT
BRANCH   1  11
ATOM     10  C   UNL     1       7.334  -1.799  -4.685  0.00  0.00    +0.000 C 
ATOM     11  O   UNL     1       7.344  -0.544  -5.376  0.00  0.00    +0.000 OA
ENDBRANCH   1  11
BRANCH   3  12
ATOM     12  C   UNL     1       2.436  -0.901  -4.891  0.00  0.00    +0.000 C 
ATOM     13  C   UNL     1       1.054  -0.504  -5.447  0.00  0.00    +0.000 C 
BRANCH  12  14
ATOM     14  N   UNL     1       2.468  -0.502  -3.468  0.00  0.00    +0.000 NA
ATOM     15  H   UNL     1       1.648  -0.872  -2.991  0.00  0.00    +0.000 HD
ATOM     16  H   UNL     1       2.395   0.515  -3.413  0.00  0.00    +0.000 HD
ENDBRANCH  12  14
BRANCH  12  17
ATOM     17  C   UNL     1       2.564  -2.462  -4.980  0.00  0.00    +0.000 C 
BRANCH  17  18
ATOM     18  O   UNL     1       2.336  -2.957  -6.302  0.00  0.00    +0.000 OA
ATOM     19  H   UNL     1       2.881  -2.420  -6.906  0.00  0.00    +0.000 HD
ENDBRANCH  17  18
ENDBRANCH  12  17
ENDBRANCH   3  12
BRANCH   8  20
ATOM     20  C   UNL     1       8.337   1.279  -7.736  0.00  0.00    +0.000 C 
BRANCH  20  21
ATOM     21  C   UNL     1       8.951   0.233  -8.641  0.00  0.00    +0.000 A 
ATOM     22  C   UNL     1       9.151   0.470 -10.009  0.00  0.00    +0.000 A 
ATOM     23  C   UNL     1       9.528  -0.574 -10.865  0.00  0.00    +0.000 A 
ATOM     24  C   UNL     1       9.715  -1.872 -10.368  0.00  0.00    +0.000 A 
ATOM     25  C   UNL     1       9.635  -2.072  -8.985  0.00  0.00    +0.000 A 
ATOM     26  C   UNL     1       9.263  -1.029  -8.133  0.00  0.00    +0.000 A 
BRANCH  24  27
ATOM     27  C   UNL     1       9.788  -3.039 -11.325  0.00  0.00    +0.000 C 
BRANCH  27  28
ATOM     28  N   UNL     1      10.599  -4.153 -10.846  0.00  0.00    +0.000 NA
ATOM     29  H   UNL     1      11.579  -3.876 -10.865  0.00  0.00    +0.000 HD
ATOM     30  H   UNL     1      10.504  -4.930 -11.496  0.00  0.00    +0.000 HD
ENDBRANCH  27  28
ENDBRANCH  24  27
ENDBRANCH  20  21
ENDBRANCH   8  20
TORSDOF 9
