REMARK  Name = 
REMARK  3 active torsions:
REMARK  status: ('A' for Active; 'I' for Inactive)
REMARK    1  A    between atoms: C_2  and  C_4
REMARK    2  A    between atoms: N_8  and  C_9
REMARK    3  A    between atoms: C_9  and  C_10
REMARK                            x       y       z     vdW  Elec       q    Type
REMARK                         _______ _______ _______ _____ _____    ______ ____
ROOT
ATOM      1  C   UNL     1       1.386   1.326  -2.015  0.00  0.00    +0.000 A 
ATOM      2  C   UNL     1       2.451   0.676  -2.628  0.00  0.00    +0.000 A 
ATOM      3  C   UNL     1       3.547   1.429  -3.044  0.00  0.00    +0.000 A 
ATOM      4  C   UNL     1       3.555   2.812  -2.859  0.00  0.00    +0.000 A 
ATOM      5  N   UNL     1       4.744   3.491  -3.187  0.00  0.00    +0.000 N 
ATOM      6  N   UNL     1       2.491   3.450  -2.335  0.00  0.00    +0.000 NA
ATOM      7  C   UNL     1       1.429   2.709  -1.929  0.00  0.00    +0.000 A 
ATOM      8  H   UNL     1       5.504   3.128  -2.619  0.00  0.00    +0.000 HD
ENDROOT
BRANCH   1  10
ATOM      9  N   UNL     1       0.494  -0.642  -0.932  0.00  0.00    +0.000 N 
ATOM     10  C   UNL     1       0.241   0.610  -1.425  0.00  0.00    +0.000 C 
ATOM     11  O   UNL     1      -0.856   1.128  -1.322  0.00  0.00    +0.000 OA
ATOM     12  H   UNL     1      -0.253  -1.075  -0.402  0.00  0.00    +0.000 HD
ATOM     13  H   UNL     1       1.431  -0.988  -0.783  0.00  0.00    +0.000 HD
ENDBRANCH   1  10
BRANCH   5  14
ATOM     14  C   UNL     1       4.849   4.913  -3.543  0.00  0.00    +0.000 C 
ATOM     15  C   UNL     1       4.951   5.933  -2.420  0.00  0.00    +0.000 C 
ATOM     16  C   UNL     1       3.773   5.967  -3.336  0.00  0.00    +0.000 C 
BRANCH  14  17
ATOM     17  C   UNL     1       5.662   5.124  -4.809  0.00  0.00    +0.000 A 
ATOM     18  C   UNL     1       5.051   5.031  -6.067  0.00  0.00    +0.000 A 
ATOM     19  C   UNL     1       5.720   5.451  -7.211  0.00  0.00    +0.000 A 
ATOM     20  C   UNL     1       7.016   5.912  -7.072  0.00  0.00    +0.000 A 
ATOM     21  N   UNL     1       7.689   5.919  -5.902  0.00  0.00    +0.000 NA
ATOM     22  C   UNL     1       6.999   5.520  -4.807  0.00  0.00    +0.000 A 
ENDBRANCH  14  17
ENDBRANCH   5  14
TORSDOF 3
