REMARK  Name = 
REMARK  6 active torsions:
REMARK  status: ('A' for Active; 'I' for Inactive)
REMARK    1  A    between atoms: C_2  and  C_20
REMARK    2  A    between atoms: N_3  and  C_4
REMARK    3  A    between atoms: C_4  and  C_5
REMARK    4  A    between atoms: C_8  and  C_9
REMARK    5  A    between atoms: C_9  and  N_10
REMARK    6  A    between atoms: C_11  and  C_13
REMARK                            x       y       z     vdW  Elec       q    Type
REMARK                         _______ _______ _______ _____ _____    ______ ____
ROOT
ATOM      1  C   UNL     1       2.304   1.763   1.781  0.00  0.00    +0.000 C 
ENDROOT
BRANCH   1   2
ATOM      2  C   UNL     1       3.207   2.711   2.531  0.00  0.00    +0.000 A 
ATOM      3  C   UNL     1       3.058   4.098   2.393  0.00  0.00    +0.000 A 
ATOM      4  C   UNL     1       3.845   4.982   3.142  0.00  0.00    +0.000 A 
ATOM      5  C   UNL     1       4.817   4.499   4.028  0.00  0.00    +0.000 A 
ATOM      6  C   UNL     1       4.981   3.112   4.149  0.00  0.00    +0.000 A 
ATOM      7  C   UNL     1       4.192   2.228   3.401  0.00  0.00    +0.000 A 
BRANCH   5   8
ATOM      8  C   UNL     1       5.668   5.444   4.840  0.00  0.00    +0.000 C 
BRANCH   8   9
ATOM      9  N   UNL     1       5.080   5.759   6.118  0.00  0.00    +0.000 N 
ATOM     10  C   UNL     1       5.730   6.585   7.020  0.00  0.00    +0.000 C 
ATOM     11  O   UNL     1       6.777   7.167   6.766  0.00  0.00    +0.000 OA
ATOM     12  H   UNL     1       4.357   5.159   6.505  0.00  0.00    +0.000 HD
BRANCH  10  13
ATOM     13  C   UNL     1       4.955   6.769   8.336  0.00  0.00    +0.000 C 
ATOM     14  C   UNL     1       5.854   7.037   9.535  0.00  0.00    +0.000 C 
ATOM     15  C   UNL     1       5.031   6.499  10.678  0.00  0.00    +0.000 C 
ATOM     16  C   UNL     1       4.371   5.294  10.048  0.00  0.00    +0.000 C 
ATOM     17  O   UNL     1       4.158   5.615   8.666  0.00  0.00    +0.000 OA
ENDBRANCH  10  13
ENDBRANCH   8   9
ENDBRANCH   5   8
ENDBRANCH   1   2
BRANCH   1  20
ATOM     18  O   UNL     1       1.098  -0.040   0.082  0.00  0.00    +0.000 OA
ATOM     19  C   UNL     1       2.104   0.540  -0.319  0.00  0.00    +0.000 C 
ATOM     20  N   UNL     1       2.813   1.407   0.481  0.00  0.00    +0.000 N 
ATOM     21  H   UNL     1       3.492   2.032   0.057  0.00  0.00    +0.000 HD
BRANCH  19  22
ATOM     22  C   UNL     1       2.626   0.304  -1.670  0.00  0.00    +0.000 A 
ATOM     23  C   UNL     1       2.357  -0.893  -2.319  0.00  0.00    +0.000 A 
ATOM     24  S   UNL     1       3.031  -0.988  -3.884  0.00  0.00    +0.000 S 
ATOM     25  C   UNL     1       3.663   0.587  -3.766  0.00  0.00    +0.000 A 
ATOM     26  N   UNL     1       4.332   1.153  -4.806  0.00  0.00    +0.000 NA
ATOM     27  C   UNL     1       4.718   2.369  -4.591  0.00  0.00    +0.000 A 
ATOM     28  N   UNL     1       4.509   3.060  -3.428  0.00  0.00    +0.000 N 
ATOM     29  C   UNL     1       3.883   2.512  -2.335  0.00  0.00    +0.000 A 
ATOM     30  O   UNL     1       3.779   3.130  -1.280  0.00  0.00    +0.000 OA
ATOM     31  C   UNL     1       3.395   1.162  -2.537  0.00  0.00    +0.000 A 
ATOM     32  H   UNL     1       4.857   4.001  -3.316  0.00  0.00    +0.000 HD
ENDBRANCH  19  22
ENDBRANCH   1  20
TORSDOF 6
