REMARK  Name = 
REMARK  6 active torsions:
REMARK  status: ('A' for Active; 'I' for Inactive)
REMARK    1  A    between atoms: C_2  and  C_25
REMARK    2  A    between atoms: N_3  and  C_4
REMARK    3  A    between atoms: C_4  and  C_5
REMARK    4  A    between atoms: C_8  and  C_9
REMARK    5  A    between atoms: C_9  and  N_10
REMARK    6  A    between atoms: C_11  and  C_13
REMARK                            x       y       z     vdW  Elec       q    Type
REMARK                         _______ _______ _______ _____ _____    ______ ____
ROOT
ATOM      1  C   UNL     1       3.233  -1.668  -3.109  0.00  0.00    +0.000 A 
ATOM      2  C   UNL     1       4.114  -0.811  -3.783  0.00  0.00    +0.000 A 
ATOM      3  C   UNL     1       5.001  -1.311  -4.741  0.00  0.00    +0.000 A 
ATOM      4  C   UNL     1       5.011  -2.675  -5.060  0.00  0.00    +0.000 A 
ATOM      5  C   UNL     1       4.143  -3.534  -4.372  0.00  0.00    +0.000 A 
ATOM      6  C   UNL     1       3.255  -3.034  -3.415  0.00  0.00    +0.000 A 
ENDROOT
BRANCH   1   7
ATOM      7  C   UNL     1       2.265  -1.127  -2.091  0.00  0.00    +0.000 C 
BRANCH   7  10
ATOM      8  O   UNL     1       0.094  -0.106  -0.727  0.00  0.00    +0.000 OA
ATOM      9  C   UNL     1      -0.014  -0.230  -1.945  0.00  0.00    +0.000 C 
ATOM     10  N   UNL     1       1.022  -0.732  -2.706  0.00  0.00    +0.000 N 
ATOM     11  H   UNL     1       0.923  -0.785  -3.710  0.00  0.00    +0.000 HD
BRANCH   9  12
ATOM     12  C   UNL     1      -1.218   0.143  -2.662  0.00  0.00    +0.000 A 
ATOM     13  C   UNL     1      -2.351   0.732  -2.132  0.00  0.00    +0.000 A 
ATOM     14  N   UNL     1      -3.380   0.978  -3.023  0.00  0.00    +0.000 NA
ATOM     15  C   UNL     1      -3.019   0.570  -4.218  0.00  0.00    +0.000 A 
ATOM     16  S   UNL     1      -1.448  -0.110  -4.343  0.00  0.00    +0.000 S 
ENDBRANCH   9  12
ENDBRANCH   7  10
ENDBRANCH   1   7
BRANCH   4  17
ATOM     17  C   UNL     1       5.973  -3.225  -6.082  0.00  0.00    +0.000 C 
BRANCH  17  18
ATOM     18  N   UNL     1       7.209  -3.620  -5.458  0.00  0.00    +0.000 N 
ATOM     19  C   UNL     1       8.272  -4.078  -6.193  0.00  0.00    +0.000 C 
ATOM     20  O   UNL     1       8.246  -4.124  -7.420  0.00  0.00    +0.000 OA
ATOM     21  H   UNL     1       7.172  -3.817  -4.464  0.00  0.00    +0.000 HD
BRANCH  19  22
ATOM     22  C   UNL     1       9.475  -4.448  -5.434  0.00  0.00    +0.000 A 
ATOM     23  C   UNL     1      10.713  -4.453  -6.059  0.00  0.00    +0.000 A 
ATOM     24  S   UNL     1      12.006  -4.821  -5.009  0.00  0.00    +0.000 S 
ATOM     25  C   UNL     1      10.949  -5.044  -3.694  0.00  0.00    +0.000 A 
ATOM     26  N   UNL     1      11.420  -5.392  -2.466  0.00  0.00    +0.000 NA
ATOM     27  C   UNL     1      10.505  -5.560  -1.571  0.00  0.00    +0.000 A 
ATOM     28  N   UNL     1       9.161  -5.411  -1.792  0.00  0.00    +0.000 N 
ATOM     29  C   UNL     1       8.641  -5.042  -3.008  0.00  0.00    +0.000 A 
ATOM     30  O   UNL     1       7.433  -4.895  -3.165  0.00  0.00    +0.000 OA
ATOM     31  C   UNL     1       9.629  -4.836  -4.051  0.00  0.00    +0.000 A 
ATOM     32  H   UNL     1       8.494  -5.558  -1.049  0.00  0.00    +0.000 HD
ENDBRANCH  19  22
ENDBRANCH  17  18
ENDBRANCH   4  17
TORSDOF 6
