REMARK  Name = 
REMARK  10 active torsions:
REMARK  status: ('A' for Active; 'I' for Inactive)
REMARK    1  A    between atoms: C_1  and  C_2
REMARK    2  A    between atoms: C_2  and  N_3
REMARK    3  A    between atoms: N_3  and  C_4
REMARK    4  A    between atoms: N_3  and  C_25
REMARK    5  A    between atoms: C_4  and  C_5
REMARK    6  A    between atoms: C_8  and  C_9
REMARK    7  A    between atoms: C_9  and  N_10
REMARK    8  A    between atoms: C_11  and  C_13
REMARK    9  A    between atoms: C_25  and  C_26
REMARK   10  A    between atoms: C_25  and  C_27
REMARK                            x       y       z     vdW  Elec       q    Type
REMARK                         _______ _______ _______ _____ _____    ______ ____
ROOT
ATOM      1  C   UNL     1       0.877  -2.299  -0.727  0.00  0.00    +0.000 A 
ATOM      2  C   UNL     1       0.301  -3.497  -0.281  0.00  0.00    +0.000 A 
ATOM      3  C   UNL     1      -1.088  -3.640  -0.184  0.00  0.00    +0.000 A 
ATOM      4  C   UNL     1      -1.934  -2.576  -0.517  0.00  0.00    +0.000 A 
ATOM      5  C   UNL     1      -1.367  -1.385  -0.977  0.00  0.00    +0.000 A 
ATOM      6  C   UNL     1       0.018  -1.252  -1.088  0.00  0.00    +0.000 A 
ENDROOT
BRANCH   1   7
ATOM      7  C   UNL     1       2.375  -2.073  -0.666  0.00  0.00    +0.000 C 
BRANCH   7   8
ATOM      8  N   UNL     1       3.219  -2.459  -1.816  0.00  0.00    +0.000 NA
BRANCH   8  10
ATOM      9  C   UNL     1       3.050  -0.125  -2.855  0.00  0.00    +0.000 C 
ATOM     10  C   UNL     1       2.964  -1.643  -3.022  0.00  0.00    +0.000 C 
ENDBRANCH   8  10
BRANCH   8  11
ATOM     11  C   UNL     1       3.228  -3.918  -2.132  0.00  0.00    +0.000 C 
ATOM     12  C   UNL     1       4.273  -4.285  -3.209  0.00  0.00    +0.000 C 
BRANCH  11  13
ATOM     13  C   UNL     1       3.499  -4.859  -0.955  0.00  0.00    +0.000 A 
ATOM     14  C   UNL     1       2.851  -6.104  -0.916  0.00  0.00    +0.000 A 
ATOM     15  C   UNL     1       3.076  -6.952   0.157  0.00  0.00    +0.000 A 
ATOM     16  N   UNL     1       3.901  -6.660   1.181  0.00  0.00    +0.000 NA
ATOM     17  C   UNL     1       4.552  -5.478   1.111  0.00  0.00    +0.000 A 
ATOM     18  C   UNL     1       4.403  -4.568   0.072  0.00  0.00    +0.000 A 
ENDBRANCH  11  13
ENDBRANCH   8  11
ENDBRANCH   7   8
ENDBRANCH   1   7
BRANCH   4  19
ATOM     19  C   UNL     1      -3.417  -2.650  -0.266  0.00  0.00    +0.000 C 
BRANCH  19  20
ATOM     20  N   UNL     1      -3.714  -2.243   1.086  0.00  0.00    +0.000 N 
ATOM     21  C   UNL     1      -4.994  -2.244   1.571  0.00  0.00    +0.000 C 
ATOM     22  O   UNL     1      -5.943  -2.640   0.897  0.00  0.00    +0.000 OA
ATOM     23  H   UNL     1      -2.994  -1.721   1.576  0.00  0.00    +0.000 HD
BRANCH  21  24
ATOM     24  C   UNL     1      -5.171  -1.807   2.961  0.00  0.00    +0.000 A 
ATOM     25  C   UNL     1      -6.298  -2.204   3.668  0.00  0.00    +0.000 A 
ATOM     26  S   UNL     1      -6.323  -1.661   5.283  0.00  0.00    +0.000 S 
ATOM     27  C   UNL     1      -4.853  -0.830   5.082  0.00  0.00    +0.000 A 
ATOM     28  N   UNL     1      -4.305  -0.121   6.108  0.00  0.00    +0.000 NA
ATOM     29  C   UNL     1      -3.203   0.481   5.812  0.00  0.00    +0.000 A 
ATOM     30  N   UNL     1      -2.597   0.441   4.583  0.00  0.00    +0.000 N 
ATOM     31  C   UNL     1      -3.100  -0.278   3.524  0.00  0.00    +0.000 A 
ATOM     32  O   UNL     1      -2.521  -0.310   2.444  0.00  0.00    +0.000 OA
ATOM     33  C   UNL     1      -4.342  -0.974   3.805  0.00  0.00    +0.000 A 
ATOM     34  H   UNL     1      -1.735   0.937   4.416  0.00  0.00    +0.000 HD
ENDBRANCH  21  24
ENDBRANCH  19  20
ENDBRANCH   4  19
TORSDOF 8
