REMARK  Name = 
REMARK  5 active torsions:
REMARK  status: ('A' for Active; 'I' for Inactive)
REMARK    1  A    between atoms: N_1  and  C_2
REMARK    2  A    between atoms: C_2  and  C_3
REMARK    3  A    between atoms: C_3  and  C_4
REMARK    4  A    between atoms: C_7  and  C_8
REMARK    5  A    between atoms: C_8  and  N_9
REMARK                            x       y       z     vdW  Elec       q    Type
REMARK                         _______ _______ _______ _____ _____    ______ ____
ROOT
ATOM      1  C   UNL     1       4.358  -1.068   0.805  0.00  0.00    +0.000 A 
ATOM      2  C   UNL     1       5.053   0.005   0.233  0.00  0.00    +0.000 A 
ATOM      3  C   UNL     1       6.450   0.073   0.305  0.00  0.00    +0.000 A 
ATOM      4  C   UNL     1       7.184  -0.931   0.952  0.00  0.00    +0.000 A 
ATOM      5  C   UNL     1       6.488  -2.019   1.497  0.00  0.00    +0.000 A 
ATOM      6  C   UNL     1       5.092  -2.090   1.418  0.00  0.00    +0.000 A 
ENDROOT
BRANCH   1   7
ATOM      7  C   UNL     1       2.847  -1.113   0.785  0.00  0.00    +0.000 C 
BRANCH   7   8
ATOM      8  C   UNL     1       2.281  -1.813  -0.456  0.00  0.00    +0.000 C 
BRANCH   8   9
ATOM      9  N   UNL     1       0.817  -1.847  -0.424  0.00  0.00    +0.000 NA
ATOM     10  H   UNL     1       0.473  -2.317  -1.261  0.00  0.00    +0.000 HD
ATOM     11  H   UNL     1       0.448  -0.897  -0.462  0.00  0.00    +0.000 HD
ENDBRANCH   8   9
ENDBRANCH   7   8
ENDBRANCH   1   7
BRANCH   4  12
ATOM     12  C   UNL     1       8.687  -0.846   1.067  0.00  0.00    +0.000 C 
BRANCH  12  13
ATOM     13  N   UNL     1       9.125  -0.175   2.289  0.00  0.00    +0.000 N 
ATOM     14  C   UNL     1       9.378  -0.820   3.482  0.00  0.00    +0.000 A 
ATOM     15  C   UNL     1       9.888   0.102   4.372  0.00  0.00    +0.000 A 
ATOM     16  C   UNL     1       9.966   1.340   3.695  0.00  0.00    +0.000 A 
ATOM     17  N   UNL     1      10.430   2.525   4.148  0.00  0.00    +0.000 NA
ATOM     18  C   UNL     1      10.382   3.497   3.228  0.00  0.00    +0.000 A 
ATOM     19  N   UNL     1       9.936   3.415   1.959  0.00  0.00    +0.000 NA
ATOM     20  C   UNL     1       9.473   2.223   1.529  0.00  0.00    +0.000 A 
ATOM     21  C   UNL     1       9.488   1.152   2.402  0.00  0.00    +0.000 A 
ENDBRANCH  12  13
ENDBRANCH   4  12
TORSDOF 5
