REMARK  Name = 
REMARK  6 active torsions:
REMARK  status: ('A' for Active; 'I' for Inactive)
REMARK    1  A    between atoms: C_2  and  C_3
REMARK    2  A    between atoms: C_6  and  C_7
REMARK    3  A    between atoms: C_7  and  N_8
REMARK    4  A    between atoms: N_8  and  C_9
REMARK    5  A    between atoms: C_12  and  C_13
REMARK    6  A    between atoms: C_21  and  O_22
REMARK                            x       y       z     vdW  Elec       q    Type
REMARK                         _______ _______ _______ _____ _____    ______ ____
ROOT
ATOM      1  C   UNL     1       7.860   0.194  -0.529  0.00  0.00    +0.000 C 
ATOM      2  C   UNL     1       8.522  -0.459  -1.727  0.00  0.00    +0.000 C 
ATOM      3  C   UNL     1       8.790  -1.007  -0.367  0.00  0.00    +0.000 C 
ENDROOT
BRANCH   1   7
ATOM      4  C   UNL     1       3.593  -0.444   0.065  0.00  0.00    +0.000 A 
ATOM      5  C   UNL     1       4.513  -0.875   1.026  0.00  0.00    +0.000 A 
ATOM      6  C   UNL     1       5.879  -0.654   0.832  0.00  0.00    +0.000 A 
ATOM      7  C   UNL     1       6.365  -0.028  -0.328  0.00  0.00    +0.000 A 
ATOM      8  C   UNL     1       5.419   0.404  -1.278  0.00  0.00    +0.000 A 
ATOM      9  C   UNL     1       4.050   0.207  -1.076  0.00  0.00    +0.000 A 
BRANCH   4  11
ATOM     10  N   UNL     1       1.074  -0.885   0.507  0.00  0.00    +0.000 NA
ATOM     11  C   UNL     1       2.197  -0.673   0.286  0.00  0.00    +0.000 C 
ENDBRANCH   4  11
BRANCH   9  12
ATOM     12  O   UNL     1       3.153   0.654  -2.006  0.00  0.00    +0.000 OA
ATOM     13  H   UNL     1       3.606   1.218  -2.654  0.00  0.00    +0.000 HD
ENDBRANCH   9  12
ENDBRANCH   1   7
BRANCH   1  14
ATOM     14  N   UNL     1       8.345   1.434   0.089  0.00  0.00    +0.000 N 
ATOM     15  H   UNL     1       8.953   1.339   0.897  0.00  0.00    +0.000 HD
BRANCH  14  16
ATOM     16  C   UNL     1       8.455   2.687  -0.534  0.00  0.00    +0.000 A 
ATOM     17  C   UNL     1       8.098   2.929  -1.860  0.00  0.00    +0.000 A 
ATOM     18  C   UNL     1       8.290   4.190  -2.442  0.00  0.00    +0.000 A 
ATOM     19  C   UNL     1       8.818   5.243  -1.689  0.00  0.00    +0.000 A 
ATOM     20  C   UNL     1       9.064   5.039  -0.328  0.00  0.00    +0.000 A 
ATOM     21  C   UNL     1       8.873   3.777   0.241  0.00  0.00    +0.000 A 
BRANCH  19  22
ATOM     22  C   UNL     1       9.175   6.569  -2.269  0.00  0.00    +0.000 C 
ATOM     23  N   UNL     1       9.020   6.756  -3.614  0.00  0.00    +0.000 N 
ATOM     24  O   UNL     1       9.635   7.469  -1.575  0.00  0.00    +0.000 OA
ATOM     25  H   UNL     1       8.747   6.045  -4.271  0.00  0.00    +0.000 HD
ATOM     26  H   UNL     1       9.349   7.638  -3.985  0.00  0.00    +0.000 HD
ENDBRANCH  19  22
ENDBRANCH  14  16
ENDBRANCH   1  14
TORSDOF 6
