REMARK  Name = 
REMARK  7 active torsions:
REMARK  status: ('A' for Active; 'I' for Inactive)
REMARK    1  A    between atoms: C_1  and  C_2
REMARK    2  A    between atoms: C_2  and  C_3
REMARK    3  A    between atoms: C_2  and  C_4
REMARK    4  A    between atoms: C_2  and  C_5
REMARK    5  A    between atoms: C_8  and  C_9
REMARK    6  A    between atoms: C_9  and  N_10
REMARK    7  A    between atoms: C_15  and  C_16
REMARK                            x       y       z     vdW  Elec       q    Type
REMARK                         _______ _______ _______ _____ _____    ______ ____
ROOT
ATOM      1  N   UNL     1       4.879  -6.075   0.570  0.00  0.00    +0.000 N 
ATOM      2  C   UNL     1       4.004  -6.771   1.382  0.00  0.00    +0.000 A 
ATOM      3  C   UNL     1       4.647  -7.073   2.562  0.00  0.00    +0.000 A 
ATOM      4  C   UNL     1       5.988  -6.637   2.439  0.00  0.00    +0.000 A 
ATOM      5  C   UNL     1       7.123  -6.684   3.270  0.00  0.00    +0.000 A 
ATOM      6  C   UNL     1       8.336  -6.156   2.801  0.00  0.00    +0.000 A 
ATOM      7  C   UNL     1       8.384  -5.591   1.538  0.00  0.00    +0.000 A 
ATOM      8  N   UNL     1       7.257  -5.547   0.744  0.00  0.00    +0.000 N 
ATOM      9  O   UNL     1       7.362  -5.034  -0.416  0.00  0.00    +0.000 OA
ATOM     10  C   UNL     1       6.114  -6.044   1.183  0.00  0.00    +0.000 A 
ENDROOT
BRANCH   6  11
ATOM     11  C   UNL     1       9.530  -6.247   3.682  0.00  0.00    +0.000 C 
ATOM     12  N   UNL     1      10.720  -5.747   3.226  0.00  0.00    +0.000 N 
ATOM     13  O   UNL     1       9.465  -6.764   4.789  0.00  0.00    +0.000 OA
ATOM     14  H   UNL     1      10.888  -5.322   2.334  0.00  0.00    +0.000 HD
ATOM     15  H   UNL     1      11.511  -5.844   3.853  0.00  0.00    +0.000 HD
ENDBRANCH   6  11
BRANCH   1  16
ATOM     16  C   UNL     1       4.488  -5.501  -0.717  0.00  0.00    +0.000 C 
BRANCH  16  20
ATOM     17  C   UNL     1       2.931  -1.453  -0.237  0.00  0.00    +0.000 A 
ATOM     18  C   UNL     1       4.288  -1.690  -0.502  0.00  0.00    +0.000 A 
ATOM     19  C   UNL     1       4.798  -2.980  -0.675  0.00  0.00    +0.000 A 
ATOM     20  C   UNL     1       3.960  -4.093  -0.572  0.00  0.00    +0.000 A 
ATOM     21  C   UNL     1       2.601  -3.872  -0.324  0.00  0.00    +0.000 A 
ATOM     22  C   UNL     1       2.089  -2.575  -0.170  0.00  0.00    +0.000 A 
BRANCH  17  24
ATOM     23  C   UNL     1       3.501   1.053  -0.131  0.00  0.00    +0.000 C 
ATOM     24  C   UNL     1       2.394  -0.025  -0.046  0.00  0.00    +0.000 C 
ATOM     25  C   UNL     1       1.739   0.112   1.343  0.00  0.00    +0.000 C 
ATOM     26  C   UNL     1       1.354   0.283  -1.140  0.00  0.00    +0.000 C 
ENDBRANCH  17  24
ENDBRANCH  16  20
ENDBRANCH   1  16
TORSDOF 4
