REMARK  Name = 
REMARK  6 active torsions:
REMARK  status: ('A' for Active; 'I' for Inactive)
REMARK    1  A    between atoms: C_2  and  C_4
REMARK    2  A    between atoms: C_7  and  O_8
REMARK    3  A    between atoms: O_8  and  C_9
REMARK    4  A    between atoms: C_9  and  C_10
REMARK    5  A    between atoms: C_14  and  C_15
REMARK    6  A    between atoms: C_19  and  O_20
REMARK                            x       y       z     vdW  Elec       q    Type
REMARK                         _______ _______ _______ _____ _____    ______ ____
ROOT
ATOM      1  C   UNL     1       4.947   4.404   4.011  0.00  0.00    +0.000 C 
ATOM      2  C   UNL     1       4.740   3.865   5.420  0.00  0.00    +0.000 C 
ATOM      3  C   UNL     1       3.572   4.388   4.653  0.00  0.00    +0.000 C 
ENDROOT
BRANCH   1   4
ATOM      4  C   UNL     1       5.700   5.710   3.831  0.00  0.00    +0.000 A 
ATOM      5  C   UNL     1       7.079   5.785   4.069  0.00  0.00    +0.000 A 
ATOM      6  C   UNL     1       7.791   6.958   3.824  0.00  0.00    +0.000 A 
ATOM      7  C   UNL     1       7.135   8.084   3.320  0.00  0.00    +0.000 A 
ATOM      8  C   UNL     1       5.759   8.064   3.048  0.00  0.00    +0.000 A 
ATOM      9  C   UNL     1       5.069   6.871   3.341  0.00  0.00    +0.000 A 
BRANCH   8  10
ATOM     10  C   UNL     1       5.066   9.208   2.407  0.00  0.00    +0.000 A 
ATOM     11  C   UNL     1       5.708   9.989   1.426  0.00  0.00    +0.000 A 
ATOM     12  C   UNL     1       5.042  11.025   0.756  0.00  0.00    +0.000 A 
ATOM     13  C   UNL     1       3.712  11.292   1.041  0.00  0.00    +0.000 A 
ATOM     14  C   UNL     1       3.061  10.535   2.005  0.00  0.00    +0.000 A 
ATOM     15  C   UNL     1       3.726   9.519   2.695  0.00  0.00    +0.000 A 
BRANCH  14  16
ATOM     16  O   UNL     1       1.744  10.744   2.294  0.00  0.00    +0.000 OA
ATOM     17  H   UNL     1       1.392  11.410   1.680  0.00  0.00    +0.000 HD
ENDBRANCH  14  16
ENDBRANCH   8  10
ENDBRANCH   1   4
BRANCH   1  18
ATOM     18  O   UNL     1       5.311   3.332   3.105  0.00  0.00    +0.000 OA
BRANCH  18  22
ATOM     19  C   UNL     1       3.492   2.721  -0.594  0.00  0.00    +0.000 A 
ATOM     20  C   UNL     1       3.124   3.845   0.153  0.00  0.00    +0.000 A 
ATOM     21  C   UNL     1       3.733   4.102   1.385  0.00  0.00    +0.000 A 
ATOM     22  C   UNL     1       4.706   3.237   1.880  0.00  0.00    +0.000 A 
ATOM     23  C   UNL     1       5.100   2.135   1.116  0.00  0.00    +0.000 A 
ATOM     24  C   UNL     1       4.491   1.869  -0.112  0.00  0.00    +0.000 A 
BRANCH  19  26
ATOM     25  N   UNL     1       2.206   3.387  -2.553  0.00  0.00    +0.000 N 
ATOM     26  C   UNL     1       2.798   2.367  -1.858  0.00  0.00    +0.000 C 
ATOM     27  O   UNL     1       2.757   1.214  -2.269  0.00  0.00    +0.000 OA
ATOM     28  H   UNL     1       1.789   3.140  -3.443  0.00  0.00    +0.000 HD
ATOM     29  H   UNL     1       2.422   4.357  -2.385  0.00  0.00    +0.000 HD
ENDBRANCH  19  26
ENDBRANCH  18  22
ENDBRANCH   1  18
TORSDOF 6
