REMARK  Name = 
REMARK  5 active torsions:
REMARK  status: ('A' for Active; 'I' for Inactive)
REMARK    1  A    between atoms: C_2  and  C_4
REMARK    2  A    between atoms: C_7  and  O_8
REMARK    3  A    between atoms: O_8  and  C_9
REMARK    4  A    between atoms: C_9  and  C_10
REMARK    5  A    between atoms: C_14  and  C_15
REMARK                            x       y       z     vdW  Elec       q    Type
REMARK                         _______ _______ _______ _____ _____    ______ ____
ROOT
ATOM      1  C   UNL     1       5.243   0.802   5.793  0.00  0.00    +0.000 C 
ENDROOT
BRANCH   1   2
ATOM      2  C   UNL     1       6.225   1.292   6.825  0.00  0.00    +0.000 A 
ATOM      3  C   UNL     1       6.982   0.381   7.550  0.00  0.00    +0.000 A 
ATOM      4  N   UNL     1       7.831   0.727   8.539  0.00  0.00    +0.000 NA
ATOM      5  C   UNL     1       7.920   2.047   8.830  0.00  0.00    +0.000 A 
ATOM      6  C   UNL     1       7.216   3.066   8.184  0.00  0.00    +0.000 A 
ATOM      7  C   UNL     1       6.350   2.645   7.162  0.00  0.00    +0.000 A 
BRANCH   6   8
ATOM      8  C   UNL     1       7.362   4.490   8.549  0.00  0.00    +0.000 A 
ATOM      9  C   UNL     1       8.582   5.017   8.997  0.00  0.00    +0.000 A 
ATOM     10  C   UNL     1       8.669   6.365   9.320  0.00  0.00    +0.000 A 
ATOM     11  N   UNL     1       7.640   7.228   9.224  0.00  0.00    +0.000 NA
ATOM     12  C   UNL     1       6.474   6.715   8.791  0.00  0.00    +0.000 A 
ATOM     13  F   UNL     1       5.433   7.552   8.677  0.00  0.00    +0.000 F 
ATOM     14  C   UNL     1       6.287   5.385   8.454  0.00  0.00    +0.000 A 
ENDBRANCH   6   8
ENDBRANCH   1   2
BRANCH   1  15
ATOM     15  O   UNL     1       5.079   1.769   4.749  0.00  0.00    +0.000 OA
BRANCH  15  19
ATOM     16  C   UNL     1       2.358   0.595   1.892  0.00  0.00    +0.000 A 
ATOM     17  C   UNL     1       2.994   1.831   1.773  0.00  0.00    +0.000 A 
ATOM     18  C   UNL     1       3.912   2.222   2.750  0.00  0.00    +0.000 A 
ATOM     19  C   UNL     1       4.161   1.357   3.805  0.00  0.00    +0.000 A 
ATOM     20  N   UNL     1       3.554   0.161   3.950  0.00  0.00    +0.000 NA
ATOM     21  C   UNL     1       2.659  -0.191   2.997  0.00  0.00    +0.000 A 
BRANCH  16  23
ATOM     22  N   UNL     1       1.451   0.538  -0.363  0.00  0.00    +0.000 N 
ATOM     23  C   UNL     1       1.367   0.086   0.923  0.00  0.00    +0.000 C 
ATOM     24  O   UNL     1       0.526  -0.741   1.249  0.00  0.00    +0.000 OA
ATOM     25  H   UNL     1       0.835   0.092  -1.032  0.00  0.00    +0.000 HD
ATOM     26  H   UNL     1       2.268   1.008  -0.725  0.00  0.00    +0.000 HD
ENDBRANCH  16  23
ENDBRANCH  15  19
ENDBRANCH   1  15
TORSDOF 5
