REMARK  Name = 
REMARK  4 active torsions:
REMARK  status: ('A' for Active; 'I' for Inactive)
REMARK    1  A    between atoms: C_2  and  C_4
REMARK    2  A    between atoms: N_8  and  C_9
REMARK    3  A    between atoms: C_9  and  C_10
REMARK    4  A    between atoms: C_14  and  C_15
REMARK                            x       y       z     vdW  Elec       q    Type
REMARK                         _______ _______ _______ _____ _____    ______ ____
ROOT
ATOM      1  C   UNL     1       5.450  -3.487   4.574  0.00  0.00    +0.000 C 
ATOM      2  C   UNL     1       5.298  -4.928   4.095  0.00  0.00    +0.000 C 
ATOM      3  C   UNL     1       4.148  -4.242   4.751  0.00  0.00    +0.000 C 
ENDROOT
BRANCH   1   8
ATOM      4  C   UNL     1       3.909   1.258   3.091  0.00  0.00    +0.000 A 
ATOM      5  C   UNL     1       3.159   0.244   3.679  0.00  0.00    +0.000 A 
ATOM      6  C   UNL     1       3.737  -1.013   3.868  0.00  0.00    +0.000 A 
ATOM      7  C   UNL     1       5.046  -1.239   3.460  0.00  0.00    +0.000 A 
ATOM      8  N   UNL     1       5.654  -2.497   3.501  0.00  0.00    +0.000 N 
ATOM      9  N   UNL     1       5.788  -0.259   2.898  0.00  0.00    +0.000 NA
ATOM     10  C   UNL     1       5.210   0.960   2.722  0.00  0.00    +0.000 A 
ATOM     11  H   UNL     1       6.621  -2.340   3.220  0.00  0.00    +0.000 HD
BRANCH   4  13
ATOM     12  N   UNL     1       2.296   3.024   3.543  0.00  0.00    +0.000 N 
ATOM     13  C   UNL     1       3.369   2.601   2.800  0.00  0.00    +0.000 C 
ATOM     14  O   UNL     1       3.859   3.315   1.937  0.00  0.00    +0.000 OA
ATOM     15  H   UNL     1       1.985   3.973   3.380  0.00  0.00    +0.000 HD
ATOM     16  H   UNL     1       2.021   2.580   4.407  0.00  0.00    +0.000 HD
ENDBRANCH   4  13
ENDBRANCH   1   8
BRANCH   1  17
ATOM     17  C   UNL     1       6.336  -3.229   5.790  0.00  0.00    +0.000 A 
ATOM     18  C   UNL     1       7.592  -3.845   5.916  0.00  0.00    +0.000 A 
ATOM     19  C   UNL     1       8.455  -3.533   6.963  0.00  0.00    +0.000 A 
ATOM     20  C   UNL     1       8.089  -2.566   7.895  0.00  0.00    +0.000 A 
ATOM     21  C   UNL     1       6.856  -1.898   7.808  0.00  0.00    +0.000 A 
ATOM     22  C   UNL     1       5.982  -2.276   6.769  0.00  0.00    +0.000 A 
BRANCH  21  23
ATOM     23  C   UNL     1       6.537  -0.787   8.720  0.00  0.00    +0.000 A 
ATOM     24  C   UNL     1       7.486   0.146   9.115  0.00  0.00    +0.000 A 
ATOM     25  N   UNL     1       7.251   1.192   9.937  0.00  0.00    +0.000 NA
ATOM     26  C   UNL     1       5.992   1.313  10.370  0.00  0.00    +0.000 A 
ATOM     27  N   UNL     1       4.975   0.495  10.064  0.00  0.00    +0.000 NA
ATOM     28  C   UNL     1       5.279  -0.538   9.243  0.00  0.00    +0.000 A 
ENDBRANCH  21  23
ENDBRANCH   1  17
TORSDOF 4
