REMARK  Name = 
REMARK  4 active torsions:
REMARK  status: ('A' for Active; 'I' for Inactive)
REMARK    1  A    between atoms: C_2  and  C_4
REMARK    2  A    between atoms: C_7  and  N_8
REMARK    3  A    between atoms: N_8  and  C_9
REMARK    4  A    between atoms: C_9  and  C_10
REMARK                            x       y       z     vdW  Elec       q    Type
REMARK                         _______ _______ _______ _____ _____    ______ ____
ROOT
ATOM      1  C   UNL     1       3.150   3.199   1.645  0.00  0.00    +0.000 A 
ATOM      2  C   UNL     1       2.486   2.636   2.726  0.00  0.00    +0.000 A 
ATOM      3  N   UNL     1       3.133   2.026   3.760  0.00  0.00    +0.000 NA
ATOM      4  C   UNL     1       4.480   1.980   3.682  0.00  0.00    +0.000 A 
ATOM      5  C   UNL     1       5.128   2.553   2.569  0.00  0.00    +0.000 A 
ATOM      6  N   UNL     1       4.503   3.179   1.536  0.00  0.00    +0.000 NA
ENDROOT
BRANCH   1   8
ATOM      7  N   UNL     1       3.088   4.327  -0.518  0.00  0.00    +0.000 N 
ATOM      8  C   UNL     1       2.371   3.834   0.542  0.00  0.00    +0.000 C 
ATOM      9  O   UNL     1       1.147   3.903   0.566  0.00  0.00    +0.000 OA
ATOM     10  H   UNL     1       2.587   4.709  -1.306  0.00  0.00    +0.000 HD
ATOM     11  H   UNL     1       4.086   4.167  -0.584  0.00  0.00    +0.000 HD
ENDBRANCH   1   8
BRANCH   4  12
ATOM     12  N   UNL     1       5.244   1.218   4.601  0.00  0.00    +0.000 N 
ATOM     13  H   UNL     1       6.200   1.568   4.617  0.00  0.00    +0.000 HD
BRANCH  12  14
ATOM     14  C   UNL     1       4.781   1.076   6.020  0.00  0.00    +0.000 C 
ATOM     15  C   UNL     1       4.879  -0.355   6.554  0.00  0.00    +0.000 C 
ATOM     16  C   UNL     1       3.545   0.309   6.456  0.00  0.00    +0.000 C 
BRANCH  14  17
ATOM     17  C   UNL     1       5.277   2.226   6.931  0.00  0.00    +0.000 A 
ATOM     18  N   UNL     1       4.388   2.955   7.641  0.00  0.00    +0.000 NA
ATOM     19  C   UNL     1       4.849   4.040   8.287  0.00  0.00    +0.000 A 
ATOM     20  C   UNL     1       6.164   4.430   8.271  0.00  0.00    +0.000 A 
ATOM     21  C   UNL     1       7.008   3.622   7.553  0.00  0.00    +0.000 A 
ATOM     22  N   UNL     1       6.599   2.532   6.874  0.00  0.00    +0.000 NA
ENDBRANCH  14  17
ENDBRANCH  12  14
ENDBRANCH   4  12
TORSDOF 4
