REMARK  Name = 
REMARK  8 active torsions:
REMARK  status: ('A' for Active; 'I' for Inactive)
REMARK    1  A    between atoms: C_2  and  C_22
REMARK    2  A    between atoms: N_3  and  C_4
REMARK    3  A    between atoms: C_4  and  C_5
REMARK    4  A    between atoms: C_8  and  C_9
REMARK    5  A    between atoms: C_9  and  N_10
REMARK    6  A    between atoms: N_10  and  C_11
REMARK    7  A    between atoms: C_11  and  C_12
REMARK    8  A    between atoms: C_12  and  O_13
REMARK                            x       y       z     vdW  Elec       q    Type
REMARK                         _______ _______ _______ _____ _____    ______ ____
ROOT
ATOM      1  C   UNL     1       2.878  -2.832   2.495  0.00  0.00    +0.000 A 
ATOM      2  C   UNL     1       3.293  -2.323   3.732  0.00  0.00    +0.000 A 
ATOM      3  C   UNL     1       4.045  -3.106   4.616  0.00  0.00    +0.000 A 
ATOM      4  C   UNL     1       4.448  -4.404   4.265  0.00  0.00    +0.000 A 
ATOM      5  C   UNL     1       3.971  -4.942   3.062  0.00  0.00    +0.000 A 
ATOM      6  C   UNL     1       3.198  -4.162   2.185  0.00  0.00    +0.000 A 
ENDROOT
BRANCH   1   7
ATOM      7  C   UNL     1       2.075  -1.971   1.551  0.00  0.00    +0.000 C 
BRANCH   7  10
ATOM      8  O   UNL     1       0.990  -0.442  -0.421  0.00  0.00    +0.000 OA
ATOM      9  C   UNL     1       2.210  -0.375  -0.279  0.00  0.00    +0.000 C 
ATOM     10  N   UNL     1       2.868  -1.166   0.641  0.00  0.00    +0.000 N 
ATOM     11  H   UNL     1       3.831  -0.953   0.888  0.00  0.00    +0.000 HD
BRANCH   9  12
ATOM     12  C   UNL     1       3.000   0.544  -1.113  0.00  0.00    +0.000 A 
ATOM     13  C   UNL     1       2.489   0.958  -2.339  0.00  0.00    +0.000 A 
ATOM     14  S   UNL     1       3.487   2.063  -3.168  0.00  0.00    +0.000 S 
ATOM     15  C   UNL     1       4.616   2.069  -1.894  0.00  0.00    +0.000 A 
ATOM     16  N   UNL     1       5.706   2.878  -1.937  0.00  0.00    +0.000 NA
ATOM     17  C   UNL     1       6.455   2.822  -0.888  0.00  0.00    +0.000 A 
ATOM     18  N   UNL     1       6.224   2.009   0.194  0.00  0.00    +0.000 N 
ATOM     19  C   UNL     1       5.157   1.127   0.253  0.00  0.00    +0.000 A 
ATOM     20  O   UNL     1       5.024   0.353   1.196  0.00  0.00    +0.000 OA
ATOM     21  C   UNL     1       4.261   1.197  -0.877  0.00  0.00    +0.000 A 
ATOM     22  H   UNL     1       6.866   1.991   0.968  0.00  0.00    +0.000 HD
ENDBRANCH   9  12
ENDBRANCH   7  10
ENDBRANCH   1   7
BRANCH   4  23
ATOM     23  C   UNL     1       5.564  -5.077   5.043  0.00  0.00    +0.000 C 
BRANCH  23  24
ATOM     24  N   UNL     1       5.189  -5.806   6.260  0.00  0.00    +0.000 N 
ATOM     25  C   UNL     1       6.200  -5.837   7.253  0.00  0.00    +0.000 A 
ATOM     26  C   UNL     1       7.564  -5.595   6.993  0.00  0.00    +0.000 A 
ATOM     27  N   UNL     1       8.541  -5.543   7.935  0.00  0.00    +0.000 NA
ATOM     28  C   UNL     1       8.117  -5.753   9.194  0.00  0.00    +0.000 A 
ATOM     29  C   UNL     1       6.796  -6.038   9.479  0.00  0.00    +0.000 A 
ATOM     30  N   UNL     1       5.829  -6.101   8.527  0.00  0.00    +0.000 NA
BRANCH  24  31
ATOM     31  C   UNL     1       4.631  -7.169   6.076  0.00  0.00    +0.000 C 
BRANCH  31  32
ATOM     32  C   UNL     1       3.384  -7.430   6.935  0.00  0.00    +0.000 C 
BRANCH  32  33
ATOM     33  O   UNL     1       2.245  -6.730   6.438  0.00  0.00    +0.000 OA
ATOM     34  H   UNL     1       2.023  -6.064   7.112  0.00  0.00    +0.000 HD
ENDBRANCH  32  33
ENDBRANCH  31  32
ENDBRANCH  24  31
ENDBRANCH  23  24
ENDBRANCH   4  23
TORSDOF 8
