REMARK  Name = 
REMARK  12 active torsions:
REMARK  status: ('A' for Active; 'I' for Inactive)
REMARK    1  A    between atoms: C_1  and  O_2
REMARK    2  A    between atoms: O_2  and  C_3
REMARK    3  A    between atoms: C_3  and  C_4
REMARK    4  A    between atoms: C_4  and  N_5
REMARK    5  A    between atoms: C_4  and  C_28
REMARK    6  A    between atoms: N_5  and  C_6
REMARK    7  A    between atoms: C_6  and  C_7
REMARK    8  A    between atoms: C_10  and  C_11
REMARK    9  A    between atoms: C_11  and  N_12
REMARK   10  A    between atoms: C_13  and  C_15
REMARK   11  A    between atoms: C_22  and  O_23
REMARK   12  A    between atoms: O_23  and  C_24
REMARK                            x       y       z     vdW  Elec       q    Type
REMARK                         _______ _______ _______ _____ _____    ______ ____
ROOT
ATOM      1  C   UNL     1       4.830  -2.196   1.798  0.00  0.00    +0.000 A 
ATOM      2  C   UNL     1       5.269  -1.955   3.106  0.00  0.00    +0.000 A 
ATOM      3  C   UNL     1       5.578  -3.020   3.958  0.00  0.00    +0.000 A 
ATOM      4  C   UNL     1       5.458  -4.347   3.520  0.00  0.00    +0.000 A 
ATOM      5  C   UNL     1       5.012  -4.588   2.215  0.00  0.00    +0.000 A 
ATOM      6  C   UNL     1       4.708  -3.525   1.363  0.00  0.00    +0.000 A 
ENDROOT
BRANCH   1   7
ATOM      7  C   UNL     1       4.374  -1.074   0.892  0.00  0.00    +0.000 C 
BRANCH   7   8
ATOM      8  N   UNL     1       5.382  -0.037   0.668  0.00  0.00    +0.000 NA
ATOM      9  H   UNL     1       5.595   0.403   1.564  0.00  0.00    +0.000 HD
BRANCH   8  10
ATOM     10  C   UNL     1       4.904   1.052  -0.224  0.00  0.00    +0.000 C 
BRANCH  10  11
ATOM     11  C   UNL     1       4.589   0.546  -1.630  0.00  0.00    +0.000 A 
ATOM     12  C   UNL     1       5.631   0.365  -2.553  0.00  0.00    +0.000 A 
ATOM     13  C   UNL     1       5.380  -0.172  -3.818  0.00  0.00    +0.000 A 
ATOM     14  C   UNL     1       4.086  -0.543  -4.177  0.00  0.00    +0.000 A 
ATOM     15  C   UNL     1       3.040  -0.374  -3.278  0.00  0.00    +0.000 A 
ATOM     16  C   UNL     1       3.289   0.171  -2.018  0.00  0.00    +0.000 A 
ENDBRANCH  10  11
BRANCH  10  17
ATOM     17  C   UNL     1       3.760   1.906   0.389  0.00  0.00    +0.000 C 
BRANCH  17  19
ATOM     18  C   UNL     1       3.042   3.151   2.246  0.00  0.00    +0.000 C 
ATOM     19  O   UNL     1       4.108   2.381   1.697  0.00  0.00    +0.000 OA
ENDBRANCH  17  19
ENDBRANCH  10  17
ENDBRANCH   8  10
ENDBRANCH   7   8
ENDBRANCH   1   7
BRANCH   4  20
ATOM     20  C   UNL     1       5.740  -5.496   4.449  0.00  0.00    +0.000 C 
BRANCH  20  21
ATOM     21  N   UNL     1       4.548  -5.883   5.163  0.00  0.00    +0.000 N 
ATOM     22  C   UNL     1       4.574  -6.846   6.139  0.00  0.00    +0.000 C 
ATOM     23  O   UNL     1       5.612  -7.390   6.504  0.00  0.00    +0.000 OA
ATOM     24  H   UNL     1       3.661  -5.535   4.820  0.00  0.00    +0.000 HD
BRANCH  22  25
ATOM     25  C   UNL     1       3.294  -7.153   6.753  0.00  0.00    +0.000 A 
ATOM     26  C   UNL     1       3.179  -7.738   8.001  0.00  0.00    +0.000 A 
ATOM     27  O   UNL     1       1.882  -7.891   8.360  0.00  0.00    +0.000 OA
ATOM     28  C   UNL     1       1.126  -7.428   7.327  0.00  0.00    +0.000 A 
ATOM     29  N   UNL     1      -0.214  -7.440   7.347  0.00  0.00    +0.000 NA
ATOM     30  C   UNL     1      -0.729  -6.952   6.214  0.00  0.00    +0.000 A 
ATOM     31  N   UNL     1      -0.066  -6.489   5.138  0.00  0.00    +0.000 NA
ATOM     32  C   UNL     1       1.283  -6.502   5.175  0.00  0.00    +0.000 A 
ATOM     33  C   UNL     1       1.947  -6.973   6.306  0.00  0.00    +0.000 A 
BRANCH  32  34
ATOM     34  O   UNL     1       2.011  -6.047   4.095  0.00  0.00    +0.000 OA
ATOM     35  C   UNL     1       1.210  -5.596   3.009  0.00  0.00    +0.000 C 
ENDBRANCH  32  34
ENDBRANCH  22  25
ENDBRANCH  20  21
ENDBRANCH   4  20
TORSDOF 10
