REMARK  Name = 
REMARK  12 active torsions:
REMARK  status: ('A' for Active; 'I' for Inactive)
REMARK    1  A    between atoms: C_1  and  O_2
REMARK    2  A    between atoms: O_2  and  C_3
REMARK    3  A    between atoms: C_5  and  C_6
REMARK    4  A    between atoms: C_6  and  C_7
REMARK    5  A    between atoms: C_6  and  C_8
REMARK    6  A    between atoms: C_6  and  C_9
REMARK    7  A    between atoms: C_9  and  N_10
REMARK    8  A    between atoms: N_10  and  C_11
REMARK    9  A    between atoms: C_16  and  C_17
REMARK   10  A    between atoms: C_28  and  O_29
REMARK   11  A    between atoms: O_29  and  C_30
REMARK   12  A    between atoms: C_31  and  O_32
REMARK                            x       y       z     vdW  Elec       q    Type
REMARK                         _______ _______ _______ _____ _____    ______ ____
ROOT
ATOM      1  N   UNL     1       0.340   6.118   0.272  0.00  0.00    +0.000 N 
ATOM      2  H   UNL     1       0.671   6.869  -0.330  0.00  0.00    +0.000 HD
ENDROOT
BRANCH   1   3
ATOM      3  C   UNL     1      -1.061   6.099   0.316  0.00  0.00    +0.000 A 
ATOM      4  C   UNL     1      -1.819   4.922   0.301  0.00  0.00    +0.000 A 
ATOM      5  C   UNL     1      -3.211   4.949   0.394  0.00  0.00    +0.000 A 
ATOM      6  C   UNL     1      -3.876   6.163   0.543  0.00  0.00    +0.000 A 
ATOM      7 CL   UNL     1      -5.601   6.122   0.660  0.00  0.00    +0.000 Cl
ATOM      8  C   UNL     1      -3.150   7.362   0.603  0.00  0.00    +0.000 A 
ATOM      9  C   UNL     1      -1.746   7.314   0.487  0.00  0.00    +0.000 A 
BRANCH   8  10
ATOM     10  C   UNL     1      -3.797   8.665   0.817  0.00  0.00    +0.000 C 
ATOM     11  C   UNL     1      -3.982   9.148   2.060  0.00  0.00    +0.000 C 
ATOM     12  C   UNL     1      -4.644  10.463   2.368  0.00  0.00    +0.000 C 
ATOM     13  N   UNL     1      -4.932  11.219   1.151  0.00  0.00    +0.000 N 
ATOM     14  C   UNL     1      -5.061  12.584   1.076  0.00  0.00    +0.000 C 
ATOM     15  N   UNL     1      -4.886  13.287   2.220  0.00  0.00    +0.000 N 
ATOM     16  O   UNL     1      -5.353  13.199   0.055  0.00  0.00    +0.000 OA
ATOM     17  C   UNL     1      -5.366  10.425   0.001  0.00  0.00    +0.000 C 
ATOM     18  C   UNL     1      -4.297   9.405  -0.394  0.00  0.00    +0.000 C 
ATOM     19  H   UNL     1      -4.255  12.965   2.934  0.00  0.00    +0.000 HD
ATOM     20  H   UNL     1      -4.881  14.288   2.068  0.00  0.00    +0.000 HD
ENDBRANCH   8  10
ENDBRANCH   1   3
BRANCH   1  21
ATOM     21  C   UNL     1       1.047   4.842   0.108  0.00  0.00    +0.000 C 
BRANCH  21  22
ATOM     22  C   UNL     1       2.601   4.949   0.067  0.00  0.00    +0.000 C 
ATOM     23  C   UNL     1       3.088   5.632   1.365  0.00  0.00    +0.000 C 
ATOM     24  C   UNL     1       3.013   5.794  -1.159  0.00  0.00    +0.000 C 
BRANCH  22  27
ATOM     25  C   UNL     1       3.176   1.099  -0.199  0.00  0.00    +0.000 A 
ATOM     26  C   UNL     1       2.542   2.345  -0.094  0.00  0.00    +0.000 A 
ATOM     27  C   UNL     1       3.276   3.551  -0.047  0.00  0.00    +0.000 A 
ATOM     28  C   UNL     1       4.682   3.465  -0.107  0.00  0.00    +0.000 A 
ATOM     29  C   UNL     1       5.334   2.232  -0.214  0.00  0.00    +0.000 A 
ATOM     30  C   UNL     1       4.570   1.062  -0.257  0.00  0.00    +0.000 A 
BRANCH  25  32
ATOM     31  C   UNL     1       1.111  -0.107  -0.199  0.00  0.00    +0.000 C 
ATOM     32  O   UNL     1       2.530  -0.109  -0.251  0.00  0.00    +0.000 OA
ENDBRANCH  25  32
BRANCH  29  33
ATOM     33  O   UNL     1       6.693   2.050  -0.284  0.00  0.00    +0.000 OA
ATOM     34  C   UNL     1       7.493   3.227  -0.258  0.00  0.00    +0.000 C 
ENDBRANCH  29  33
BRANCH  30  35
ATOM     35  O   UNL     1       5.217  -0.147  -0.360  0.00  0.00    +0.000 OA
ATOM     36  H   UNL     1       6.167   0.073  -0.380  0.00  0.00    +0.000 HD
ENDBRANCH  30  35
ENDBRANCH  22  27
ENDBRANCH  21  22
ENDBRANCH   1  21
TORSDOF 8
