REMARK  Name = 
REMARK  10 active torsions:
REMARK  status: ('A' for Active; 'I' for Inactive)
REMARK    1  A    between atoms: C_1  and  C_2
REMARK    2  A    between atoms: C_2  and  N_3
REMARK    3  A    between atoms: C_2  and  C_20
REMARK    4  A    between atoms: N_3  and  C_4
REMARK    5  A    between atoms: C_4  and  C_5
REMARK    6  A    between atoms: C_8  and  C_9
REMARK    7  A    between atoms: C_9  and  C_10
REMARK    8  A    between atoms: C_9  and  C_12
REMARK    9  A    between atoms: C_10  and  O_11
REMARK   10  A    between atoms: C_12  and  N_13
REMARK                            x       y       z     vdW  Elec       q    Type
REMARK                         _______ _______ _______ _____ _____    ______ ____
ROOT
ATOM      1  C   UNL     1      -7.194   3.108  -2.335  0.00  0.00    +0.000 C 
ENDROOT
BRANCH   1   2
ATOM      2  C   UNL     1      -6.605   1.838  -1.762  0.00  0.00    +0.000 A 
ATOM      3  C   UNL     1      -5.251   1.726  -1.433  0.00  0.00    +0.000 A 
ATOM      4  C   UNL     1      -4.760   0.577  -0.801  0.00  0.00    +0.000 A 
ATOM      5  C   UNL     1      -5.610  -0.499  -0.487  0.00  0.00    +0.000 A 
ATOM      6  C   UNL     1      -6.969  -0.376  -0.794  0.00  0.00    +0.000 A 
ATOM      7  C   UNL     1      -7.456   0.773  -1.426  0.00  0.00    +0.000 A 
BRANCH   5   8
ATOM      8  C   UNL     1      -5.043  -1.760   0.166  0.00  0.00    +0.000 C 
BRANCH   8   9
ATOM      9  C   UNL     1      -5.116  -2.987  -0.763  0.00  0.00    +0.000 C 
BRANCH   9  10
ATOM     10  O   UNL     1      -6.453  -3.423  -0.994  0.00  0.00    +0.000 OA
ATOM     11  H   UNL     1      -6.565  -3.487  -1.958  0.00  0.00    +0.000 HD
ENDBRANCH   9  10
ENDBRANCH   8   9
BRANCH   8  12
ATOM     12  C   UNL     1      -5.660  -2.035   1.564  0.00  0.00    +0.000 C 
BRANCH  12  13
ATOM     13  N   UNL     1      -5.015  -3.143   2.308  0.00  0.00    +0.000 NA
ATOM     14  C   UNL     1      -5.693  -3.397   3.590  0.00  0.00    +0.000 C 
ATOM     15  C   UNL     1      -4.994  -2.483   4.577  0.00  0.00    +0.000 C 
ATOM     16  C   UNL     1      -3.546  -2.576   4.143  0.00  0.00    +0.000 C 
ATOM     17  C   UNL     1      -3.608  -2.876   2.650  0.00  0.00    +0.000 C 
ENDBRANCH  12  13
ENDBRANCH   8  12
ENDBRANCH   5   8
ENDBRANCH   1   2
BRANCH   1  18
ATOM     18  N   UNL     1      -6.487   3.636  -3.502  0.00  0.00    +0.000 NA
ATOM     19  H   UNL     1      -6.559   2.981  -4.286  0.00  0.00    +0.000 HD
BRANCH  18  21
ATOM     20  C   UNL     1      -6.134   5.534  -5.042  0.00  0.00    +0.000 C 
ATOM     21  C   UNL     1      -6.991   4.953  -3.913  0.00  0.00    +0.000 C 
BRANCH  21  22
ATOM     22  C   UNL     1      -8.458   4.922  -4.308  0.00  0.00    +0.000 A 
ATOM     23  C   UNL     1      -9.403   5.770  -3.749  0.00  0.00    +0.000 A 
ATOM     24  S   UNL     1     -10.952   5.613  -4.448  0.00  0.00    +0.000 S 
ATOM     25  C   UNL     1     -10.432   4.350  -5.462  0.00  0.00    +0.000 A 
ATOM     26  N   UNL     1     -11.295   3.732  -6.314  0.00  0.00    +0.000 NA
ATOM     27  C   UNL     1     -10.771   2.763  -6.988  0.00  0.00    +0.000 A 
ATOM     28  N   UNL     1      -9.462   2.361  -6.897  0.00  0.00    +0.000 N 
ATOM     29  C   UNL     1      -8.548   2.965  -6.063  0.00  0.00    +0.000 A 
ATOM     30  O   UNL     1      -7.394   2.566  -5.990  0.00  0.00    +0.000 OA
ATOM     31  C   UNL     1      -9.091   4.062  -5.282  0.00  0.00    +0.000 A 
ATOM     32  H   UNL     1      -9.120   1.581  -7.435  0.00  0.00    +0.000 HD
ENDBRANCH  21  22
ENDBRANCH  18  21
ENDBRANCH   1  18
TORSDOF 9
