REMARK  Name = 
REMARK  4 active torsions:
REMARK  status: ('A' for Active; 'I' for Inactive)
REMARK    1  A    between atoms: C_2  and  C_4
REMARK    2  A    between atoms: C_7  and  N_8
REMARK    3  A    between atoms: N_8  and  C_9
REMARK    4  A    between atoms: C_9  and  C_10
REMARK                            x       y       z     vdW  Elec       q    Type
REMARK                         _______ _______ _______ _____ _____    ______ ____
ROOT
ATOM      1  N   UNL     1       4.132   3.601  -3.383  0.00  0.00    +0.000 N 
ATOM      2  H   UNL     1       4.878   3.105  -2.891  0.00  0.00    +0.000 HD
ENDROOT
BRANCH   1   6
ATOM      3  C   UNL     1       0.804   1.694  -1.659  0.00  0.00    +0.000 A 
ATOM      4  C   UNL     1       1.443   1.141  -2.770  0.00  0.00    +0.000 A 
ATOM      5  C   UNL     1       2.491   1.839  -3.375  0.00  0.00    +0.000 A 
ATOM      6  C   UNL     1       2.895   3.099  -2.906  0.00  0.00    +0.000 A 
ATOM      7  C   UNL     1       2.173   3.662  -1.848  0.00  0.00    +0.000 A 
ATOM      8  C   UNL     1       1.118   2.977  -1.238  0.00  0.00    +0.000 A 
BRANCH   3  10
ATOM      9  N   UNL     1       0.146  -0.434  -0.715  0.00  0.00    +0.000 N 
ATOM     10  C   UNL     1      -0.151   0.896  -0.841  0.00  0.00    +0.000 C 
ATOM     11  O   UNL     1      -1.066   1.416  -0.219  0.00  0.00    +0.000 OA
ATOM     12  H   UNL     1      -0.351  -0.925   0.015  0.00  0.00    +0.000 HD
ATOM     13  H   UNL     1       1.052  -0.793  -0.982  0.00  0.00    +0.000 HD
ENDBRANCH   3  10
ENDBRANCH   1   6
BRANCH   1  14
ATOM     14  C   UNL     1       4.475   5.017  -3.616  0.00  0.00    +0.000 C 
ATOM     15  C   UNL     1       4.392   6.079  -2.528  0.00  0.00    +0.000 C 
ATOM     16  C   UNL     1       3.407   6.102  -3.656  0.00  0.00    +0.000 C 
BRANCH  14  17
ATOM     17  C   UNL     1       5.611   5.206  -4.621  0.00  0.00    +0.000 A 
ATOM     18  C   UNL     1       5.335   5.247  -5.998  0.00  0.00    +0.000 A 
ATOM     19  C   UNL     1       6.264   5.769  -6.899  0.00  0.00    +0.000 A 
ATOM     20  C   UNL     1       7.501   6.217  -6.448  0.00  0.00    +0.000 A 
ATOM     21  C   UNL     1       7.848   6.056  -5.109  0.00  0.00    +0.000 A 
ATOM     22  C   UNL     1       6.916   5.532  -4.218  0.00  0.00    +0.000 A 
ATOM     23  F   UNL     1       7.263   5.425  -2.925  0.00  0.00    +0.000 F 
ENDBRANCH  14  17
ENDBRANCH   1  14
TORSDOF 4
