REMARK  Name = 
REMARK  6 active torsions:
REMARK  status: ('A' for Active; 'I' for Inactive)
REMARK    1  A    between atoms: C_2  and  C_25
REMARK    2  A    between atoms: N_3  and  C_4
REMARK    3  A    between atoms: C_4  and  C_5
REMARK    4  A    between atoms: C_8  and  C_9
REMARK    5  A    between atoms: C_9  and  N_10
REMARK    6  A    between atoms: C_11  and  C_13
REMARK                            x       y       z     vdW  Elec       q    Type
REMARK                         _______ _______ _______ _____ _____    ______ ____
ROOT
ATOM      1  C   UNL     1       3.291   3.227  -1.469  0.00  0.00    +0.000 A 
ATOM      2  C   UNL     1       4.484   2.888  -2.100  0.00  0.00    +0.000 A 
ATOM      3  N   UNL     1       5.355   3.811  -2.579  0.00  0.00    +0.000 NA
ATOM      4  C   UNL     1       4.999   5.110  -2.402  0.00  0.00    +0.000 A 
ATOM      5  C   UNL     1       3.807   5.449  -1.773  0.00  0.00    +0.000 A 
ATOM      6  N   UNL     1       2.939   4.527  -1.285  0.00  0.00    +0.000 NA
ENDROOT
BRANCH   1   7
ATOM      7  C   UNL     1       2.344   2.162  -0.981  0.00  0.00    +0.000 C 
BRANCH   7  10
ATOM      8  O   UNL     1       4.057   0.046  -0.358  0.00  0.00    +0.000 OA
ATOM      9  C   UNL     1       3.512   0.634   0.571  0.00  0.00    +0.000 C 
ATOM     10  N   UNL     1       2.651   1.686   0.353  0.00  0.00    +0.000 N 
ATOM     11  H   UNL     1       2.293   2.191   1.154  0.00  0.00    +0.000 HD
BRANCH   9  12
ATOM     12  C   UNL     1       3.717   0.290   1.963  0.00  0.00    +0.000 A 
ATOM     13  C   UNL     1       4.520  -0.677   2.537  0.00  0.00    +0.000 A 
ATOM     14  C   UNL     1       4.337  -0.585   3.936  0.00  0.00    +0.000 A 
ATOM     15  C   UNL     1       3.428   0.428   4.135  0.00  0.00    +0.000 A 
ATOM     16  O   UNL     1       3.046   0.969   2.947  0.00  0.00    +0.000 OA
ENDBRANCH   9  12
ENDBRANCH   7  10
ENDBRANCH   1   7
BRANCH   4  17
ATOM     17  C   UNL     1       5.920   6.176  -2.931  0.00  0.00    +0.000 C 
BRANCH  17  18
ATOM     18  N   UNL     1       5.613   6.547  -4.296  0.00  0.00    +0.000 N 
ATOM     19  C   UNL     1       4.777   7.591  -4.593  0.00  0.00    +0.000 C 
ATOM     20  O   UNL     1       4.271   8.283  -3.713  0.00  0.00    +0.000 OA
ATOM     21  H   UNL     1       5.824   5.852  -5.007  0.00  0.00    +0.000 HD
BRANCH  19  22
ATOM     22  C   UNL     1       4.567   7.885  -6.015  0.00  0.00    +0.000 A 
ATOM     23  C   UNL     1       4.218   9.171  -6.406  0.00  0.00    +0.000 A 
ATOM     24  S   UNL     1       4.046   9.351  -8.093  0.00  0.00    +0.000 S 
ATOM     25  C   UNL     1       4.382   7.704  -8.357  0.00  0.00    +0.000 A 
ATOM     26  N   UNL     1       4.365   7.179  -9.612  0.00  0.00    +0.000 NA
ATOM     27  C   UNL     1       4.595   5.909  -9.661  0.00  0.00    +0.000 A 
ATOM     28  N   UNL     1       4.850   5.119  -8.570  0.00  0.00    +0.000 N 
ATOM     29  C   UNL     1       4.934   5.616  -7.291  0.00  0.00    +0.000 A 
ATOM     30  O   UNL     1       5.257   4.905  -6.347  0.00  0.00    +0.000 OA
ATOM     31  C   UNL     1       4.647   7.033  -7.176  0.00  0.00    +0.000 A 
ATOM     32  H   UNL     1       5.043   4.134  -8.678  0.00  0.00    +0.000 HD
ENDBRANCH  19  22
ENDBRANCH  17  18
ENDBRANCH   4  17
TORSDOF 6
