REMARK  Name = 
REMARK  4 active torsions:
REMARK  status: ('A' for Active; 'I' for Inactive)
REMARK    1  A    between atoms: C_2  and  C_4
REMARK    2  A    between atoms: C_7  and  N_8
REMARK    3  A    between atoms: N_8  and  C_9
REMARK    4  A    between atoms: C_9  and  C_10
REMARK                            x       y       z     vdW  Elec       q    Type
REMARK                         _______ _______ _______ _____ _____    ______ ____
ROOT
ATOM      1  C   UNL     1       8.891   2.619   0.631  0.00  0.00    +0.000 A 
ATOM      2  C   UNL     1       8.796   3.969   0.924  0.00  0.00    +0.000 A 
ATOM      3  N   UNL     1       7.628   4.662   0.819  0.00  0.00    +0.000 NA
ATOM      4  C   UNL     1       6.547   3.969   0.393  0.00  0.00    +0.000 A 
ATOM      5  C   UNL     1       6.675   2.607   0.077  0.00  0.00    +0.000 A 
ATOM      6  N   UNL     1       7.824   1.891   0.202  0.00  0.00    +0.000 NA
ENDROOT
BRANCH   1   8
ATOM      7  N   UNL     1      10.185   0.581   0.456  0.00  0.00    +0.000 N 
ATOM      8  C   UNL     1      10.192   1.911   0.781  0.00  0.00    +0.000 C 
ATOM      9  O   UNL     1      11.205   2.478   1.173  0.00  0.00    +0.000 OA
ATOM     10  H   UNL     1      11.041   0.048   0.526  0.00  0.00    +0.000 HD
ATOM     11  H   UNL     1       9.333   0.143   0.126  0.00  0.00    +0.000 HD
ENDBRANCH   1   8
BRANCH   4  12
ATOM     12  N   UNL     1       5.298   4.614   0.195  0.00  0.00    +0.000 N 
ATOM     13  H   UNL     1       4.547   3.951   0.361  0.00  0.00    +0.000 HD
BRANCH  12  14
ATOM     14  C   UNL     1       5.066   5.927   0.854  0.00  0.00    +0.000 C 
ATOM     15  C   UNL     1       5.065   5.988   2.372  0.00  0.00    +0.000 C 
ATOM     16  C   UNL     1       3.768   6.094   1.642  0.00  0.00    +0.000 C 
BRANCH  14  17
ATOM     17  C   UNL     1       5.498   7.142   0.048  0.00  0.00    +0.000 A 
ATOM     18  C   UNL     1       4.714   7.661  -0.986  0.00  0.00    +0.000 A 
ATOM     19  C   UNL     1       5.115   8.820  -1.625  0.00  0.00    +0.000 A 
ATOM     20  N   UNL     1       6.245   9.478  -1.300  0.00  0.00    +0.000 NA
ATOM     21  N   UNL     1       7.040   8.977  -0.324  0.00  0.00    +0.000 NA
ATOM     22  C   UNL     1       6.670   7.841   0.315  0.00  0.00    +0.000 A 
ENDBRANCH  14  17
ENDBRANCH  12  14
ENDBRANCH   4  12
TORSDOF 4
