REMARK  Name = 
REMARK  5 active torsions:
REMARK  status: ('A' for Active; 'I' for Inactive)
REMARK    1  A    between atoms: C_1  and  C_2
REMARK    2  A    between atoms: C_2  and  N_3
REMARK    3  A    between atoms: C_2  and  C_14
REMARK    4  A    between atoms: N_3  and  C_4
REMARK    5  A    between atoms: C_7  and  C_8
REMARK                            x       y       z     vdW  Elec       q    Type
REMARK                         _______ _______ _______ _____ _____    ______ ____
ROOT
ATOM      1  C   UNL     1       0.496   1.030   0.623  0.00  0.00    +0.000 A 
ATOM      2  C   UNL     1       1.024   1.891   1.591  0.00  0.00    +0.000 A 
ATOM      3  C   UNL     1       0.260   2.931   2.145  0.00  0.00    +0.000 A 
ATOM      4  C   UNL     1      -1.072   3.115   1.762  0.00  0.00    +0.000 A 
ATOM      5  C   UNL     1      -1.618   2.235   0.832  0.00  0.00    +0.000 A 
ATOM      6  F   UNL     1      -2.896   2.344   0.438  0.00  0.00    +0.000 F 
ATOM      7  C   UNL     1      -0.853   1.202   0.283  0.00  0.00    +0.000 A 
ENDROOT
BRANCH   4   8
ATOM      8  C   UNL     1      -1.840   4.227   2.379  0.00  0.00    +0.000 C 
ATOM      9  N   UNL     1      -3.142   4.403   2.003  0.00  0.00    +0.000 N 
ATOM     10  O   UNL     1      -1.326   4.977   3.202  0.00  0.00    +0.000 OA
ATOM     11  H   UNL     1      -3.607   3.807   1.330  0.00  0.00    +0.000 HD
ATOM     12  H   UNL     1      -3.661   5.160   2.426  0.00  0.00    +0.000 HD
ENDBRANCH   4   8
BRANCH   1  13
ATOM     13  N   UNL     1       1.183  -0.058   0.090  0.00  0.00    +0.000 N 
ATOM     14  H   UNL     1       0.735  -0.454  -0.732  0.00  0.00    +0.000 HD
BRANCH  13  16
ATOM     15  C   UNL     1       3.081  -1.553   0.277  0.00  0.00    +0.000 C 
ATOM     16  C   UNL     1       2.643  -0.111  -0.009  0.00  0.00    +0.000 C 
BRANCH  16  17
ATOM     17  C   UNL     1       3.099   0.417  -1.364  0.00  0.00    +0.000 A 
ATOM     18  C   UNL     1       3.365   1.791  -1.505  0.00  0.00    +0.000 A 
ATOM     19  C   UNL     1       3.840   2.314  -2.711  0.00  0.00    +0.000 A 
ATOM     20  C   UNL     1       4.045   1.475  -3.801  0.00  0.00    +0.000 A 
ATOM     21  C   UNL     1       3.755   0.118  -3.694  0.00  0.00    +0.000 A 
ATOM     22  C   UNL     1       3.277  -0.407  -2.487  0.00  0.00    +0.000 A 
ENDBRANCH  16  17
ENDBRANCH  13  16
ENDBRANCH   1  13
TORSDOF 4
