REMARK  Name = 
REMARK  5 active torsions:
REMARK  status: ('A' for Active; 'I' for Inactive)
REMARK    1  A    between atoms: C_1  and  C_2
REMARK    2  A    between atoms: C_7  and  C_8
REMARK    3  A    between atoms: C_8  and  O_9
REMARK    4  A    between atoms: O_9  and  C_10
REMARK    5  A    between atoms: C_13  and  C_14
REMARK                            x       y       z     vdW  Elec       q    Type
REMARK                         _______ _______ _______ _____ _____    ______ ____
ROOT
ATOM      1  C   UNL     1       1.538  -2.280  -3.105  0.00  0.00    +0.000 C 
ATOM      2  C   UNL     1       2.455  -1.778  -1.988  0.00  0.00    +0.000 C 
ATOM      3  C   UNL     1       2.152  -0.315  -1.577  0.00  0.00    +0.000 C 
ATOM      4  N   UNL     1       2.720   0.684  -2.491  0.00  0.00    +0.000 N 
ATOM      5  C   UNL     1       1.852   1.431  -3.274  0.00  0.00    +0.000 A 
ATOM      6  C   UNL     1       2.236   2.700  -3.718  0.00  0.00    +0.000 A 
ATOM      7  C   UNL     1       1.363   3.492  -4.476  0.00  0.00    +0.000 A 
ATOM      8  C   UNL     1       0.104   2.980  -4.769  0.00  0.00    +0.000 A 
ATOM      9  C   UNL     1      -0.212   1.719  -4.296  0.00  0.00    +0.000 A 
ATOM     10  N   UNL     1       0.622   0.953  -3.555  0.00  0.00    +0.000 NA
ATOM     11  C   UNL     1       4.081   0.435  -2.984  0.00  0.00    +0.000 C 
ATOM     12  C   UNL     1       4.315  -1.047  -3.353  0.00  0.00    +0.000 C 
ATOM     13  N   UNL     1       3.886  -2.005  -2.316  0.00  0.00    +0.000 NA
ATOM     14  H   UNL     1       4.425  -1.809  -1.473  0.00  0.00    +0.000 HD
ENDROOT
BRANCH   7  15
ATOM     15  C   UNL     1       1.788   4.858  -4.955  0.00  0.00    +0.000 C 
BRANCH  15  16
ATOM     16  O   UNL     1       1.386   5.854  -4.010  0.00  0.00    +0.000 OA
BRANCH  16  17
ATOM     17  C   UNL     1       1.842   7.109  -4.356  0.00  0.00    +0.000 A 
ATOM     18  C   UNL     1       1.528   8.184  -3.525  0.00  0.00    +0.000 A 
ATOM     19  N   UNL     1       1.946   9.457  -3.766  0.00  0.00    +0.000 NA
ATOM     20  C   UNL     1       2.704   9.600  -4.892  0.00  0.00    +0.000 A 
ATOM     21  C   UNL     1       3.012   8.532  -5.722  0.00  0.00    +0.000 A 
ATOM     22  N   UNL     1       2.588   7.267  -5.474  0.00  0.00    +0.000 NA
BRANCH  20  23
ATOM     23  C   UNL     1       3.227  10.954  -5.225  0.00  0.00    +0.000 C 
ATOM     24  N   UNL     1       2.890  11.961  -4.365  0.00  0.00    +0.000 N 
ATOM     25  O   UNL     1       3.923  11.157  -6.212  0.00  0.00    +0.000 OA
ATOM     26  H   UNL     1       2.319  11.769  -3.549  0.00  0.00    +0.000 HD
ATOM     27  H   UNL     1       3.230  12.896  -4.539  0.00  0.00    +0.000 HD
ENDBRANCH  20  23
ENDBRANCH  16  17
ENDBRANCH  15  16
ENDBRANCH   7  15
TORSDOF 4
