REMARK  Name = 
REMARK  10 active torsions:
REMARK  status: ('A' for Active; 'I' for Inactive)
REMARK    1  A    between atoms: C_1  and  C_2
REMARK    2  A    between atoms: C_2  and  N_3
REMARK    3  A    between atoms: N_3  and  C_4
REMARK    4  A    between atoms: C_5  and  C_7
REMARK    5  A    between atoms: N_11  and  C_12
REMARK    6  A    between atoms: C_12  and  C_13
REMARK    7  A    between atoms: C_13  and  C_14
REMARK    8  A    between atoms: C_13  and  C_15
REMARK    9  A    between atoms: C_13  and  C_16
REMARK   10  A    between atoms: C_20  and  C_21
REMARK                            x       y       z     vdW  Elec       q    Type
REMARK                         _______ _______ _______ _____ _____    ______ ____
ROOT
ATOM      1  C   UNL     1       4.882   2.649  -1.630  0.00  0.00    +0.000 A 
ATOM      2  C   UNL     1       6.096   2.524  -2.293  0.00  0.00    +0.000 A 
ATOM      3  C   UNL     1       6.483   3.515  -3.192  0.00  0.00    +0.000 A 
ATOM      4  C   UNL     1       5.635   4.591  -3.448  0.00  0.00    +0.000 A 
ATOM      5  N   UNL     1       6.131   5.602  -4.277  0.00  0.00    +0.000 N 
ATOM      6  N   UNL     1       4.408   4.664  -2.899  0.00  0.00    +0.000 NA
ATOM      7  C   UNL     1       4.047   3.688  -2.020  0.00  0.00    +0.000 A 
ATOM      8  H   UNL     1       6.356   5.200  -5.181  0.00  0.00    +0.000 HD
ENDROOT
BRANCH   1  11
ATOM      9  N   UNL     1       5.387   1.318   0.423  0.00  0.00    +0.000 N 
ATOM     10  C   UNL     1       6.742   1.837   0.569  0.00  0.00    +0.000 C 
ATOM     11  C   UNL     1       4.454   1.746  -0.535  0.00  0.00    +0.000 C 
ATOM     12  O   UNL     1       3.267   1.426  -0.498  0.00  0.00    +0.000 OA
BRANCH   9  14
ATOM     13  C   UNL     1       4.352   1.127   2.665  0.00  0.00    +0.000 C 
ATOM     14  C   UNL     1       4.934   0.396   1.463  0.00  0.00    +0.000 C 
ENDBRANCH   9  14
ENDBRANCH   1  11
BRANCH   5  15
ATOM     15  C   UNL     1       5.355   6.843  -4.348  0.00  0.00    +0.000 C 
BRANCH  15  16
ATOM     16  C   UNL     1       5.939   7.828  -5.421  0.00  0.00    +0.000 C 
ATOM     17  C   UNL     1       7.468   7.966  -5.211  0.00  0.00    +0.000 C 
ATOM     18  C   UNL     1       5.722   7.244  -6.840  0.00  0.00    +0.000 C 
BRANCH  16  19
ATOM     19  C   UNL     1       5.204   9.189  -5.338  0.00  0.00    +0.000 A 
ATOM     20  C   UNL     1       3.806   9.249  -5.506  0.00  0.00    +0.000 A 
ATOM     21  C   UNL     1       3.115  10.463  -5.452  0.00  0.00    +0.000 A 
ATOM     22  C   UNL     1       3.803  11.651  -5.227  0.00  0.00    +0.000 A 
ATOM     23  C   UNL     1       5.188  11.623  -5.057  0.00  0.00    +0.000 A 
ATOM     24  C   UNL     1       5.877  10.403  -5.110  0.00  0.00    +0.000 A 
BRANCH  23  25
ATOM     25  C   UNL     1       5.900  12.847  -4.829  0.00  0.00    +0.000 C 
ATOM     26  N   UNL     1       6.485  13.841  -4.649  0.00  0.00    +0.000 NA
ENDBRANCH  23  25
ENDBRANCH  16  19
ENDBRANCH  15  16
ENDBRANCH   5  15
TORSDOF 6
