REMARK  Name = 
REMARK  8 active torsions:
REMARK  status: ('A' for Active; 'I' for Inactive)
REMARK    1  A    between atoms: N_1  and  C_2
REMARK    2  A    between atoms: C_2  and  C_3
REMARK    3  A    between atoms: C_2  and  C_17
REMARK    4  A    between atoms: C_3  and  N_4
REMARK    5  A    between atoms: C_5  and  C_7
REMARK    6  A    between atoms: C_20  and  C_21
REMARK    7  A    between atoms: C_21  and  N_22
REMARK    8  A    between atoms: C_23  and  C_25
REMARK                            x       y       z     vdW  Elec       q    Type
REMARK                         _______ _______ _______ _____ _____    ______ ____
ROOT
ATOM      1  C   UNL     1       2.533   0.112  -0.052  0.00  0.00    +0.000 C 
ENDROOT
BRANCH   1   2
ATOM      2  C   UNL     1       2.939   0.932   1.171  0.00  0.00    +0.000 A 
ATOM      3  C   UNL     1       2.679   2.301   1.228  0.00  0.00    +0.000 A 
ATOM      4  C   UNL     1       3.042   3.020   2.363  0.00  0.00    +0.000 A 
ATOM      5  C   UNL     1       3.648   2.364   3.435  0.00  0.00    +0.000 A 
ATOM      6  C   UNL     1       3.835   0.995   3.314  0.00  0.00    +0.000 A 
ATOM      7  N   UNL     1       3.500   0.274   2.220  0.00  0.00    +0.000 NA
BRANCH   5   8
ATOM      8  C   UNL     1       4.046   3.094   4.679  0.00  0.00    +0.000 C 
BRANCH   8   9
ATOM      9  N   UNL     1       2.995   3.083   5.662  0.00  0.00    +0.000 N 
ATOM     10  C   UNL     1       3.119   3.760   6.854  0.00  0.00    +0.000 C 
ATOM     11  O   UNL     1       4.150   4.330   7.201  0.00  0.00    +0.000 OA
ATOM     12  H   UNL     1       2.063   2.742   5.435  0.00  0.00    +0.000 HD
BRANCH  10  13
ATOM     13  C   UNL     1       1.867   3.691   7.749  0.00  0.00    +0.000 C 
ATOM     14  C   UNL     1       1.944   2.446   8.638  0.00  0.00    +0.000 C 
ATOM     15  C   UNL     1       0.683   2.285   9.481  0.00  0.00    +0.000 C 
ATOM     16  C   UNL     1      -0.563   2.344   8.604  0.00  0.00    +0.000 C 
ATOM     17  C   UNL     1      -0.560   3.588   7.720  0.00  0.00    +0.000 C 
ATOM     18  N   UNL     1       0.648   3.657   6.895  0.00  0.00    +0.000 NA
ATOM     19  H   UNL     1       0.621   4.521   6.351  0.00  0.00    +0.000 HD
ENDBRANCH  10  13
ENDBRANCH   8   9
ENDBRANCH   5   8
ENDBRANCH   1   2
BRANCH   1  20
ATOM     20  N   UNL     1       2.535   0.908  -1.305  0.00  0.00    +0.000 NA
ATOM     21  H   UNL     1       2.299   0.275  -2.070  0.00  0.00    +0.000 HD
ATOM     22  H   UNL     1       3.506   1.163  -1.504  0.00  0.00    +0.000 HD
ENDBRANCH   1  20
BRANCH   1  23
ATOM     23  C   UNL     1       3.421  -1.154  -0.200  0.00  0.00    +0.000 C 
BRANCH  23  24
ATOM     24  N   UNL     1       2.985  -2.024  -1.284  0.00  0.00    +0.000 N 
ATOM     25  C   UNL     1       3.481  -1.958  -2.559  0.00  0.00    +0.000 C 
ATOM     26  O   UNL     1       4.361  -1.166  -2.883  0.00  0.00    +0.000 OA
ATOM     27  H   UNL     1       2.146  -2.565  -1.105  0.00  0.00    +0.000 HD
BRANCH  25  28
ATOM     28  C   UNL     1       2.912  -2.912  -3.516  0.00  0.00    +0.000 A 
ATOM     29  C   UNL     1       3.646  -3.302  -4.627  0.00  0.00    +0.000 A 
ATOM     30  S   UNL     1       2.850  -4.457  -5.598  0.00  0.00    +0.000 S 
ATOM     31  C   UNL     1       1.474  -4.433  -4.596  0.00  0.00    +0.000 A 
ATOM     32  N   UNL     1       0.389  -5.205  -4.875  0.00  0.00    +0.000 NA
ATOM     33  C   UNL     1      -0.597  -5.056  -4.054  0.00  0.00    +0.000 A 
ATOM     34  N   UNL     1      -0.597  -4.206  -2.978  0.00  0.00    +0.000 N 
ATOM     35  C   UNL     1       0.491  -3.443  -2.630  0.00  0.00    +0.000 A 
ATOM     36  O   UNL     1       0.485  -2.748  -1.620  0.00  0.00    +0.000 OA
ATOM     37  C   UNL     1       1.623  -3.564  -3.530  0.00  0.00    +0.000 A 
ATOM     38  H   UNL     1      -1.400  -4.146  -2.369  0.00  0.00    +0.000 HD
ENDBRANCH  25  28
ENDBRANCH  23  24
ENDBRANCH   1  23
TORSDOF 8
