REMARK  Name = 
REMARK  6 active torsions:
REMARK  status: ('A' for Active; 'I' for Inactive)
REMARK    1  A    between atoms: C_1  and  C_2
REMARK    2  A    between atoms: C_2  and  C_3
REMARK    3  A    between atoms: C_7  and  C_8
REMARK    4  A    between atoms: C_8  and  C_9
REMARK    5  A    between atoms: C_9  and  N_10
REMARK    6  A    between atoms: C_14  and  C_15
REMARK                            x       y       z     vdW  Elec       q    Type
REMARK                         _______ _______ _______ _____ _____    ______ ____
ROOT
ATOM      1  C   UNL     1       4.336   2.780  -3.959  0.00  0.00    +0.000 C 
ENDROOT
BRANCH   1   6
ATOM      2  C   UNL     1       2.925   0.195  -1.502  0.00  0.00    +0.000 A 
ATOM      3  C   UNL     1       2.638  -0.854  -2.398  0.00  0.00    +0.000 A 
ATOM      4  C   UNL     1       2.913  -0.745  -3.763  0.00  0.00    +0.000 A 
ATOM      5  C   UNL     1       3.486   0.417  -4.270  0.00  0.00    +0.000 A 
ATOM      6  C   UNL     1       3.796   1.476  -3.413  0.00  0.00    +0.000 A 
ATOM      7  C   UNL     1       3.511   1.355  -2.040  0.00  0.00    +0.000 A 
BRANCH   2   9
ATOM      8  C   UNL     1       0.984  -0.035   0.065  0.00  0.00    +0.000 C 
ATOM      9  C   UNL     1       2.517   0.059  -0.025  0.00  0.00    +0.000 C 
ATOM     10  C   UNL     1       3.193  -1.143   0.666  0.00  0.00    +0.000 C 
ATOM     11  C   UNL     1       4.387  -0.573   1.429  0.00  0.00    +0.000 C 
ATOM     12  C   UNL     1       4.323   0.926   1.219  0.00  0.00    +0.000 C 
ATOM     13  N   UNL     1       2.935   1.165   0.855  0.00  0.00    +0.000 NA
ATOM     14  H   UNL     1       2.783   2.074   0.430  0.00  0.00    +0.000 HD
ENDBRANCH   2   9
ENDBRANCH   1   6
BRANCH   1  15
ATOM     15  C   UNL     1       3.186   3.744  -4.262  0.00  0.00    +0.000 C 
BRANCH  15  16
ATOM     16  N   UNL     1       3.681   5.033  -4.762  0.00  0.00    +0.000 N 
ATOM     17  C   UNL     1       2.632   5.928  -5.056  0.00  0.00    +0.000 A 
ATOM     18  C   UNL     1       2.939   7.192  -5.548  0.00  0.00    +0.000 A 
ATOM     19  C   UNL     1       1.903   8.089  -5.835  0.00  0.00    +0.000 A 
ATOM     20  C   UNL     1       0.577   7.708  -5.622  0.00  0.00    +0.000 A 
ATOM     21  C   UNL     1       0.365   6.440  -5.116  0.00  0.00    +0.000 A 
ATOM     22  N   UNL     1       1.354   5.560  -4.830  0.00  0.00    +0.000 NA
ATOM     23  H   UNL     1       4.258   4.930  -5.592  0.00  0.00    +0.000 HD
BRANCH  20  24
ATOM     24  C   UNL     1      -0.523   8.650  -5.940  0.00  0.00    +0.000 C 
ATOM     25  N   UNL     1      -1.816   8.254  -5.739  0.00  0.00    +0.000 N 
ATOM     26  O   UNL     1      -0.286   9.768  -6.383  0.00  0.00    +0.000 OA
ATOM     27  H   UNL     1      -2.120   7.361  -5.385  0.00  0.00    +0.000 HD
ATOM     28  H   UNL     1      -2.536   8.927  -5.976  0.00  0.00    +0.000 HD
ENDBRANCH  20  24
ENDBRANCH  15  16
ENDBRANCH   1  15
TORSDOF 5
