REMARK  Name = 
REMARK  5 active torsions:
REMARK  status: ('A' for Active; 'I' for Inactive)
REMARK    1  A    between atoms: C_2  and  C_4
REMARK    2  A    between atoms: C_7  and  O_8
REMARK    3  A    between atoms: O_8  and  C_9
REMARK    4  A    between atoms: C_9  and  C_10
REMARK    5  A    between atoms: C_15  and  N_16
REMARK                            x       y       z     vdW  Elec       q    Type
REMARK                         _______ _______ _______ _____ _____    ______ ____
ROOT
ATOM      1  C   UNL     1       5.481  -4.055   3.998  0.00  0.00    +0.000 C 
ENDROOT
BRANCH   1   2
ATOM      2  C   UNL     1       6.555  -4.593   4.920  0.00  0.00    +0.000 A 
ATOM      3  C   UNL     1       6.629  -5.966   5.149  0.00  0.00    +0.000 A 
ATOM      4  C   UNL     1       7.586  -6.473   6.021  0.00  0.00    +0.000 A 
ATOM      5  C   UNL     1       8.489  -5.618   6.673  0.00  0.00    +0.000 A 
ATOM      6 CL   UNL     1       9.719  -6.440   7.582  0.00  0.00    +0.000 Cl
ATOM      7  C   UNL     1       8.436  -4.213   6.501  0.00  0.00    +0.000 A 
ATOM      8  C   UNL     1       7.429  -3.743   5.623  0.00  0.00    +0.000 A 
BRANCH   7   9
ATOM      9  N   UNL     1       9.304  -3.301   7.089  0.00  0.00    +0.000 N 
ATOM     10  C   UNL     1       9.663  -2.042   6.428  0.00  0.00    +0.000 C 
ATOM     11  C   UNL     1      11.187  -1.905   6.413  0.00  0.00    +0.000 C 
ATOM     12  C   UNL     1      11.791  -2.065   7.807  0.00  0.00    +0.000 C 
ATOM     13  C   UNL     1      11.294  -3.342   8.487  0.00  0.00    +0.000 C 
ATOM     14  C   UNL     1       9.765  -3.403   8.476  0.00  0.00    +0.000 C 
ENDBRANCH   7   9
ENDBRANCH   1   2
BRANCH   1  15
ATOM     15  O   UNL     1       5.899  -2.864   3.322  0.00  0.00    +0.000 OA
BRANCH  15  19
ATOM     16  C   UNL     1       2.960  -1.366   0.842  0.00  0.00    +0.000 A 
ATOM     17  C   UNL     1       4.184  -0.700   0.941  0.00  0.00    +0.000 A 
ATOM     18  C   UNL     1       5.176  -1.217   1.782  0.00  0.00    +0.000 A 
ATOM     19  C   UNL     1       4.906  -2.380   2.491  0.00  0.00    +0.000 A 
ATOM     20  N   UNL     1       3.729  -3.039   2.412  0.00  0.00    +0.000 NA
ATOM     21  C   UNL     1       2.781  -2.515   1.599  0.00  0.00    +0.000 A 
BRANCH  16  23
ATOM     22  N   UNL     1       2.116  -0.131  -1.077  0.00  0.00    +0.000 N 
ATOM     23  C   UNL     1       1.829  -0.900   0.015  0.00  0.00    +0.000 C 
ATOM     24  O   UNL     1       0.678  -1.223   0.272  0.00  0.00    +0.000 OA
ATOM     25  H   UNL     1       1.334   0.076  -1.688  0.00  0.00    +0.000 HD
ATOM     26  H   UNL     1       3.044  -0.058  -1.466  0.00  0.00    +0.000 HD
ENDBRANCH  16  23
ENDBRANCH  15  19
ENDBRANCH   1  15
TORSDOF 5
