REMARK  Name = 
REMARK  11 active torsions:
REMARK  status: ('A' for Active; 'I' for Inactive)
REMARK    1  A    between atoms: C_1  and  C_2
REMARK    2  A    between atoms: C_5  and  O_6
REMARK    3  A    between atoms: O_6  and  C_7
REMARK    4  A    between atoms: C_11  and  C_12
REMARK    5  A    between atoms: C_12  and  C_13
REMARK    6  A    between atoms: C_12  and  C_14
REMARK    7  A    between atoms: C_12  and  C_15
REMARK    8  A    between atoms: C_15  and  N_16
REMARK    9  A    between atoms: N_16  and  C_17
REMARK   10  A    between atoms: C_20  and  S_21
REMARK   11  A    between atoms: S_21  and  N_22
REMARK                            x       y       z     vdW  Elec       q    Type
REMARK                         _______ _______ _______ _____ _____    ______ ____
ROOT
ATOM      1  C   UNL     1       4.850   5.183  -3.330  0.00  0.00    +0.000 C 
ATOM      2  C   UNL     1       3.392   5.696  -3.439  0.00  0.00    +0.000 C 
ATOM      3  C   UNL     1       5.658   6.249  -2.552  0.00  0.00    +0.000 C 
ENDROOT
BRANCH   1   8
ATOM      4  C   UNL     1       6.339   2.086  -1.537  0.00  0.00    +0.000 A 
ATOM      5  C   UNL     1       5.201   1.435  -1.077  0.00  0.00    +0.000 A 
ATOM      6  C   UNL     1       3.945   1.967  -1.358  0.00  0.00    +0.000 A 
ATOM      7  C   UNL     1       3.823   3.153  -2.090  0.00  0.00    +0.000 A 
ATOM      8  C   UNL     1       4.955   3.839  -2.565  0.00  0.00    +0.000 A 
ATOM      9  C   UNL     1       6.214   3.261  -2.290  0.00  0.00    +0.000 A 
BRANCH   4  10
ATOM     10  O   UNL     1       7.623   1.644  -1.321  0.00  0.00    +0.000 OA
BRANCH  10  15
ATOM     11  C   UNL     1      10.031  -0.658   0.008  0.00  0.00    +0.000 C 
ATOM     12  C   UNL     1       9.377   0.689   0.249  0.00  0.00    +0.000 C 
ATOM     13  N   UNL     1       8.988   0.857   1.669  0.00  0.00    +0.000 NA
ATOM     14  C   UNL     1       7.746   1.525   1.236  0.00  0.00    +0.000 C 
ATOM     15  C   UNL     1       7.878   0.836  -0.144  0.00  0.00    +0.000 C 
ATOM     16  H   UNL     1       9.619   1.444   2.214  0.00  0.00    +0.000 HD
ENDBRANCH  10  15
ENDBRANCH   4  10
ENDBRANCH   1   8
BRANCH   1  17
ATOM     17  C   UNL     1       5.431   5.006  -4.768  0.00  0.00    +0.000 C 
BRANCH  17  18
ATOM     18  N   UNL     1       5.315   6.218  -5.590  0.00  0.00    +0.000 N 
ATOM     19  H   UNL     1       5.419   7.095  -5.088  0.00  0.00    +0.000 HD
BRANCH  18  20
ATOM     20  C   UNL     1       5.893   6.267  -6.861  0.00  0.00    +0.000 A 
ATOM     21  C   UNL     1       6.349   5.131  -7.541  0.00  0.00    +0.000 A 
ATOM     22  C   UNL     1       6.808   5.209  -8.858  0.00  0.00    +0.000 A 
ATOM     23  C   UNL     1       6.777   6.432  -9.524  0.00  0.00    +0.000 A 
ATOM     24  C   UNL     1       6.338   7.583  -8.871  0.00  0.00    +0.000 A 
ATOM     25  C   UNL     1       5.888   7.491  -7.551  0.00  0.00    +0.000 A 
BRANCH  23  26
ATOM     26  S   UNL     1       7.253   6.507 -11.223  0.00  0.00    +0.000 S 
ATOM     27  O   UNL     1       7.636   7.862 -11.553  0.00  0.00    +0.000 OA
ATOM     28  O   UNL     1       8.076   5.367 -11.542  0.00  0.00    +0.000 OA
BRANCH  26  29
ATOM     29  N   UNL     1       5.778   6.242 -11.978  0.00  0.00    +0.000 NA
ATOM     30  H   UNL     1       5.506   7.059 -12.523  0.00  0.00    +0.000 HD
ATOM     31  H   UNL     1       5.801   5.368 -12.503  0.00  0.00    +0.000 HD
ENDBRANCH  26  29
ENDBRANCH  23  26
ENDBRANCH  18  20
ENDBRANCH  17  18
ENDBRANCH   1  17
TORSDOF 8
