REMARK  Name = 
REMARK  6 active torsions:
REMARK  status: ('A' for Active; 'I' for Inactive)
REMARK    1  A    between atoms: C_2  and  C_3
REMARK    2  A    between atoms: C_3  and  N_4
REMARK    3  A    between atoms: C_3  and  C_17
REMARK    4  A    between atoms: C_5  and  C_7
REMARK    5  A    between atoms: C_20  and  C_21
REMARK    6  A    between atoms: C_21  and  N_22
REMARK                            x       y       z     vdW  Elec       q    Type
REMARK                         _______ _______ _______ _____ _____    ______ ____
ROOT
ATOM      1  C   UNL     1       3.734   0.068  -0.076  0.00  0.00    +0.000 C 
ENDROOT
BRANCH   1   2
ATOM      2  C   UNL     1       4.305   1.482  -0.190  0.00  0.00    +0.000 A 
ATOM      3  C   UNL     1       3.442   2.543  -0.512  0.00  0.00    +0.000 A 
ATOM      4  C   UNL     1       3.899   3.866  -0.531  0.00  0.00    +0.000 A 
ATOM      5  C   UNL     1       5.241   4.165  -0.259  0.00  0.00    +0.000 A 
ATOM      6  C   UNL     1       6.120   3.106  -0.003  0.00  0.00    +0.000 A 
ATOM      7  C   UNL     1       5.664   1.780   0.012  0.00  0.00    +0.000 A 
BRANCH   5   8
ATOM      8  C   UNL     1       5.722   5.597  -0.226  0.00  0.00    +0.000 C 
BRANCH   8   9
ATOM      9  N   UNL     1       5.540   6.198   1.079  0.00  0.00    +0.000 N 
ATOM     10  C   UNL     1       5.976   7.481   1.298  0.00  0.00    +0.000 C 
ATOM     11  O   UNL     1       6.594   8.117   0.448  0.00  0.00    +0.000 OA
ATOM     12  N   UNL     1       5.669   8.003   2.531  0.00  0.00    +0.000 N 
ATOM     13  C   UNL     1       5.101   7.330   3.684  0.00  0.00    +0.000 C 
ATOM     14  C   UNL     1       4.493   8.469   4.483  0.00  0.00    +0.000 C 
ATOM     15  C   UNL     1       5.481   9.611   4.273  0.00  0.00    +0.000 C 
ATOM     16  C   UNL     1       6.071   9.357   2.886  0.00  0.00    +0.000 C 
ATOM     17  H   UNL     1       4.691   5.948   1.556  0.00  0.00    +0.000 HD
ENDBRANCH   8   9
ENDBRANCH   5   8
ENDBRANCH   1   2
BRANCH   1  18
ATOM     18  N   UNL     1       3.723  -0.558  -1.384  0.00  0.00    +0.000 N 
ATOM     19  C   UNL     1       2.818  -1.534  -1.711  0.00  0.00    +0.000 C 
ATOM     20  O   UNL     1       1.874  -1.821  -0.980  0.00  0.00    +0.000 OA
ATOM     21  H   UNL     1       4.598  -0.512  -1.892  0.00  0.00    +0.000 HD
BRANCH  19  22
ATOM     22  C   UNL     1       3.003  -2.168  -3.021  0.00  0.00    +0.000 A 
ATOM     23  C   UNL     1       1.924  -2.717  -3.699  0.00  0.00    +0.000 A 
ATOM     24  S   UNL     1       2.333  -3.346  -5.233  0.00  0.00    +0.000 S 
ATOM     25  C   UNL     1       3.977  -2.966  -5.013  0.00  0.00    +0.000 A 
ATOM     26  N   UNL     1       4.904  -3.267  -5.963  0.00  0.00    +0.000 NA
ATOM     27  C   UNL     1       6.117  -2.961  -5.640  0.00  0.00    +0.000 A 
ATOM     28  N   UNL     1       6.488  -2.376  -4.458  0.00  0.00    +0.000 N 
ATOM     29  C   UNL     1       5.581  -2.000  -3.497  0.00  0.00    +0.000 A 
ATOM     30  O   UNL     1       5.926  -1.385  -2.493  0.00  0.00    +0.000 OA
ATOM     31  C   UNL     1       4.205  -2.350  -3.798  0.00  0.00    +0.000 A 
ATOM     32  H   UNL     1       7.452  -2.143  -4.275  0.00  0.00    +0.000 HD
ENDBRANCH  19  22
ENDBRANCH   1  18
BRANCH   1  34
ATOM     33  N   UNL     1       5.038  -1.419   1.689  0.00  0.00    +0.000 NA
ATOM     34  C   UNL     1       4.453  -0.775   0.921  0.00  0.00    +0.000 C 
ENDBRANCH   1  34
TORSDOF 6
