REMARK  Name = 
REMARK  5 active torsions:
REMARK  status: ('A' for Active; 'I' for Inactive)
REMARK    1  A    between atoms: C_7  and  C_8
REMARK    2  A    between atoms: N_10  and  C_11
REMARK    3  A    between atoms: C_11  and  C_12
REMARK    4  A    between atoms: C_15  and  C_16
REMARK    5  A    between atoms: C_16  and  N_17
REMARK                            x       y       z     vdW  Elec       q    Type
REMARK                         _______ _______ _______ _____ _____    ______ ____
ROOT
ATOM      1  C   UNL     1      -2.416  -3.011   2.116  0.00  0.00    +0.000 C 
ATOM      2  O   UNL     1      -1.539  -2.673   1.323  0.00  0.00    +0.000 OA
ATOM      3  N   UNL     1      -3.356  -3.960   1.789  0.00  0.00    +0.000 N 
ATOM      4  H   UNL     1      -4.070  -4.230   2.461  0.00  0.00    +0.000 HD
ENDROOT
BRANCH   1  11
ATOM      5  N   UNL     1      -5.373  -2.095   8.104  0.00  0.00    +0.000 N 
ATOM      6  C   UNL     1      -4.685  -2.193   6.938  0.00  0.00    +0.000 A 
ATOM      7  N   UNL     1      -3.605  -1.488   6.755  0.00  0.00    +0.000 NA
ATOM      8  C   UNL     1      -3.020  -1.690   5.552  0.00  0.00    +0.000 A 
ATOM      9  N   UNL     1      -1.881  -1.055   5.160  0.00  0.00    +0.000 N 
ATOM     10  C   UNL     1      -1.556  -1.473   3.897  0.00  0.00    +0.000 A 
ATOM     11  C   UNL     1      -2.499  -2.398   3.449  0.00  0.00    +0.000 A 
ATOM     12  C   UNL     1      -3.424  -2.522   4.529  0.00  0.00    +0.000 A 
ATOM     13  C   UNL     1      -4.624  -3.286   4.755  0.00  0.00    +0.000 A 
ATOM     14  O   UNL     1      -5.103  -4.062   3.940  0.00  0.00    +0.000 OA
ATOM     15  N   UNL     1      -5.197  -3.056   5.995  0.00  0.00    +0.000 N 
ATOM     16  H   UNL     1      -5.063  -1.303   8.660  0.00  0.00    +0.000 HD
ATOM     17  H   UNL     1      -6.379  -2.161   8.048  0.00  0.00    +0.000 HD
ATOM     18  H   UNL     1      -1.375  -0.380   5.717  0.00  0.00    +0.000 HD
ATOM     19  H   UNL     1      -6.009  -3.609   6.212  0.00  0.00    +0.000 HD
ENDBRANCH   1  11
BRANCH   3  20
ATOM     20  C   UNL     1      -3.368  -4.607   0.484  0.00  0.00    +0.000 C 
BRANCH  20  21
ATOM     21  C   UNL     1      -2.454  -5.820   0.381  0.00  0.00    +0.000 A 
ATOM     22  C   UNL     1      -1.108  -5.642   0.070  0.00  0.00    +0.000 A 
ATOM     23  C   UNL     1      -0.255  -6.747   0.051  0.00  0.00    +0.000 A 
ATOM     24  C   UNL     1      -0.747  -8.023   0.331  0.00  0.00    +0.000 A 
ATOM     25  C   UNL     1      -2.116  -8.116   0.571  0.00  0.00    +0.000 A 
ATOM     26  N   UNL     1      -2.973  -7.056   0.610  0.00  0.00    +0.000 NA
BRANCH  24  27
ATOM     27  C   UNL     1       0.181  -9.222   0.374  0.00  0.00    +0.000 C 
BRANCH  27  28
ATOM     28  N   UNL     1       1.092  -9.224   1.534  0.00  0.00    +0.000 NA
ATOM     29  C   UNL     1       2.201 -10.185   1.386  0.00  0.00    +0.000 C 
ATOM     30  C   UNL     1       1.822 -11.668   1.600  0.00  0.00    +0.000 C 
ATOM     31  N   UNL     1       1.126 -11.953   2.861  0.00  0.00    +0.000 NA
ATOM     32  C   UNL     1       0.095 -10.948   3.164  0.00  0.00    +0.000 C 
ATOM     33  C   UNL     1       0.431  -9.473   2.828  0.00  0.00    +0.000 C 
ATOM     34  H   UNL     1       1.807 -11.968   3.618  0.00  0.00    +0.000 HD
ENDBRANCH  27  28
ENDBRANCH  24  27
ENDBRANCH  20  21
ENDBRANCH   3  20
TORSDOF 5
