REMARK  Name = 
REMARK  9 active torsions:
REMARK  status: ('A' for Active; 'I' for Inactive)
REMARK    1  A    between atoms: C_1  and  O_2
REMARK    2  A    between atoms: O_2  and  C_3
REMARK    3  A    between atoms: C_10  and  C_11
REMARK    4  A    between atoms: N_13  and  C_14
REMARK    5  A    between atoms: C_14  and  C_15
REMARK    6  A    between atoms: C_18  and  C_19
REMARK    7  A    between atoms: C_19  and  N_20
REMARK    8  A    between atoms: N_20  and  C_21
REMARK    9  A    between atoms: C_21  and  C_22
REMARK                            x       y       z     vdW  Elec       q    Type
REMARK                         _______ _______ _______ _____ _____    ______ ____
ROOT
ATOM      1  C   UNL     1       2.905   0.318   3.427  0.00  0.00    +0.000 C 
ENDROOT
BRANCH   1   2
ATOM      2  C   UNL     1       1.823   1.352   3.239  0.00  0.00    +0.000 A 
ATOM      3  C   UNL     1       0.481   0.971   3.109  0.00  0.00    +0.000 A 
ATOM      4  C   UNL     1      -0.518   1.933   2.913  0.00  0.00    +0.000 A 
ATOM      5  C   UNL     1      -0.199   3.297   2.841  0.00  0.00    +0.000 A 
ATOM      6  C   UNL     1       1.147   3.673   2.953  0.00  0.00    +0.000 A 
ATOM      7  C   UNL     1       2.146   2.712   3.144  0.00  0.00    +0.000 A 
BRANCH   5   8
ATOM      8  C   UNL     1      -1.279   4.337   2.622  0.00  0.00    +0.000 C 
BRANCH   8   9
ATOM      9  N   UNL     1      -2.272   4.312   3.696  0.00  0.00    +0.000 NA
ATOM     10  H   UNL     1      -1.797   4.474   4.584  0.00  0.00    +0.000 HD
BRANCH   9  11
ATOM     11  C   UNL     1      -3.298   5.339   3.509  0.00  0.00    +0.000 C 
BRANCH  11  12
ATOM     12  C   UNL     1      -4.302   5.317   4.632  0.00  0.00    +0.000 A 
ATOM     13  C   UNL     1      -5.068   4.180   4.911  0.00  0.00    +0.000 A 
ATOM     14  C   UNL     1      -5.975   4.195   5.968  0.00  0.00    +0.000 A 
ATOM     15  C   UNL     1      -6.096   5.356   6.712  0.00  0.00    +0.000 A 
ATOM     16  N   UNL     1      -5.391   6.481   6.465  0.00  0.00    +0.000 NA
ATOM     17  C   UNL     1      -4.514   6.435   5.435  0.00  0.00    +0.000 A 
ENDBRANCH  11  12
ENDBRANCH   9  11
ENDBRANCH   8   9
ENDBRANCH   5   8
ENDBRANCH   1   2
BRANCH   1  20
ATOM     18  C   UNL     1       4.393  -1.088   2.057  0.00  0.00    +0.000 C 
ATOM     19  O   UNL     1       4.871  -1.616   3.061  0.00  0.00    +0.000 OA
ATOM     20  N   UNL     1       3.428  -0.125   2.157  0.00  0.00    +0.000 N 
ATOM     21  H   UNL     1       3.080   0.335   1.326  0.00  0.00    +0.000 HD
BRANCH  18  29
ATOM     22  C   UNL     1       3.425  -0.146  -1.111  0.00  0.00    +0.000 A 
ATOM     23  N   UNL     1       3.257   0.044  -2.435  0.00  0.00    +0.000 NA
ATOM     24  C   UNL     1       4.033  -0.649  -3.273  0.00  0.00    +0.000 A 
ATOM     25  N   UNL     1       4.975  -1.530  -2.948  0.00  0.00    +0.000 NA
ATOM     26  C   UNL     1       5.115  -1.683  -1.619  0.00  0.00    +0.000 A 
ATOM     27  S   UNL     1       6.274  -2.770  -1.023  0.00  0.00    +0.000 S 
ATOM     28  C   UNL     1       5.854  -2.410   0.585  0.00  0.00    +0.000 A 
ATOM     29  C   UNL     1       4.841  -1.466   0.706  0.00  0.00    +0.000 A 
ATOM     30  C   UNL     1       4.397  -1.035  -0.619  0.00  0.00    +0.000 A 
BRANCH  22  32
ATOM     31  C   UNL     1       1.398   0.979  -0.832  0.00  0.00    +0.000 C 
ATOM     32  O   UNL     1       2.641   0.591  -0.250  0.00  0.00    +0.000 OA
ENDBRANCH  22  32
ENDBRANCH  18  29
ENDBRANCH   1  20
TORSDOF 8
