REMARK  Name = 
REMARK  5 active torsions:
REMARK  status: ('A' for Active; 'I' for Inactive)
REMARK    1  A    between atoms: N_1  and  C_2
REMARK    2  A    between atoms: C_2  and  C_3
REMARK    3  A    between atoms: C_3  and  C_4
REMARK    4  A    between atoms: C_7  and  C_8
REMARK    5  A    between atoms: C_8  and  N_9
REMARK                            x       y       z     vdW  Elec       q    Type
REMARK                         _______ _______ _______ _____ _____    ______ ____
ROOT
ATOM      1  C   UNL     1       4.665  -0.454   1.288  0.00  0.00    +0.000 A 
ATOM      2  C   UNL     1       5.456   0.293   0.408  0.00  0.00    +0.000 A 
ATOM      3  C   UNL     1       6.849   0.324   0.546  0.00  0.00    +0.000 A 
ATOM      4  C   UNL     1       7.486  -0.381   1.577  0.00  0.00    +0.000 A 
ATOM      5  C   UNL     1       6.696  -1.127   2.460  0.00  0.00    +0.000 A 
ATOM      6  C   UNL     1       5.306  -1.161   2.318  0.00  0.00    +0.000 A 
ENDROOT
BRANCH   1   7
ATOM      7  C   UNL     1       3.150  -0.449   1.251  0.00  0.00    +0.000 C 
BRANCH   7   8
ATOM      8  C   UNL     1       2.505  -0.273  -0.130  0.00  0.00    +0.000 C 
BRANCH   8   9
ATOM      9  N   UNL     1       1.043  -0.352  -0.038  0.00  0.00    +0.000 NA
ATOM     10  H   UNL     1       0.642  -0.200  -0.963  0.00  0.00    +0.000 HD
ATOM     11  H   UNL     1       0.700   0.406   0.547  0.00  0.00    +0.000 HD
ENDBRANCH   8   9
ENDBRANCH   7   8
ENDBRANCH   1   7
BRANCH   4  12
ATOM     12  C   UNL     1       8.976  -0.240   1.818  0.00  0.00    +0.000 C 
BRANCH  12  13
ATOM     13  N   UNL     1       9.220   0.805   2.808  0.00  0.00    +0.000 N 
ATOM     14  N   UNL     1       9.242   0.481   4.124  0.00  0.00    +0.000 NA
ATOM     15  C   UNL     1       8.918   1.631   4.721  0.00  0.00    +0.000 A 
ATOM     16  C   UNL     1       8.786   2.702   3.809  0.00  0.00    +0.000 A 
ATOM     17  C   UNL     1       8.403   4.052   3.878  0.00  0.00    +0.000 A 
ATOM     18  C   UNL     1       8.454   4.828   2.714  0.00  0.00    +0.000 A 
ATOM     19  C   UNL     1       8.913   4.288   1.513  0.00  0.00    +0.000 A 
ATOM     20  C   UNL     1       9.262   2.938   1.416  0.00  0.00    +0.000 A 
ATOM     21  C   UNL     1       9.147   2.162   2.578  0.00  0.00    +0.000 A 
ENDBRANCH  12  13
ENDBRANCH   4  12
TORSDOF 5
