REMARK  Name = 
REMARK  7 active torsions:
REMARK  status: ('A' for Active; 'I' for Inactive)
REMARK    1  A    between atoms: C_2  and  C_20
REMARK    2  A    between atoms: N_3  and  CA_4
REMARK    3  A    between atoms: CA_4  and  C_5
REMARK    4  A    between atoms: CA_4  and  C_7
REMARK    5  A    between atoms: C_5  and  O_6
REMARK    6  A    between atoms: C_10  and  C_11
REMARK    7  A    between atoms: C_11  and  C_12
REMARK                            x       y       z     vdW  Elec       q    Type
REMARK                         _______ _______ _______ _____ _____    ______ ____
ROOT
ATOM      1  CA  UNL     1       2.299  -0.179   2.445  0.00  0.00    +0.000 C 
ENDROOT
BRANCH   1   2
ATOM      2  C   UNL     1       3.100  -0.344   3.719  0.00  0.00    +0.000 A 
ATOM      3  C   UNL     1       2.933   0.618   4.723  0.00  0.00    +0.000 A 
ATOM      4  C   UNL     1       3.734   0.615   5.860  0.00  0.00    +0.000 A 
ATOM      5  C   UNL     1       4.699  -0.382   6.048  0.00  0.00    +0.000 A 
ATOM      6  C   UNL     1       4.842  -1.375   5.069  0.00  0.00    +0.000 A 
ATOM      7  C   UNL     1       4.052  -1.358   3.912  0.00  0.00    +0.000 A 
BRANCH   5   8
ATOM      8  C   UNL     1       5.585  -0.373   7.272  0.00  0.00    +0.000 C 
BRANCH   8   9
ATOM      9  C   UNL     1       5.058  -1.118   8.474  0.00  0.00    +0.000 A 
ATOM     10  C   UNL     1       3.859  -0.753   9.082  0.00  0.00    +0.000 A 
ATOM     11  N   UNL     1       3.425  -1.289  10.248  0.00  0.00    +0.000 NA
ATOM     12  C   UNL     1       4.238  -2.219  10.792  0.00  0.00    +0.000 A 
ATOM     13  C   UNL     1       5.419  -2.612  10.188  0.00  0.00    +0.000 A 
ATOM     14  N   UNL     1       5.856  -2.073   9.025  0.00  0.00    +0.000 NA
ENDBRANCH   8   9
ENDBRANCH   5   8
ENDBRANCH   1   2
BRANCH   1  17
ATOM     15  O   UNL     1      -0.066   0.333   1.122  0.00  0.00    +0.000 OA
ATOM     16  C   UNL     1       0.082  -0.785   1.620  0.00  0.00    +0.000 C 
ATOM     17  N   UNL     1       1.186  -1.107   2.366  0.00  0.00    +0.000 N 
ATOM     18  H   UNL     1       1.306  -2.048   2.725  0.00  0.00    +0.000 HD
BRANCH  16  19
ATOM     19  C   UNL     1      -0.934  -1.817   1.454  0.00  0.00    +0.000 A 
ATOM     20  C   UNL     1      -2.278  -1.494   1.387  0.00  0.00    +0.000 A 
ATOM     21  S   UNL     1      -3.277  -2.837   1.047  0.00  0.00    +0.000 S 
ATOM     22  C   UNL     1      -1.933  -3.882   0.951  0.00  0.00    +0.000 A 
ATOM     23  N   UNL     1      -2.078  -5.188   0.609  0.00  0.00    +0.000 NA
ATOM     24  C   UNL     1      -0.960  -5.836   0.518  0.00  0.00    +0.000 A 
ATOM     25  N   UNL     1       0.277  -5.305   0.772  0.00  0.00    +0.000 N 
ATOM     26  C   UNL     1       0.459  -4.024   1.217  0.00  0.00    +0.000 A 
ATOM     27  O   UNL     1       1.558  -3.629   1.612  0.00  0.00    +0.000 OA
ATOM     28  C   UNL     1      -0.747  -3.231   1.240  0.00  0.00    +0.000 A 
ATOM     29  H   UNL     1       1.105  -5.885   0.739  0.00  0.00    +0.000 HD
ENDBRANCH  16  19
ENDBRANCH   1  17
BRANCH   1  30
ATOM     30  C   UNL     1       3.216  -0.144   1.194  0.00  0.00    +0.000 C 
BRANCH  30  31
ATOM     31  O   UNL     1       2.516   0.054  -0.035  0.00  0.00    +0.000 OA
ATOM     32  H   UNL     1       1.753   0.638   0.144  0.00  0.00    +0.000 HD
ENDBRANCH  30  31
ENDBRANCH   1  30
TORSDOF 7
