REMARK  Name = 
REMARK  8 active torsions:
REMARK  status: ('A' for Active; 'I' for Inactive)
REMARK    1  A    between atoms: C_1  and  C_2
REMARK    2  A    between atoms: C_2  and  N_3
REMARK    3  A    between atoms: C_2  and  C_25
REMARK    4  A    between atoms: N_3  and  C_4
REMARK    5  A    between atoms: C_4  and  C_5
REMARK    6  A    between atoms: C_9  and  C_10
REMARK    7  A    between atoms: C_10  and  N_11
REMARK    8  A    between atoms: C_12  and  C_14
REMARK                            x       y       z     vdW  Elec       q    Type
REMARK                         _______ _______ _______ _____ _____    ______ ____
ROOT
ATOM      1  C   UNL     1      -1.106  -0.186  -1.503  0.00  0.00    +0.000 A 
ATOM      2  C   UNL     1      -1.701  -1.132  -0.675  0.00  0.00    +0.000 A 
ATOM      3  C   UNL     1      -3.089  -1.252  -0.680  0.00  0.00    +0.000 A 
ATOM      4  C   UNL     1      -3.847  -0.433  -1.510  0.00  0.00    +0.000 A 
ATOM      5  C   UNL     1      -3.193   0.506  -2.296  0.00  0.00    +0.000 A 
ATOM      6  N   UNL     1      -1.842   0.628  -2.304  0.00  0.00    +0.000 NA
ENDROOT
BRANCH   1   7
ATOM      7  C   UNL     1       0.416  -0.078  -1.568  0.00  0.00    +0.000 C 
BRANCH   7   8
ATOM      8  N   UNL     1       0.847   1.276  -1.909  0.00  0.00    +0.000 NA
ATOM      9  H   UNL     1       0.346   1.916  -1.297  0.00  0.00    +0.000 HD
BRANCH   8  11
ATOM     10  C   UNL     1       3.024   0.617  -2.887  0.00  0.00    +0.000 C 
ATOM     11  C   UNL     1       2.282   1.545  -1.914  0.00  0.00    +0.000 C 
BRANCH  11  12
ATOM     12  C   UNL     1       2.528   3.049  -2.280  0.00  0.00    +0.000 C 
ATOM     13  C   UNL     1       1.943   4.000  -1.210  0.00  0.00    +0.000 C 
ATOM     14  C   UNL     1       2.075   5.474  -1.584  0.00  0.00    +0.000 C 
ATOM     15  C   UNL     1       1.468   5.750  -2.953  0.00  0.00    +0.000 C 
ATOM     16  C   UNL     1       2.131   4.889  -4.018  0.00  0.00    +0.000 C 
ATOM     17  C   UNL     1       2.007   3.404  -3.691  0.00  0.00    +0.000 C 
ENDBRANCH  11  12
ENDBRANCH   8  11
ENDBRANCH   7   8
ENDBRANCH   1   7
BRANCH   5  18
ATOM     18  C   UNL     1      -3.973   1.421  -3.207  0.00  0.00    +0.000 C 
BRANCH  18  19
ATOM     19  N   UNL     1      -4.108   0.878  -4.537  0.00  0.00    +0.000 N 
ATOM     20  C   UNL     1      -5.223   0.215  -4.972  0.00  0.00    +0.000 C 
ATOM     21  O   UNL     1      -6.203   0.035  -4.255  0.00  0.00    +0.000 OA
ATOM     22  H   UNL     1      -3.234   0.779  -5.044  0.00  0.00    +0.000 HD
BRANCH  20  23
ATOM     23  C   UNL     1      -5.213  -0.192  -6.385  0.00  0.00    +0.000 A 
ATOM     24  C   UNL     1      -6.411  -0.395  -7.056  0.00  0.00    +0.000 A 
ATOM     25  S   UNL     1      -6.216  -0.773  -8.709  0.00  0.00    +0.000 S 
ATOM     26  C   UNL     1      -4.519  -0.731  -8.572  0.00  0.00    +0.000 A 
ATOM     27  N   UNL     1      -3.725  -0.983  -9.650  0.00  0.00    +0.000 NA
ATOM     28  C   UNL     1      -2.459  -0.945  -9.398  0.00  0.00    +0.000 A 
ATOM     29  N   UNL     1      -1.916  -0.674  -8.169  0.00  0.00    +0.000 N 
ATOM     30  C   UNL     1      -2.678  -0.379  -7.066  0.00  0.00    +0.000 A 
ATOM     31  O   UNL     1      -2.156  -0.087  -5.996  0.00  0.00    +0.000 OA
ATOM     32  C   UNL     1      -4.109  -0.421  -7.290  0.00  0.00    +0.000 A 
ATOM     33  H   UNL     1      -0.915  -0.648  -8.034  0.00  0.00    +0.000 HD
ENDBRANCH  20  23
ENDBRANCH  18  19
ENDBRANCH   5  18
TORSDOF 7
