REMARK  Name = 
REMARK  8 active torsions:
REMARK  status: ('A' for Active; 'I' for Inactive)
REMARK    1  A    between atoms: C_1  and  C_2
REMARK    2  A    between atoms: C_9  and  C_10
REMARK    3  A    between atoms: C_10  and  C_11
REMARK    4  A    between atoms: C_10  and  C_12
REMARK    5  A    between atoms: C_10  and  C_13
REMARK    6  A    between atoms: C_13  and  N_14
REMARK    7  A    between atoms: C_18  and  C_19
REMARK    8  A    between atoms: C_26  and  C_27
REMARK                            x       y       z     vdW  Elec       q    Type
REMARK                         _______ _______ _______ _____ _____    ______ ____
ROOT
ATOM      1  C   UNL     1       2.441   4.763  -5.010  0.00  0.00    +0.000 C 
ATOM      2  C   UNL     1       2.490   5.670  -3.762  0.00  0.00    +0.000 C 
ATOM      3  C   UNL     1       3.885   4.470  -5.481  0.00  0.00    +0.000 C 
ENDROOT
BRANCH   1  12
ATOM      4  C   UNL     1       3.420  -3.029  -2.252  0.00  0.00    +0.000 C 
ATOM      5  C   UNL     1       3.595  -1.614  -2.791  0.00  0.00    +0.000 C 
ATOM      6  C   UNL     1       2.523  -0.670  -2.200  0.00  0.00    +0.000 C 
ATOM      7  N   UNL     1       2.836   0.726  -2.499  0.00  0.00    +0.000 N 
ATOM      8  C   UNL     1       2.082   1.447  -3.391  0.00  0.00    +0.000 A 
ATOM      9  N   UNL     1       0.937   0.936  -3.858  0.00  0.00    +0.000 NA
ATOM     10  C   UNL     1       0.223   1.698  -4.704  0.00  0.00    +0.000 A 
ATOM     11  C   UNL     1       0.607   2.951  -5.121  0.00  0.00    +0.000 A 
ATOM     12  C   UNL     1       1.804   3.417  -4.620  0.00  0.00    +0.000 A 
ATOM     13  N   UNL     1       2.519   2.664  -3.753  0.00  0.00    +0.000 NA
ATOM     14  C   UNL     1       4.209   1.139  -2.213  0.00  0.00    +0.000 C 
ATOM     15  C   UNL     1       5.220   0.155  -2.835  0.00  0.00    +0.000 C 
ATOM     16  C   UNL     1       5.353   0.284  -4.352  0.00  0.00    +0.000 C 
ATOM     17  O   UNL     1       4.934  -1.202  -2.448  0.00  0.00    +0.000 OA
ENDBRANCH   1  12
BRANCH   1  18
ATOM     18  C   UNL     1       1.654   5.474  -6.145  0.00  0.00    +0.000 C 
BRANCH  18  19
ATOM     19  N   UNL     1       2.244   6.755  -6.559  0.00  0.00    +0.000 N 
ATOM     20  C   UNL     1       1.526   7.380  -7.597  0.00  0.00    +0.000 A 
ATOM     21  C   UNL     1       1.997   8.601  -8.078  0.00  0.00    +0.000 A 
ATOM     22  C   UNL     1       1.307   9.252  -9.102  0.00  0.00    +0.000 A 
ATOM     23  C   UNL     1       0.157   8.665  -9.621  0.00  0.00    +0.000 A 
ATOM     24  C   UNL     1      -0.243   7.448  -9.095  0.00  0.00    +0.000 A 
ATOM     25  N   UNL     1       0.408   6.810  -8.091  0.00  0.00    +0.000 NA
ATOM     26  H   UNL     1       3.208   6.659  -6.867  0.00  0.00    +0.000 HD
BRANCH  23  27
ATOM     27  C   UNL     1      -0.643   9.263 -10.712  0.00  0.00    +0.000 C 
ATOM     28  N   UNL     1      -0.568  10.616 -10.873  0.00  0.00    +0.000 N 
ATOM     29  O   UNL     1      -1.365   8.578 -11.421  0.00  0.00    +0.000 OA
ATOM     30  H   UNL     1      -0.188  11.233 -10.171  0.00  0.00    +0.000 HD
ATOM     31  H   UNL     1      -1.201  11.019 -11.555  0.00  0.00    +0.000 HD
ENDBRANCH  23  27
ENDBRANCH  18  19
ENDBRANCH   1  18
TORSDOF 4
