REMARK  Name = 
REMARK  3 active torsions:
REMARK  status: ('A' for Active; 'I' for Inactive)
REMARK    1  A    between atoms: C_2  and  C_4
REMARK    2  A    between atoms: N_8  and  C_9
REMARK    3  A    between atoms: C_9  and  C_10
REMARK                            x       y       z     vdW  Elec       q    Type
REMARK                         _______ _______ _______ _____ _____    ______ ____
ROOT
ATOM      1  C   UNL     1       2.919  -0.696   1.245  0.00  0.00    +0.000 A 
ATOM      2  C   UNL     1       4.246  -0.270   1.211  0.00  0.00    +0.000 A 
ATOM      3  C   UNL     1       5.147  -0.785   2.144  0.00  0.00    +0.000 A 
ATOM      4  C   UNL     1       4.720  -1.728   3.078  0.00  0.00    +0.000 A 
ATOM      5  N   UNL     1       5.691  -2.287   3.925  0.00  0.00    +0.000 N 
ATOM      6  N   UNL     1       3.432  -2.123   3.137  0.00  0.00    +0.000 NA
ATOM      7  C   UNL     1       2.559  -1.587   2.243  0.00  0.00    +0.000 A 
ATOM      8  H   UNL     1       6.155  -1.546   4.438  0.00  0.00    +0.000 HD
ENDROOT
BRANCH   1  10
ATOM      9  N   UNL     1       2.351   0.119  -0.972  0.00  0.00    +0.000 N 
ATOM     10  C   UNL     1       1.904  -0.248   0.272  0.00  0.00    +0.000 C 
ATOM     11  O   UNL     1       0.712  -0.246   0.540  0.00  0.00    +0.000 OA
ATOM     12  H   UNL     1       1.640   0.306  -1.667  0.00  0.00    +0.000 HD
ATOM     13  H   UNL     1       3.276  -0.113  -1.307  0.00  0.00    +0.000 HD
ENDBRANCH   1  10
BRANCH   5  14
ATOM     14  C   UNL     1       5.234  -3.395   4.759  0.00  0.00    +0.000 C 
BRANCH  14  15
ATOM     15  C   UNL     1       6.294  -3.741   5.830  0.00  0.00    +0.000 C 
ATOM     16  C   UNL     1       5.985  -5.121   6.436  0.00  0.00    +0.000 C 
ATOM     17  C   UNL     1       6.945  -5.487   7.565  0.00  0.00    +0.000 C 
ATOM     18  C   UNL     1       6.971  -4.415   8.647  0.00  0.00    +0.000 C 
ATOM     19  C   UNL     1       7.306  -3.049   8.061  0.00  0.00    +0.000 C 
ATOM     20  C   UNL     1       6.348  -2.669   6.935  0.00  0.00    +0.000 C 
ENDBRANCH  14  15
ENDBRANCH   5  14
TORSDOF 3
