REMARK  Name = 
REMARK  5 active torsions:
REMARK  status: ('A' for Active; 'I' for Inactive)
REMARK    1  A    between atoms: C_2  and  C_4
REMARK    2  A    between atoms: C_7  and  O_8
REMARK    3  A    between atoms: O_8  and  C_9
REMARK    4  A    between atoms: C_9  and  C_10
REMARK    5  A    between atoms: C_14  and  C_15
REMARK                            x       y       z     vdW  Elec       q    Type
REMARK                         _______ _______ _______ _____ _____    ______ ____
ROOT
ATOM      1  C   UNL     1       4.564   4.960  -3.456  0.00  0.00    +0.000 C 
ENDROOT
BRANCH   1   2
ATOM      2  C   UNL     1       5.310   5.802  -4.465  0.00  0.00    +0.000 A 
ATOM      3  C   UNL     1       5.001   7.156  -4.615  0.00  0.00    +0.000 A 
ATOM      4  C   UNL     1       5.745   7.950  -5.481  0.00  0.00    +0.000 A 
ATOM      5  C   UNL     1       6.811   7.396  -6.196  0.00  0.00    +0.000 A 
ATOM      6  C   UNL     1       7.173   6.044  -6.054  0.00  0.00    +0.000 A 
ATOM      7  C   UNL     1       6.378   5.255  -5.199  0.00  0.00    +0.000 A 
BRANCH   6   8
ATOM      8  C   UNL     1       8.393   5.497  -6.698  0.00  0.00    +0.000 A 
ATOM      9  C   UNL     1       9.542   6.300  -6.866  0.00  0.00    +0.000 A 
ATOM     10  C   UNL     1      10.727   5.785  -7.398  0.00  0.00    +0.000 A 
ATOM     11  C   UNL     1      10.785   4.450  -7.764  0.00  0.00    +0.000 A 
ATOM     12  F   UNL     1      11.929   3.946  -8.248  0.00  0.00    +0.000 F 
ATOM     13  C   UNL     1       9.676   3.628  -7.626  0.00  0.00    +0.000 A 
ATOM     14  C   UNL     1       8.486   4.151  -7.106  0.00  0.00    +0.000 A 
ENDBRANCH   6   8
ENDBRANCH   1   2
BRANCH   1  15
ATOM     15  O   UNL     1       3.363   4.424  -4.018  0.00  0.00    +0.000 OA
BRANCH  15  19
ATOM     16  C   UNL     1       1.302   2.124  -1.286  0.00  0.00    +0.000 A 
ATOM     17  C   UNL     1       0.801   2.267  -2.581  0.00  0.00    +0.000 A 
ATOM     18  C   UNL     1       1.500   3.055  -3.501  0.00  0.00    +0.000 A 
ATOM     19  C   UNL     1       2.674   3.668  -3.089  0.00  0.00    +0.000 A 
ATOM     20  N   UNL     1       3.166   3.558  -1.834  0.00  0.00    +0.000 NA
ATOM     21  C   UNL     1       2.466   2.801  -0.958  0.00  0.00    +0.000 A 
BRANCH  16  23
ATOM     22  N   UNL     1      -0.066   0.218  -0.664  0.00  0.00    +0.000 N 
ATOM     23  C   UNL     1       0.661   1.298  -0.244  0.00  0.00    +0.000 C 
ATOM     24  O   UNL     1       0.814   1.536   0.945  0.00  0.00    +0.000 OA
ATOM     25  H   UNL     1      -0.384  -0.411   0.064  0.00  0.00    +0.000 HD
ATOM     26  H   UNL     1       0.012  -0.154  -1.598  0.00  0.00    +0.000 HD
ENDBRANCH  16  23
ENDBRANCH  15  19
ENDBRANCH   1  15
TORSDOF 5
