REMARK  Name = 
REMARK  8 active torsions:
REMARK  status: ('A' for Active; 'I' for Inactive)
REMARK    1  A    between atoms: C_1  and  C_2
REMARK    2  A    between atoms: C_2  and  N_3
REMARK    3  A    between atoms: C_2  and  C_17
REMARK    4  A    between atoms: C_4  and  C_6
REMARK    5  A    between atoms: N_12  and  C_13
REMARK    6  A    between atoms: C_20  and  O_21
REMARK    7  A    between atoms: O_21  and  C_22
REMARK    8  A    between atoms: C_22  and  C_23
REMARK                            x       y       z     vdW  Elec       q    Type
REMARK                         _______ _______ _______ _____ _____    ______ ____
ROOT
ATOM      1  C   UNL     1       2.903   1.314   0.705  0.00  0.00    +0.000 C 
ATOM      2  C   UNL     1       2.430   0.061  -0.041  0.00  0.00    +0.000 C 
ENDROOT
BRANCH   2   3
ATOM      3  C   UNL     1       2.924  -1.240   0.568  0.00  0.00    +0.000 A 
ATOM      4  C   UNL     1       3.174  -2.344  -0.262  0.00  0.00    +0.000 A 
ATOM      5  C   UNL     1       3.628  -3.553   0.272  0.00  0.00    +0.000 A 
ATOM      6  C   UNL     1       3.845  -3.677   1.643  0.00  0.00    +0.000 A 
ATOM      7  C   UNL     1       3.538  -2.609   2.484  0.00  0.00    +0.000 A 
ATOM      8  C   UNL     1       3.083  -1.402   1.951  0.00  0.00    +0.000 A 
BRANCH   6   9
ATOM      9  O   UNL     1       4.346  -4.880   2.062  0.00  0.00    +0.000 OA
BRANCH   9  10
ATOM     10  C   UNL     1       5.010  -4.848   3.328  0.00  0.00    +0.000 C 
BRANCH  10  11
ATOM     11  C   UNL     1       5.935  -6.023   3.440  0.00  0.00    +0.000 A 
ATOM     12  C   UNL     1       6.929  -6.256   2.485  0.00  0.00    +0.000 A 
ATOM     13  C   UNL     1       7.810  -7.319   2.653  0.00  0.00    +0.000 A 
ATOM     14  C   UNL     1       7.669  -8.113   3.778  0.00  0.00    +0.000 A 
ATOM     15  N   UNL     1       6.725  -7.919   4.724  0.00  0.00    +0.000 NA
ATOM     16  C   UNL     1       5.881  -6.880   4.534  0.00  0.00    +0.000 A 
ENDBRANCH  10  11
ENDBRANCH   9  10
ENDBRANCH   6   9
ENDBRANCH   2   3
BRANCH   2  17
ATOM     17  N   UNL     1       0.983   0.059  -0.075  0.00  0.00    +0.000 N 
ATOM     18  C   UNL     1       0.259  -0.332  -1.169  0.00  0.00    +0.000 C 
ATOM     19  O   UNL     1       0.782  -0.622  -2.241  0.00  0.00    +0.000 OA
ATOM     20  H   UNL     1       0.526   0.053   0.830  0.00  0.00    +0.000 HD
BRANCH  18  21
ATOM     21  C   UNL     1      -1.202  -0.314  -1.010  0.00  0.00    +0.000 A 
ATOM     22  C   UNL     1      -2.008  -0.192  -2.134  0.00  0.00    +0.000 A 
ATOM     23  S   UNL     1      -3.674  -0.153  -1.778  0.00  0.00    +0.000 S 
ATOM     24  C   UNL     1      -3.379  -0.340  -0.113  0.00  0.00    +0.000 A 
ATOM     25  N   UNL     1      -4.408  -0.414   0.769  0.00  0.00    +0.000 NA
ATOM     26  C   UNL     1      -4.048  -0.587   1.999  0.00  0.00    +0.000 A 
ATOM     27  N   UNL     1      -2.748  -0.680   2.447  0.00  0.00    +0.000 N 
ATOM     28  C   UNL     1      -2.463  -0.858   3.855  0.00  0.00    +0.000 C 
ATOM     29  C   UNL     1      -1.669  -0.556   1.576  0.00  0.00    +0.000 A 
ATOM     30  O   UNL     1      -0.503  -0.539   1.967  0.00  0.00    +0.000 OA
ATOM     31  C   UNL     1      -2.029  -0.402   0.175  0.00  0.00    +0.000 A 
ENDBRANCH  18  21
ENDBRANCH   2  17
TORSDOF 6
