REMARK  Name = 
REMARK  9 active torsions:
REMARK  status: ('A' for Active; 'I' for Inactive)
REMARK    1  A    between atoms: C_1  and  N_2
REMARK    2  A    between atoms: N_2  and  C_3
REMARK    3  A    between atoms: C_3  and  C_4
REMARK    4  A    between atoms: C_7  and  C_8
REMARK    5  A    between atoms: C_8  and  O_9
REMARK    6  A    between atoms: C_8  and  C_10
REMARK    7  A    between atoms: C_10  and  N_11
REMARK    8  A    between atoms: N_11  and  C_12
REMARK    9  A    between atoms: C_19  and  C_21
REMARK                            x       y       z     vdW  Elec       q    Type
REMARK                         _______ _______ _______ _____ _____    ______ ____
ROOT
ATOM      1  C   UNL     1       2.311  -0.289   2.373  0.00  0.00    +0.000 A 
ATOM      2  C   UNL     1       2.102  -1.632   2.717  0.00  0.00    +0.000 A 
ATOM      3  C   UNL     1       1.283  -1.960   3.798  0.00  0.00    +0.000 A 
ATOM      4  C   UNL     1       0.660  -0.950   4.545  0.00  0.00    +0.000 A 
ATOM      5  C   UNL     1       0.911   0.389   4.213  0.00  0.00    +0.000 A 
ATOM      6  C   UNL     1       1.718   0.720   3.133  0.00  0.00    +0.000 A 
ENDROOT
BRANCH   1   7
ATOM      7  C   UNL     1       3.138   0.082   1.176  0.00  0.00    +0.000 C 
BRANCH   7   9
ATOM      8  C   UNL     1       0.992   0.015  -0.171  0.00  0.00    +0.000 C 
ATOM      9  N   UNL     1       2.419   0.311  -0.081  0.00  0.00    +0.000 N 
ATOM     10  C   UNL     1       2.955   1.070  -1.136  0.00  0.00    +0.000 C 
ATOM     11  O   UNL     1       2.255   1.431  -2.079  0.00  0.00    +0.000 OA
BRANCH  10  12
ATOM     12  C   UNL     1       4.386   1.403  -1.125  0.00  0.00    +0.000 A 
ATOM     13  C   UNL     1       5.397   0.521  -0.776  0.00  0.00    +0.000 A 
ATOM     14  S   UNL     1       6.963   1.180  -0.919  0.00  0.00    +0.000 S 
ATOM     15  C   UNL     1       6.352   2.617  -1.593  0.00  0.00    +0.000 A 
ATOM     16  N   UNL     1       7.189   3.580  -2.049  0.00  0.00    +0.000 NA
ATOM     17  C   UNL     1       6.585   4.587  -2.594  0.00  0.00    +0.000 A 
ATOM     18  N   UNL     1       5.224   4.728  -2.681  0.00  0.00    +0.000 N 
ATOM     19  C   UNL     1       4.336   3.844  -2.108  0.00  0.00    +0.000 A 
ATOM     20  O   UNL     1       3.152   4.125  -1.988  0.00  0.00    +0.000 OA
ATOM     21  C   UNL     1       4.969   2.632  -1.605  0.00  0.00    +0.000 A 
ATOM     22  H   UNL     1       4.818   5.574  -3.053  0.00  0.00    +0.000 HD
ENDBRANCH  10  12
ENDBRANCH   7   9
ENDBRANCH   1   7
BRANCH   4  23
ATOM     23  C   UNL     1      -0.245  -1.328   5.698  0.00  0.00    +0.000 C 
BRANCH  23  24
ATOM     24  O   UNL     1       0.549  -1.431   6.884  0.00  0.00    +0.000 OA
ATOM     25  H   UNL     1       1.279  -0.794   6.795  0.00  0.00    +0.000 HD
ENDBRANCH  23  24
BRANCH  23  26
ATOM     26  C   UNL     1      -1.407  -0.341   5.979  0.00  0.00    +0.000 C 
BRANCH  26  27
ATOM     27  N   UNL     1      -2.321  -0.155   4.845  0.00  0.00    +0.000 NA
ATOM     28  H   UNL     1      -2.788  -1.032   4.614  0.00  0.00    +0.000 HD
BRANCH  27  29
ATOM     29  C   UNL     1      -3.308   0.910   5.065  0.00  0.00    +0.000 C 
ATOM     30  C   UNL     1      -4.295   0.639   6.196  0.00  0.00    +0.000 C 
ATOM     31  C   UNL     1      -5.494   0.029   5.506  0.00  0.00    +0.000 C 
ATOM     32  N   UNL     1      -5.606   0.759   4.243  0.00  0.00    +0.000 NA
ATOM     33  C   UNL     1      -4.225   1.075   3.831  0.00  0.00    +0.000 C 
ATOM     34  H   UNL     1      -6.101   1.635   4.411  0.00  0.00    +0.000 HD
ENDBRANCH  27  29
ENDBRANCH  26  27
ENDBRANCH  23  26
ENDBRANCH   4  23
TORSDOF 8
