REMARK  Name = 
REMARK  5 active torsions:
REMARK  status: ('A' for Active; 'I' for Inactive)
REMARK    1  A    between atoms: C_1  and  C_2
REMARK    2  A    between atoms: N_5  and  C_6
REMARK    3  A    between atoms: C_6  and  C_7
REMARK    4  A    between atoms: C_11  and  C_12
REMARK    5  A    between atoms: C_22  and  C_23
REMARK                            x       y       z     vdW  Elec       q    Type
REMARK                         _______ _______ _______ _____ _____    ______ ____
ROOT
ATOM      1  C   UNL     1      -1.661   2.485  -4.755  0.00  0.00    +0.000 C 
ATOM      2  C   UNL     1      -0.836   2.363  -3.509  0.00  0.00    +0.000 A 
ATOM      3  N   UNL     1      -1.547   2.447  -2.342  0.00  0.00    +0.000 NA
ATOM      4  C   UNL     1      -0.907   2.342  -1.161  0.00  0.00    +0.000 A 
ATOM      5  N   UNL     1      -1.627   2.305   0.032  0.00  0.00    +0.000 N 
ATOM      6  C   UNL     1       0.468   2.139  -1.117  0.00  0.00    +0.000 A 
ATOM      7  C   UNL     1       1.202   2.064  -2.305  0.00  0.00    +0.000 A 
ATOM      8  C   UNL     1       0.549   2.181  -3.534  0.00  0.00    +0.000 A 
ATOM      9  H   UNL     1      -1.167   2.794   0.792  0.00  0.00    +0.000 HD
ENDROOT
BRANCH   8  10
ATOM     10  C   UNL     1       1.307   2.070  -4.808  0.00  0.00    +0.000 C 
ATOM     11  N   UNL     1       2.624   2.447  -4.797  0.00  0.00    +0.000 N 
ATOM     12  O   UNL     1       0.801   1.674  -5.855  0.00  0.00    +0.000 OA
ATOM     13  H   UNL     1       3.054   2.953  -4.034  0.00  0.00    +0.000 HD
ATOM     14  H   UNL     1       3.108   2.435  -5.689  0.00  0.00    +0.000 HD
ENDBRANCH   8  10
BRANCH   5  15
ATOM     15  C   UNL     1      -3.061   2.590  -0.018  0.00  0.00    +0.000 C 
BRANCH  15  16
ATOM     16  C   UNL     1      -3.401   4.073  -0.020  0.00  0.00    +0.000 A 
ATOM     17  C   UNL     1      -3.591   4.739  -1.216  0.00  0.00    +0.000 A 
ATOM     18  C   UNL     1      -3.983   6.053  -1.130  0.00  0.00    +0.000 A 
ATOM     19  N   UNL     1      -4.184   6.694   0.033  0.00  0.00    +0.000 NA
ATOM     20  C   UNL     1      -3.966   5.984   1.157  0.00  0.00    +0.000 A 
ATOM     21  N   UNL     1      -3.568   4.693   1.177  0.00  0.00    +0.000 NA
BRANCH  20  22
ATOM     22  C   UNL     1      -4.211   6.667   2.448  0.00  0.00    +0.000 A 
ATOM     23  C   UNL     1      -4.659   8.006   2.504  0.00  0.00    +0.000 A 
ATOM     24  C   UNL     1      -4.889   8.657   3.722  0.00  0.00    +0.000 A 
ATOM     25  C   UNL     1      -4.675   7.983   4.919  0.00  0.00    +0.000 A 
ATOM     26  C   UNL     1      -4.238   6.662   4.892  0.00  0.00    +0.000 A 
ATOM     27 CL   UNL     1      -3.973   5.823   6.372  0.00  0.00    +0.000 Cl
ATOM     28  C   UNL     1      -4.010   6.009   3.677  0.00  0.00    +0.000 A 
ENDBRANCH  20  22
ENDBRANCH  15  16
ENDBRANCH   5  15
TORSDOF 4
