REMARK  Name = 
REMARK  8 active torsions:
REMARK  status: ('A' for Active; 'I' for Inactive)
REMARK    1  A    between atoms: N_1  and  C_2
REMARK    2  A    between atoms: C_2  and  C_3
REMARK    3  A    between atoms: C_3  and  N_4
REMARK    4  A    between atoms: C_3  and  C_17
REMARK    5  A    between atoms: C_5  and  C_7
REMARK    6  A    between atoms: C_20  and  C_21
REMARK    7  A    between atoms: C_21  and  N_22
REMARK    8  A    between atoms: C_23  and  C_25
REMARK                            x       y       z     vdW  Elec       q    Type
REMARK                         _______ _______ _______ _____ _____    ______ ____
ROOT
ATOM      1  C   UNL     1       2.894  -1.330  -0.306  0.00  0.00    +0.000 C 
ENDROOT
BRANCH   1   2
ATOM      2  C   UNL     1       4.429  -1.388  -0.380  0.00  0.00    +0.000 A 
ATOM      3  C   UNL     1       5.084  -2.577  -0.741  0.00  0.00    +0.000 A 
ATOM      4  C   UNL     1       6.487  -2.642  -0.828  0.00  0.00    +0.000 A 
ATOM      5  C   UNL     1       7.277  -1.520  -0.547  0.00  0.00    +0.000 A 
ATOM      6  C   UNL     1       6.627  -0.326  -0.205  0.00  0.00    +0.000 A 
ATOM      7  C   UNL     1       5.227  -0.262  -0.118  0.00  0.00    +0.000 A 
BRANCH   5   8
ATOM      8  C   UNL     1       8.790  -1.583  -0.582  0.00  0.00    +0.000 C 
BRANCH   8   9
ATOM      9  N   UNL     1       9.336  -1.282  -1.883  0.00  0.00    +0.000 N 
ATOM     10  C   UNL     1      10.701  -1.196  -2.078  0.00  0.00    +0.000 C 
ATOM     11  O   UNL     1      11.514  -1.353  -1.178  0.00  0.00    +0.000 OA
ATOM     12  H   UNL     1       8.719  -1.301  -2.678  0.00  0.00    +0.000 HD
BRANCH  10  13
ATOM     13  C   UNL     1      11.096  -0.897  -3.461  0.00  0.00    +0.000 A 
ATOM     14  C   UNL     1      10.281  -0.633  -4.603  0.00  0.00    +0.000 A 
ATOM     15  C   UNL     1      11.105  -0.380  -5.676  0.00  0.00    +0.000 A 
ATOM     16  N   UNL     1      12.399  -0.483  -5.242  0.00  0.00    +0.000 N 
ATOM     17  C   UNL     1      12.406  -0.793  -3.906  0.00  0.00    +0.000 A 
ATOM     18  H   UNL     1      13.222  -0.342  -5.816  0.00  0.00    +0.000 HD
ENDBRANCH  10  13
ENDBRANCH   8   9
ENDBRANCH   5   8
ENDBRANCH   1   2
BRANCH   1  19
ATOM     19  N   UNL     1       2.405  -0.386  -1.302  0.00  0.00    +0.000 N 
ATOM     20  C   UNL     1       1.078  -0.242  -1.637  0.00  0.00    +0.000 C 
ATOM     21  O   UNL     1       0.164  -0.786  -1.035  0.00  0.00    +0.000 OA
ATOM     22  H   UNL     1       3.099  -0.085  -1.976  0.00  0.00    +0.000 HD
BRANCH  20  23
ATOM     23  C   UNL     1       0.823   0.664  -2.755  0.00  0.00    +0.000 A 
ATOM     24  C   UNL     1      -0.324   1.442  -2.816  0.00  0.00    +0.000 A 
ATOM     25  S   UNL     1      -0.400   2.419  -4.217  0.00  0.00    +0.000 S 
ATOM     26  C   UNL     1       1.072   1.794  -4.804  0.00  0.00    +0.000 A 
ATOM     27  N   UNL     1       1.585   2.182  -6.002  0.00  0.00    +0.000 NA
ATOM     28  C   UNL     1       2.688   1.595  -6.327  0.00  0.00    +0.000 A 
ATOM     29  N   UNL     1       3.337   0.662  -5.558  0.00  0.00    +0.000 N 
ATOM     30  C   UNL     1       2.881   0.272  -4.327  0.00  0.00    +0.000 A 
ATOM     31  O   UNL     1       3.532  -0.497  -3.632  0.00  0.00    +0.000 OA
ATOM     32  C   UNL     1       1.626   0.881  -3.931  0.00  0.00    +0.000 A 
ATOM     33  H   UNL     1       4.212   0.259  -5.845  0.00  0.00    +0.000 HD
ENDBRANCH  20  23
ENDBRANCH   1  19
BRANCH   1  34
ATOM     34  C   UNL     1       2.364  -0.940   1.103  0.00  0.00    +0.000 C 
BRANCH  34  35
ATOM     35  N   UNL     1       2.799  -1.807   2.200  0.00  0.00    +0.000 NA
ATOM     36  H   UNL     1       2.609  -1.326   3.079  0.00  0.00    +0.000 HD
ATOM     37  H   UNL     1       3.808  -1.937   2.153  0.00  0.00    +0.000 HD
ENDBRANCH  34  35
ENDBRANCH   1  34
TORSDOF 8
