REMARK  Name = 
REMARK  6 active torsions:
REMARK  status: ('A' for Active; 'I' for Inactive)
REMARK    1  A    between atoms: C_2  and  C_20
REMARK    2  A    between atoms: N_3  and  C_4
REMARK    3  A    between atoms: C_4  and  C_5
REMARK    4  A    between atoms: C_8  and  C_9
REMARK    5  A    between atoms: C_9  and  N_10
REMARK    6  A    between atoms: C_11  and  C_13
REMARK                            x       y       z     vdW  Elec       q    Type
REMARK                         _______ _______ _______ _____ _____    ______ ____
ROOT
ATOM      1  C   UNL     1       3.299  -3.530   0.261  0.00  0.00    +0.000 A 
ATOM      2  C   UNL     1       4.647  -3.276   0.553  0.00  0.00    +0.000 A 
ATOM      3  C   UNL     1       5.564  -4.327   0.679  0.00  0.00    +0.000 A 
ATOM      4  C   UNL     1       5.159  -5.656   0.493  0.00  0.00    +0.000 A 
ATOM      5  C   UNL     1       3.814  -5.909   0.195  0.00  0.00    +0.000 A 
ATOM      6  C   UNL     1       2.897  -4.858   0.069  0.00  0.00    +0.000 A 
ENDROOT
BRANCH   1   7
ATOM      7  C   UNL     1       2.311  -2.398   0.115  0.00  0.00    +0.000 C 
BRANCH   7  10
ATOM      8  O   UNL     1       0.549  -0.462  -0.863  0.00  0.00    +0.000 OA
ATOM      9  C   UNL     1       1.400  -0.917  -1.622  0.00  0.00    +0.000 C 
ATOM     10  N   UNL     1       2.254  -1.924  -1.245  0.00  0.00    +0.000 N 
ATOM     11  H   UNL     1       3.060  -2.129  -1.824  0.00  0.00    +0.000 HD
BRANCH   9  12
ATOM     12  C   UNL     1       1.534  -0.434  -3.003  0.00  0.00    +0.000 A 
ATOM     13  C   UNL     1       0.458   0.169  -3.641  0.00  0.00    +0.000 A 
ATOM     14  S   UNL     1       0.795   0.646  -5.245  0.00  0.00    +0.000 S 
ATOM     15  C   UNL     1       2.404   0.108  -5.125  0.00  0.00    +0.000 A 
ATOM     16  N   UNL     1       3.271   0.250  -6.165  0.00  0.00    +0.000 NA
ATOM     17  C   UNL     1       4.469  -0.168  -5.923  0.00  0.00    +0.000 A 
ATOM     18  N   UNL     1       4.878  -0.725  -4.739  0.00  0.00    +0.000 N 
ATOM     19  C   UNL     1       4.031  -0.919  -3.677  0.00  0.00    +0.000 A 
ATOM     20  O   UNL     1       4.418  -1.469  -2.650  0.00  0.00    +0.000 OA
ATOM     21  C   UNL     1       2.675  -0.448  -3.888  0.00  0.00    +0.000 A 
ATOM     22  H   UNL     1       5.826  -1.044  -4.616  0.00  0.00    +0.000 HD
ENDBRANCH   9  12
ENDBRANCH   7  10
ENDBRANCH   1   7
BRANCH   4  23
ATOM     23  C   UNL     1       6.146  -6.791   0.592  0.00  0.00    +0.000 C 
BRANCH  23  24
ATOM     24  N   UNL     1       6.267  -7.313   1.930  0.00  0.00    +0.000 N 
ATOM     25  C   UNL     1       7.138  -8.342   2.213  0.00  0.00    +0.000 C 
ATOM     26  O   UNL     1       7.875  -8.847   1.368  0.00  0.00    +0.000 OA
ATOM     27  H   UNL     1       5.539  -7.150   2.621  0.00  0.00    +0.000 HD
BRANCH  25  28
ATOM     28  C   UNL     1       7.154  -8.794   3.680  0.00  0.00    +0.000 C 
ATOM     29  C   UNL     1       6.734 -10.240   3.859  0.00  0.00    +0.000 C 
ATOM     30  C   UNL     1       6.400 -10.304   5.338  0.00  0.00    +0.000 C 
ATOM     31  C   UNL     1       5.916  -8.902   5.687  0.00  0.00    +0.000 C 
ATOM     32  N   UNL     1       6.166  -8.061   4.510  0.00  0.00    +0.000 NA
ATOM     33  H   UNL     1       6.568  -7.167   4.797  0.00  0.00    +0.000 HD
ENDBRANCH  25  28
ENDBRANCH  23  24
ENDBRANCH   4  23
TORSDOF 6
