REMARK  Name = 
REMARK  5 active torsions:
REMARK  status: ('A' for Active; 'I' for Inactive)
REMARK    1  A    between atoms: C_1  and  O_2
REMARK    2  A    between atoms: O_2  and  C_3
REMARK    3  A    between atoms: C_7  and  C_8
REMARK    4  A    between atoms: C_8  and  N_9
REMARK    5  A    between atoms: C_15  and  C_16
REMARK                            x       y       z     vdW  Elec       q    Type
REMARK                         _______ _______ _______ _____ _____    ______ ____
ROOT
ATOM      1  C   UNL     1       2.635   4.409  -1.938  0.00  0.00    +0.000 C 
ENDROOT
BRANCH   1   2
ATOM      2  N   UNL     1       1.631   4.832  -0.968  0.00  0.00    +0.000 N 
ATOM      3  C   UNL     1       0.345   5.184  -1.303  0.00  0.00    +0.000 A 
ATOM      4  C   UNL     1      -0.385   5.290  -0.141  0.00  0.00    +0.000 A 
ATOM      5  C   UNL     1       0.482   4.993   0.945  0.00  0.00    +0.000 A 
ATOM      6  C   UNL     1       0.308   4.905   2.331  0.00  0.00    +0.000 A 
ATOM      7  N   UNL     1       1.340   4.564   3.139  0.00  0.00    +0.000 NA
ATOM      8  C   UNL     1       2.558   4.325   2.598  0.00  0.00    +0.000 A 
ATOM      9  C   UNL     1       3.647   3.916   3.547  0.00  0.00    +0.000 C 
ATOM     10  C   UNL     1       2.828   4.408   1.233  0.00  0.00    +0.000 A 
ATOM     11  C   UNL     1       1.746   4.733   0.407  0.00  0.00    +0.000 A 
ENDBRANCH   1   2
BRANCH   1  16
ATOM     12  C   UNL     1       4.136   7.110  -4.052  0.00  0.00    +0.000 A 
ATOM     13  N   UNL     1       5.259   7.421  -3.369  0.00  0.00    +0.000 NA
ATOM     14  C   UNL     1       5.438   6.756  -2.221  0.00  0.00    +0.000 A 
ATOM     15  N   UNL     1       4.626   5.815  -1.714  0.00  0.00    +0.000 NA
ATOM     16  C   UNL     1       3.503   5.535  -2.426  0.00  0.00    +0.000 A 
ATOM     17  C   UNL     1       3.209   6.183  -3.611  0.00  0.00    +0.000 A 
ATOM     18  F   UNL     1       2.116   5.880  -4.322  0.00  0.00    +0.000 F 
BRANCH  12  20
ATOM     19  C   UNL     1       4.982   8.537  -5.710  0.00  0.00    +0.000 C 
ATOM     20  O   UNL     1       3.905   7.708  -5.276  0.00  0.00    +0.000 OA
ENDBRANCH  12  20
ENDBRANCH   1  16
TORSDOF 3
