REMARK  Name = 
REMARK  9 active torsions:
REMARK  status: ('A' for Active; 'I' for Inactive)
REMARK    1  A    between atoms: C_1  and  O_2
REMARK    2  A    between atoms: O_2  and  C_3
REMARK    3  A    between atoms: C_10  and  C_11
REMARK    4  A    between atoms: N_13  and  C_14
REMARK    5  A    between atoms: C_14  and  C_15
REMARK    6  A    between atoms: C_18  and  C_19
REMARK    7  A    between atoms: C_19  and  C_20
REMARK    8  A    between atoms: C_20  and  C_21
REMARK    9  A    between atoms: C_21  and  C_22
REMARK                            x       y       z     vdW  Elec       q    Type
REMARK                         _______ _______ _______ _____ _____    ______ ____
ROOT
ATOM      1  C   UNL     1       2.717   3.376  -0.391  0.00  0.00    +0.000 C 
ENDROOT
BRANCH   1   2
ATOM      2  C   UNL     1       1.494   3.048  -1.213  0.00  0.00    +0.000 A 
ATOM      3  C   UNL     1       1.334   1.776  -1.776  0.00  0.00    +0.000 A 
ATOM      4  C   UNL     1       0.164   1.445  -2.471  0.00  0.00    +0.000 A 
ATOM      5  C   UNL     1      -0.872   2.377  -2.622  0.00  0.00    +0.000 A 
ATOM      6  C   UNL     1      -0.681   3.670  -2.117  0.00  0.00    +0.000 A 
ATOM      7  C   UNL     1       0.491   4.003  -1.425  0.00  0.00    +0.000 A 
BRANCH   5   8
ATOM      8  C   UNL     1      -2.163   1.995  -3.317  0.00  0.00    +0.000 C 
BRANCH   8   9
ATOM      9  C   UNL     1      -2.900   0.849  -2.610  0.00  0.00    +0.000 C 
BRANCH   9  10
ATOM     10  C   UNL     1      -4.207   0.473  -3.314  0.00  0.00    +0.000 C 
BRANCH  10  11
ATOM     11  C   UNL     1      -4.886  -0.671  -2.601  0.00  0.00    +0.000 A 
ATOM     12  C   UNL     1      -5.803  -0.427  -1.580  0.00  0.00    +0.000 A 
ATOM     13  C   UNL     1      -6.357  -1.509  -0.900  0.00  0.00    +0.000 A 
ATOM     14  C   UNL     1      -5.987  -2.798  -1.255  0.00  0.00    +0.000 A 
ATOM     15  C   UNL     1      -5.076  -2.954  -2.286  0.00  0.00    +0.000 A 
ATOM     16  N   UNL     1      -4.517  -1.925  -2.961  0.00  0.00    +0.000 NA
ENDBRANCH  10  11
ENDBRANCH   9  10
ENDBRANCH   8   9
ENDBRANCH   5   8
ENDBRANCH   1   2
BRANCH   1  19
ATOM     17  C   UNL     1       4.988   4.276  -0.653  0.00  0.00    +0.000 C 
ATOM     18  O   UNL     1       5.223   4.109   0.542  0.00  0.00    +0.000 OA
ATOM     19  N   UNL     1       3.774   3.942  -1.189  0.00  0.00    +0.000 N 
ATOM     20  H   UNL     1       3.588   4.096  -2.170  0.00  0.00    +0.000 HD
BRANCH  17  28
ATOM     21  C   UNL     1       5.064   4.887  -4.035  0.00  0.00    +0.000 A 
ATOM     22  N   UNL     1       5.325   5.285  -5.295  0.00  0.00    +0.000 NA
ATOM     23  C   UNL     1       6.497   5.879  -5.532  0.00  0.00    +0.000 A 
ATOM     24  N   UNL     1       7.467   6.124  -4.653  0.00  0.00    +0.000 NA
ATOM     25  C   UNL     1       7.158   5.725  -3.408  0.00  0.00    +0.000 A 
ATOM     26  S   UNL     1       8.280   5.945  -2.153  0.00  0.00    +0.000 S 
ATOM     27  C   UNL     1       7.218   5.260  -1.017  0.00  0.00    +0.000 A 
ATOM     28  C   UNL     1       5.999   4.860  -1.553  0.00  0.00    +0.000 A 
ATOM     29  C   UNL     1       5.978   5.116  -2.991  0.00  0.00    +0.000 A 
BRANCH  21  31
ATOM     30  C   UNL     1       3.303   3.629  -4.927  0.00  0.00    +0.000 C 
ATOM     31  O   UNL     1       3.857   4.273  -3.783  0.00  0.00    +0.000 OA
ENDBRANCH  21  31
ENDBRANCH  17  28
ENDBRANCH   1  19
TORSDOF 8
