REMARK  Name = 
REMARK  5 active torsions:
REMARK  status: ('A' for Active; 'I' for Inactive)
REMARK    1  A    between atoms: C_2  and  C_4
REMARK    2  A    between atoms: C_7  and  N_8
REMARK    3  A    between atoms: N_8  and  C_9
REMARK    4  A    between atoms: C_9  and  C_10
REMARK    5  A    between atoms: C_14  and  C_15
REMARK                            x       y       z     vdW  Elec       q    Type
REMARK                         _______ _______ _______ _____ _____    ______ ____
ROOT
ATOM      1  C   UNL     1       4.857  -2.311  -5.512  0.00  0.00    +0.000 C 
ENDROOT
BRANCH   1   2
ATOM      2  C   UNL     1       5.736  -3.046  -6.489  0.00  0.00    +0.000 A 
ATOM      3  C   UNL     1       5.690  -4.425  -6.619  0.00  0.00    +0.000 A 
ATOM      4  N   UNL     1       6.492  -5.126  -7.448  0.00  0.00    +0.000 NA
ATOM      5  C   UNL     1       7.393  -4.414  -8.174  0.00  0.00    +0.000 A 
ATOM      6  C   UNL     1       7.542  -3.026  -8.144  0.00  0.00    +0.000 A 
ATOM      7  C   UNL     1       6.676  -2.353  -7.269  0.00  0.00    +0.000 A 
BRANCH   6   8
ATOM      8  C   UNL     1       8.545  -2.314  -8.967  0.00  0.00    +0.000 A 
ATOM      9  C   UNL     1       8.908  -2.776 -10.249  0.00  0.00    +0.000 A 
ATOM     10  C   UNL     1       9.864  -2.112 -11.029  0.00  0.00    +0.000 A 
ATOM     11  C   UNL     1      10.472  -0.958 -10.547  0.00  0.00    +0.000 A 
ATOM     12  C   UNL     1      10.122  -0.484  -9.292  0.00  0.00    +0.000 A 
ATOM     13  F   UNL     1      10.701   0.631  -8.825  0.00  0.00    +0.000 F 
ATOM     14  C   UNL     1       9.179  -1.145  -8.507  0.00  0.00    +0.000 A 
ENDBRANCH   6   8
ENDBRANCH   1   2
BRANCH   1  15
ATOM     15  N   UNL     1       4.069  -1.323  -6.240  0.00  0.00    +0.000 N 
ATOM     16  H   UNL     1       3.307  -1.749  -6.757  0.00  0.00    +0.000 HD
BRANCH  15  20
ATOM     17  C   UNL     1       2.871   2.048  -4.226  0.00  0.00    +0.000 A 
ATOM     18  C   UNL     1       3.603   1.065  -3.583  0.00  0.00    +0.000 A 
ATOM     19  N   UNL     1       3.987  -0.083  -4.203  0.00  0.00    +0.000 NA
ATOM     20  C   UNL     1       3.626  -0.225  -5.496  0.00  0.00    +0.000 A 
ATOM     21  C   UNL     1       2.886   0.786  -6.128  0.00  0.00    +0.000 A 
ATOM     22  N   UNL     1       2.479   1.933  -5.524  0.00  0.00    +0.000 NA
BRANCH  17  24
ATOM     23  N   UNL     1       1.749   4.192  -4.200  0.00  0.00    +0.000 N 
ATOM     24  C   UNL     1       2.498   3.289  -3.495  0.00  0.00    +0.000 C 
ATOM     25  O   UNL     1       2.836   3.493  -2.336  0.00  0.00    +0.000 OA
ATOM     26  H   UNL     1       1.466   5.055  -3.760  0.00  0.00    +0.000 HD
ATOM     27  H   UNL     1       1.489   3.996  -5.160  0.00  0.00    +0.000 HD
ENDBRANCH  17  24
ENDBRANCH  15  20
ENDBRANCH   1  15
TORSDOF 5
