REMARK  Name = 
REMARK  11 active torsions:
REMARK  status: ('A' for Active; 'I' for Inactive)
REMARK    1  A    between atoms: N_1  and  C_2
REMARK    2  A    between atoms: C_2  and  C_3
REMARK    3  A    between atoms: C_3  and  N_4
REMARK    4  A    between atoms: C_3  and  C_21
REMARK    5  A    between atoms: N_4  and  C_5
REMARK    6  A    between atoms: C_5  and  C_6
REMARK    7  A    between atoms: C_9  and  C_10
REMARK    8  A    between atoms: C_10  and  O_11
REMARK    9  A    between atoms: C_10  and  C_12
REMARK   10  A    between atoms: C_12  and  N_13
REMARK   11  A    between atoms: N_13  and  C_14
REMARK                            x       y       z     vdW  Elec       q    Type
REMARK                         _______ _______ _______ _____ _____    ______ ____
ROOT
ATOM      1  C   UNL     1      -2.280  -8.207  -4.342  0.00  0.00    +0.000 C 
ENDROOT
BRANCH   1   2
ATOM      2  C   UNL     1      -1.440  -8.244  -3.089  0.00  0.00    +0.000 A 
ATOM      3  C   UNL     1      -1.948  -8.787  -1.900  0.00  0.00    +0.000 A 
ATOM      4  C   UNL     1      -1.173  -8.810  -0.740  0.00  0.00    +0.000 A 
ATOM      5  C   UNL     1       0.133  -8.304  -0.753  0.00  0.00    +0.000 A 
ATOM      6  C   UNL     1       0.636  -7.760  -1.943  0.00  0.00    +0.000 A 
ATOM      7  C   UNL     1      -0.139  -7.729  -3.099  0.00  0.00    +0.000 A 
BRANCH   5   8
ATOM      8  C   UNL     1       0.972  -8.329   0.510  0.00  0.00    +0.000 C 
BRANCH   8   9
ATOM      9  O   UNL     1       2.141  -9.126   0.302  0.00  0.00    +0.000 OA
ATOM     10  H   UNL     1       2.451  -8.973  -0.605  0.00  0.00    +0.000 HD
ENDBRANCH   8   9
BRANCH   8  11
ATOM     11  C   UNL     1       1.405  -6.911   0.965  0.00  0.00    +0.000 C 
BRANCH  11  12
ATOM     12  N   UNL     1       0.333  -5.958   1.285  0.00  0.00    +0.000 NA
ATOM     13  H   UNL     1      -0.242  -5.813   0.452  0.00  0.00    +0.000 HD
BRANCH  12  14
ATOM     14  C   UNL     1      -0.527  -6.390   2.387  0.00  0.00    +0.000 C 
ATOM     15  C   UNL     1       0.192  -6.630   3.709  0.00  0.00    +0.000 C 
ATOM     16  C   UNL     1      -0.926  -6.451   4.715  0.00  0.00    +0.000 C 
ATOM     17  N   UNL     1      -1.666  -5.284   4.225  0.00  0.00    +0.000 NA
ATOM     18  C   UNL     1      -1.603  -5.351   2.751  0.00  0.00    +0.000 C 
ATOM     19  H   UNL     1      -1.147  -4.449   4.506  0.00  0.00    +0.000 HD
ENDBRANCH  12  14
ENDBRANCH  11  12
ENDBRANCH   8  11
ENDBRANCH   5   8
ENDBRANCH   1   2
BRANCH   1  20
ATOM     20  N   UNL     1      -3.466  -7.388  -4.127  0.00  0.00    +0.000 NA
ATOM     21  H   UNL     1      -3.979  -7.769  -3.333  0.00  0.00    +0.000 HD
BRANCH  20  22
ATOM     22  C   UNL     1      -4.388  -7.392  -5.277  0.00  0.00    +0.000 C 
BRANCH  22  23
ATOM     23  C   UNL     1      -5.640  -6.639  -4.849  0.00  0.00    +0.000 A 
ATOM     24  C   UNL     1      -5.672  -5.553  -3.985  0.00  0.00    +0.000 A 
ATOM     25  S   UNL     1      -7.242  -4.932  -3.734  0.00  0.00    +0.000 S 
ATOM     26  C   UNL     1      -7.926  -6.079  -4.788  0.00  0.00    +0.000 A 
ATOM     27  N   UNL     1      -9.261  -6.102  -5.043  0.00  0.00    +0.000 NA
ATOM     28  C   UNL     1      -9.625  -7.018  -5.878  0.00  0.00    +0.000 A 
ATOM     29  N   UNL     1      -8.779  -7.917  -6.480  0.00  0.00    +0.000 N 
ATOM     30  C   UNL     1      -7.424  -7.932  -6.257  0.00  0.00    +0.000 A 
ATOM     31  O   UNL     1      -6.684  -8.737  -6.820  0.00  0.00    +0.000 OA
ATOM     32  C   UNL     1      -6.971  -6.923  -5.319  0.00  0.00    +0.000 A 
ATOM     33  H   UNL     1      -9.131  -8.603  -7.129  0.00  0.00    +0.000 HD
ENDBRANCH  22  23
BRANCH  22  34
ATOM     34  C   UNL     1      -3.785  -6.781  -6.581  0.00  0.00    +0.000 C 
BRANCH  34  35
ATOM     35  N   UNL     1      -3.317  -5.396  -6.437  0.00  0.00    +0.000 NA
ATOM     36  H   UNL     1      -2.821  -5.104  -7.273  0.00  0.00    +0.000 HD
ATOM     37  H   UNL     1      -2.669  -5.353  -5.650  0.00  0.00    +0.000 HD
ENDBRANCH  34  35
ENDBRANCH  22  34
ENDBRANCH  20  22
ENDBRANCH   1  20
TORSDOF 11
