REMARK  Name = 
REMARK  10 active torsions:
REMARK  status: ('A' for Active; 'I' for Inactive)
REMARK    1  A    between atoms: N_1  and  C_2
REMARK    2  A    between atoms: C_2  and  C_3
REMARK    3  A    between atoms: C_3  and  C_4
REMARK    4  A    between atoms: C_4  and  N_5
REMARK    5  A    between atoms: C_4  and  C_27
REMARK    6  A    between atoms: N_5  and  C_6
REMARK    7  A    between atoms: C_6  and  C_7
REMARK    8  A    between atoms: C_10  and  C_11
REMARK    9  A    between atoms: C_11  and  N_12
REMARK   10  A    between atoms: C_13  and  C_15
REMARK                            x       y       z     vdW  Elec       q    Type
REMARK                         _______ _______ _______ _____ _____    ______ ____
ROOT
ATOM      1  C   UNL     1       1.019   2.328   0.457  0.00  0.00    +0.000 A 
ATOM      2  C   UNL     1       0.263   1.337  -0.185  0.00  0.00    +0.000 A 
ATOM      3  C   UNL     1      -1.133   1.398  -0.186  0.00  0.00    +0.000 A 
ATOM      4  C   UNL     1      -1.795   2.456   0.449  0.00  0.00    +0.000 A 
ATOM      5  C   UNL     1      -1.040   3.410   1.144  0.00  0.00    +0.000 A 
ATOM      6  C   UNL     1       0.353   3.349   1.145  0.00  0.00    +0.000 A 
ENDROOT
BRANCH   1   7
ATOM      7  C   UNL     1       2.525   2.247   0.499  0.00  0.00    +0.000 C 
BRANCH   7   8
ATOM      8  N   UNL     1       3.139   2.263  -0.835  0.00  0.00    +0.000 NA
ATOM      9  H   UNL     1       2.873   3.135  -1.296  0.00  0.00    +0.000 HD
BRANCH   8  10
ATOM     10  C   UNL     1       4.627   2.225  -0.765  0.00  0.00    +0.000 C 
BRANCH  10  11
ATOM     11  C   UNL     1       5.253   2.351  -2.157  0.00  0.00    +0.000 A 
ATOM     12  C   UNL     1       5.018   1.389  -3.146  0.00  0.00    +0.000 A 
ATOM     13  C   UNL     1       5.654   1.510  -4.379  0.00  0.00    +0.000 A 
ATOM     14  C   UNL     1       6.488   2.596  -4.614  0.00  0.00    +0.000 A 
ATOM     15  C   UNL     1       6.650   3.522  -3.598  0.00  0.00    +0.000 A 
ATOM     16  N   UNL     1       6.063   3.420  -2.382  0.00  0.00    +0.000 NA
ENDBRANCH  10  11
BRANCH  10  17
ATOM     17  C   UNL     1       5.101   0.948  -0.032  0.00  0.00    +0.000 C 
BRANCH  17  18
ATOM     18  C   UNL     1       6.608   0.812   0.152  0.00  0.00    +0.000 C 
BRANCH  18  19
ATOM     19  N   UNL     1       6.851  -0.375   0.975  0.00  0.00    +0.000 NA
ATOM     20  H   UNL     1       7.851  -0.540   1.062  0.00  0.00    +0.000 HD
ATOM     21  H   UNL     1       6.457  -1.197   0.517  0.00  0.00    +0.000 HD
ENDBRANCH  18  19
ENDBRANCH  17  18
ENDBRANCH  10  17
ENDBRANCH   8  10
ENDBRANCH   7   8
ENDBRANCH   1   7
BRANCH   4  22
ATOM     22  C   UNL     1      -3.295   2.564   0.422  0.00  0.00    +0.000 C 
BRANCH  22  23
ATOM     23  N   UNL     1      -3.884   1.906   1.557  0.00  0.00    +0.000 N 
ATOM     24  C   UNL     1      -5.245   1.835   1.704  0.00  0.00    +0.000 C 
ATOM     25  O   UNL     1      -6.015   2.287   0.861  0.00  0.00    +0.000 OA
ATOM     26  H   UNL     1      -3.282   1.744   2.358  0.00  0.00    +0.000 HD
BRANCH  24  27
ATOM     27  C   UNL     1      -5.735   1.129   2.893  0.00  0.00    +0.000 A 
ATOM     28  C   UNL     1      -7.019   0.599   2.893  0.00  0.00    +0.000 A 
ATOM     29  S   UNL     1      -7.404  -0.251   4.321  0.00  0.00    +0.000 S 
ATOM     30  C   UNL     1      -5.888   0.105   5.009  0.00  0.00    +0.000 A 
ATOM     31  N   UNL     1      -5.568  -0.327   6.257  0.00  0.00    +0.000 NA
ATOM     32  C   UNL     1      -4.400   0.038   6.665  0.00  0.00    +0.000 A 
ATOM     33  N   UNL     1      -3.517   0.798   5.937  0.00  0.00    +0.000 N 
ATOM     34  C   UNL     1      -3.791   1.241   4.664  0.00  0.00    +0.000 A 
ATOM     35  O   UNL     1      -2.970   1.900   4.034  0.00  0.00    +0.000 OA
ATOM     36  C   UNL     1      -5.094   0.855   4.157  0.00  0.00    +0.000 A 
ATOM     37  H   UNL     1      -2.620   1.050   6.315  0.00  0.00    +0.000 HD
ENDBRANCH  24  27
ENDBRANCH  22  23
ENDBRANCH   4  22
TORSDOF 10
