REMARK  Name = 
REMARK  4 active torsions:
REMARK  status: ('A' for Active; 'I' for Inactive)
REMARK    1  A    between atoms: C_2  and  C_4
REMARK    2  A    between atoms: C_7  and  N_8
REMARK    3  A    between atoms: N_8  and  C_9
REMARK    4  A    between atoms: C_9  and  C_10
REMARK                            x       y       z     vdW  Elec       q    Type
REMARK                         _______ _______ _______ _____ _____    ______ ____
ROOT
ATOM      1  C   UNL     1       7.649  -2.176   1.260  0.00  0.00    +0.000 A 
ATOM      2  C   UNL     1       7.704  -2.877   2.452  0.00  0.00    +0.000 A 
ATOM      3  N   UNL     1       6.909  -2.577   3.514  0.00  0.00    +0.000 NA
ATOM      4  C   UNL     1       6.034  -1.558   3.358  0.00  0.00    +0.000 A 
ATOM      5  C   UNL     1       6.025  -0.839   2.152  0.00  0.00    +0.000 A 
ATOM      6  N   UNL     1       6.805  -1.125   1.074  0.00  0.00    +0.000 NA
ENDROOT
BRANCH   1   8
ATOM      7  N   UNL     1       8.429  -1.799  -1.002  0.00  0.00    +0.000 N 
ATOM      8  C   UNL     1       8.532  -2.568   0.126  0.00  0.00    +0.000 C 
ATOM      9  O   UNL     1       9.304  -3.518   0.189  0.00  0.00    +0.000 OA
ATOM     10  H   UNL     1       9.001  -2.012  -1.807  0.00  0.00    +0.000 HD
ATOM     11  H   UNL     1       7.783  -1.016  -1.025  0.00  0.00    +0.000 HD
ENDBRANCH   1   8
BRANCH   4  12
ATOM     12  N   UNL     1       5.169  -1.170   4.407  0.00  0.00    +0.000 N 
ATOM     13  H   UNL     1       4.331  -0.723   4.053  0.00  0.00    +0.000 HD
BRANCH  12  14
ATOM     14  C   UNL     1       4.914  -2.081   5.553  0.00  0.00    +0.000 C 
ATOM     15  C   UNL     1       4.787  -3.587   5.368  0.00  0.00    +0.000 C 
ATOM     16  C   UNL     1       3.553  -2.783   5.582  0.00  0.00    +0.000 C 
BRANCH  14  17
ATOM     17  C   UNL     1       5.385  -1.544   6.904  0.00  0.00    +0.000 A 
ATOM     18  C   UNL     1       4.648  -0.566   7.599  0.00  0.00    +0.000 A 
ATOM     19  C   UNL     1       4.989  -0.177   8.897  0.00  0.00    +0.000 A 
ATOM     20  C   UNL     1       6.089  -0.752   9.526  0.00  0.00    +0.000 A 
ATOM     21  C   UNL     1       6.867  -1.683   8.843  0.00  0.00    +0.000 A 
ATOM     22  C   UNL     1       6.524  -2.061   7.542  0.00  0.00    +0.000 A 
ENDBRANCH  14  17
ENDBRANCH  12  14
ENDBRANCH   4  12
TORSDOF 4
