REMARK  Name = 
REMARK  8 active torsions:
REMARK  status: ('A' for Active; 'I' for Inactive)
REMARK    1  A    between atoms: C_1  and  O_2
REMARK    2  A    between atoms: O_2  and  C_3
REMARK    3  A    between atoms: N_10  and  C_11
REMARK    4  A    between atoms: C_11  and  C_12
REMARK    5  A    between atoms: C_16  and  C_17
REMARK    6  A    between atoms: C_17  and  N_18
REMARK    7  A    between atoms: N_18  and  C_19
REMARK    8  A    between atoms: N_18  and  C_20
REMARK                            x       y       z     vdW  Elec       q    Type
REMARK                         _______ _______ _______ _____ _____    ______ ____
ROOT
ATOM      1  C   UNL     1       7.532   0.055   1.242  0.00  0.00    +0.000 A 
ATOM      2  C   UNL     1       7.653  -0.940   2.210  0.00  0.00    +0.000 A 
ATOM      3  N   UNL     1       6.960  -1.014   3.378  0.00  0.00    +0.000 NA
ATOM      4  C   UNL     1       6.096   0.010   3.544  0.00  0.00    +0.000 A 
ATOM      5  C   UNL     1       5.881   1.068   2.663  0.00  0.00    +0.000 A 
ATOM      6  C   UNL     1       4.900   1.909   3.249  0.00  0.00    +0.000 A 
ATOM      7  C   UNL     1       4.556   1.363   4.468  0.00  0.00    +0.000 A 
ATOM      8  N   UNL     1       5.287   0.211   4.638  0.00  0.00    +0.000 N 
ATOM      9  C   UNL     1       6.632   1.094   1.476  0.00  0.00    +0.000 A 
ENDROOT
BRANCH   1  11
ATOM     10  C   UNL     1       8.728  -1.084  -0.448  0.00  0.00    +0.000 C 
ATOM     11  O   UNL     1       8.249   0.147   0.082  0.00  0.00    +0.000 OA
ENDBRANCH   1  11
BRANCH   8  12
ATOM     12  C   UNL     1       5.315  -0.581   5.858  0.00  0.00    +0.000 C 
BRANCH  12  13
ATOM     13  C   UNL     1       4.257  -1.654   5.879  0.00  0.00    +0.000 A 
ATOM     14  C   UNL     1       2.975  -1.414   6.382  0.00  0.00    +0.000 A 
ATOM     15  C   UNL     1       2.061  -2.457   6.390  0.00  0.00    +0.000 A 
ATOM     16  N   UNL     1       2.337  -3.704   5.955  0.00  0.00    +0.000 NA
ATOM     17  C   UNL     1       3.583  -3.933   5.465  0.00  0.00    +0.000 A 
ATOM     18  C   UNL     1       4.552  -2.932   5.401  0.00  0.00    +0.000 A 
BRANCH  17  19
ATOM     19  C   UNL     1       3.905  -5.337   4.983  0.00  0.00    +0.000 C 
BRANCH  19  20
ATOM     20  N   UNL     1       5.033  -5.994   5.687  0.00  0.00    +0.000 NA
ATOM     21  C   UNL     1       4.735  -6.199   7.107  0.00  0.00    +0.000 C 
ATOM     22  C   UNL     1       5.314  -7.289   5.059  0.00  0.00    +0.000 C 
ENDBRANCH  19  20
ENDBRANCH  17  19
ENDBRANCH  12  13
ENDBRANCH   8  12
TORSDOF 5
