REMARK  Name = 
REMARK  7 active torsions:
REMARK  status: ('A' for Active; 'I' for Inactive)
REMARK    1  A    between atoms: C_1  and  C_2
REMARK    2  A    between atoms: C_2  and  C_3
REMARK    3  A    between atoms: C_2  and  N_4
REMARK    4  A    between atoms: C_2  and  C_5
REMARK    5  A    between atoms: C_8  and  N_9
REMARK    6  A    between atoms: N_9  and  C_10
REMARK    7  A    between atoms: C_10  and  C_11
REMARK                            x       y       z     vdW  Elec       q    Type
REMARK                         _______ _______ _______ _____ _____    ______ ____
ROOT
ATOM      1  C   UNL     1       3.042   0.371   1.478  0.00  0.00    +0.000 A 
ATOM      2  C   UNL     1       3.415  -0.607   2.400  0.00  0.00    +0.000 A 
ATOM      3  N   UNL     1       3.830  -0.337   3.669  0.00  0.00    +0.000 NA
ATOM      4  C   UNL     1       3.881   0.963   4.024  0.00  0.00    +0.000 A 
ATOM      5  C   UNL     1       3.540   1.941   3.084  0.00  0.00    +0.000 A 
ATOM      6  N   UNL     1       3.103   1.679   1.827  0.00  0.00    +0.000 NA
ENDROOT
BRANCH   1   8
ATOM      7  C   UNL     1       3.693  -0.637  -0.739  0.00  0.00    +0.000 C 
ATOM      8  C   UNL     1       2.554   0.005   0.072  0.00  0.00    +0.000 C 
ATOM      9  C   UNL     1       2.051   1.247  -0.694  0.00  0.00    +0.000 C 
BRANCH   8  10
ATOM     10  N   UNL     1       1.432  -0.958   0.136  0.00  0.00    +0.000 NA
ATOM     11  H   UNL     1       1.080  -1.123  -0.807  0.00  0.00    +0.000 HD
ATOM     12  H   UNL     1       0.660  -0.516   0.638  0.00  0.00    +0.000 HD
ENDBRANCH   8  10
ENDBRANCH   1   8
BRANCH   4  13
ATOM     13  N   UNL     1       4.363   1.356   5.283  0.00  0.00    +0.000 N 
ATOM     14  H   UNL     1       3.859   2.175   5.611  0.00  0.00    +0.000 HD
BRANCH  13  15
ATOM     15  C   UNL     1       4.358   0.306   6.293  0.00  0.00    +0.000 C 
BRANCH  15  16
ATOM     16  C   UNL     1       4.940   0.853   7.573  0.00  0.00    +0.000 A 
ATOM     17  C   UNL     1       4.176   1.024   8.733  0.00  0.00    +0.000 A 
ATOM     18  C   UNL     1       4.773   1.520   9.886  0.00  0.00    +0.000 A 
ATOM     19  C   UNL     1       6.122   1.837   9.849  0.00  0.00    +0.000 A 
ATOM     20  N   UNL     1       6.891   1.694   8.749  0.00  0.00    +0.000 NA
ATOM     21  C   UNL     1       6.284   1.208   7.640  0.00  0.00    +0.000 A 
ENDBRANCH  15  16
ENDBRANCH  13  15
ENDBRANCH   4  13
TORSDOF 5
