REMARK  Name = 
REMARK  7 active torsions:
REMARK  status: ('A' for Active; 'I' for Inactive)
REMARK    1  A    between atoms: C_1  and  C_2
REMARK    2  A    between atoms: C_4  and  C_5
REMARK    3  A    between atoms: C_10  and  N_11
REMARK    4  A    between atoms: N_11  and  C_12
REMARK    5  A    between atoms: C_12  and  C_13
REMARK    6  A    between atoms: C_18  and  C_19
REMARK    7  A    between atoms: C_23  and  C_24
REMARK                            x       y       z     vdW  Elec       q    Type
REMARK                         _______ _______ _______ _____ _____    ______ ____
ROOT
ATOM      1  C   UNL     1       2.686  -4.084   0.092  0.00  0.00    +0.000 A 
ATOM      2  C   UNL     1       1.764  -5.135   0.063  0.00  0.00    +0.000 A 
ATOM      3  C   UNL     1       2.219  -6.450   0.050  0.00  0.00    +0.000 A 
ATOM      4 CL   UNL     1       1.086  -7.744  -0.036  0.00  0.00    +0.000 Cl
ATOM      5  C   UNL     1       3.586  -6.731   0.063  0.00  0.00    +0.000 A 
ATOM      6  C   UNL     1       4.540  -5.700   0.118  0.00  0.00    +0.000 A 
ATOM      7  C   UNL     1       4.059  -4.378   0.157  0.00  0.00    +0.000 A 
ENDROOT
BRANCH   6   8
ATOM      8  C   UNL     1       5.991  -5.994   0.073  0.00  0.00    +0.000 A 
ATOM      9  C   UNL     1       6.529  -7.127   0.710  0.00  0.00    +0.000 A 
ATOM     10  C   UNL     1       7.890  -7.432   0.629  0.00  0.00    +0.000 A 
ATOM     11  C   UNL     1       8.747  -6.610  -0.098  0.00  0.00    +0.000 A 
ATOM     12  C   UNL     1       8.244  -5.482  -0.749  0.00  0.00    +0.000 A 
ATOM     13  C   UNL     1       6.880  -5.169  -0.644  0.00  0.00    +0.000 A 
BRANCH  12  14
ATOM     14  C   UNL     1       9.183  -4.650  -1.547  0.00  0.00    +0.000 C 
ATOM     15  N   UNL     1       8.654  -3.888  -2.552  0.00  0.00    +0.000 N 
ATOM     16  O   UNL     1      10.392  -4.676  -1.351  0.00  0.00    +0.000 OA
ATOM     17  H   UNL     1       7.720  -4.024  -2.907  0.00  0.00    +0.000 HD
ATOM     18  H   UNL     1       9.324  -3.439  -3.165  0.00  0.00    +0.000 HD
ENDBRANCH  12  14
ENDBRANCH   6   8
BRANCH   1  19
ATOM     19  C   UNL     1       2.230  -2.653  -0.048  0.00  0.00    +0.000 C 
BRANCH  19  20
ATOM     20  N   UNL     1       2.087  -1.993   1.217  0.00  0.00    +0.000 N 
ATOM     21  H   UNL     1       2.163  -2.535   2.070  0.00  0.00    +0.000 HD
BRANCH  20  28
ATOM     22  C   UNL     1       1.593   0.097  -1.012  0.00  0.00    +0.000 C 
ATOM     23  C   UNL     1       1.492   0.294   0.473  0.00  0.00    +0.000 A 
ATOM     24  C   UNL     1       1.145   1.588   0.908  0.00  0.00    +0.000 A 
ATOM     25  C   UNL     1       1.028   1.888   2.261  0.00  0.00    +0.000 A 
ATOM     26  C   UNL     1       1.267   0.853   3.139  0.00  0.00    +0.000 A 
ATOM     27  N   UNL     1       1.604  -0.409   2.758  0.00  0.00    +0.000 NA
ATOM     28  C   UNL     1       1.721  -0.695   1.439  0.00  0.00    +0.000 A 
BRANCH  25  29
ATOM     29  C   UNL     1       0.663   3.272   2.651  0.00  0.00    +0.000 C 
ATOM     30  N   UNL     1       0.547   3.586   3.978  0.00  0.00    +0.000 N 
ATOM     31  O   UNL     1       0.461   4.136   1.807  0.00  0.00    +0.000 OA
ATOM     32  H   UNL     1       0.689   2.957   4.751  0.00  0.00    +0.000 HD
ATOM     33  H   UNL     1       0.294   4.540   4.190  0.00  0.00    +0.000 HD
ENDBRANCH  25  29
ENDBRANCH  20  28
ENDBRANCH  19  20
ENDBRANCH   1  19
TORSDOF 6
