REMARK  Name = 
REMARK  8 active torsions:
REMARK  status: ('A' for Active; 'I' for Inactive)
REMARK    1  A    between atoms: C_1  and  C_2
REMARK    2  A    between atoms: C_2  and  O_3
REMARK    3  A    between atoms: C_5  and  O_6
REMARK    4  A    between atoms: O_6  and  C_7
REMARK    5  A    between atoms: C_11  and  C_12
REMARK    6  A    between atoms: C_12  and  C_13
REMARK    7  A    between atoms: C_13  and  N_14
REMARK    8  A    between atoms: C_18  and  C_19
REMARK                            x       y       z     vdW  Elec       q    Type
REMARK                         _______ _______ _______ _____ _____    ______ ____
ROOT
ATOM      1  C   UNL     1       8.327  -1.882   5.499  0.00  0.00    +0.000 C 
ENDROOT
BRANCH   1   6
ATOM      2  C   UNL     1       5.653  -1.144   2.825  0.00  0.00    +0.000 A 
ATOM      3  C   UNL     1       5.793  -2.256   1.999  0.00  0.00    +0.000 A 
ATOM      4  C   UNL     1       6.701  -3.260   2.341  0.00  0.00    +0.000 A 
ATOM      5  C   UNL     1       7.491  -3.138   3.485  0.00  0.00    +0.000 A 
ATOM      6  C   UNL     1       7.398  -2.002   4.302  0.00  0.00    +0.000 A 
ATOM      7  C   UNL     1       6.457  -1.016   3.959  0.00  0.00    +0.000 A 
BRANCH   2   8
ATOM      8  O   UNL     1       4.764  -0.120   2.607  0.00  0.00    +0.000 OA
BRANCH   8  12
ATOM      9  C   UNL     1       0.243  -0.502   2.857  0.00  0.00    +0.000 C 
ATOM     10  C   UNL     1       1.437  -0.597   1.923  0.00  0.00    +0.000 C 
ATOM     11  C   UNL     1       2.603  -1.462   2.456  0.00  0.00    +0.000 C 
ATOM     12  C   UNL     1       3.576  -0.420   1.845  0.00  0.00    +0.000 C 
ATOM     13  C   UNL     1       2.420   0.605   1.967  0.00  0.00    +0.000 C 
BRANCH  10  14
ATOM     14  O   UNL     1       0.980  -0.948   0.597  0.00  0.00    +0.000 OA
ATOM     15  H   UNL     1       0.567  -1.824   0.689  0.00  0.00    +0.000 HD
ENDBRANCH  10  14
ENDBRANCH   8  12
ENDBRANCH   2   8
ENDBRANCH   1   6
BRANCH   1  16
ATOM     16  C   UNL     1       8.165  -0.582   6.291  0.00  0.00    +0.000 C 
BRANCH  16  17
ATOM     17  N   UNL     1       9.115  -0.467   7.404  0.00  0.00    +0.000 N 
ATOM     18  C   UNL     1       8.940   0.755   8.088  0.00  0.00    +0.000 A 
ATOM     19  C   UNL     1       9.774   1.056   9.161  0.00  0.00    +0.000 A 
ATOM     20  C   UNL     1       9.597   2.262   9.848  0.00  0.00    +0.000 A 
ATOM     21  C   UNL     1       8.591   3.147   9.456  0.00  0.00    +0.000 A 
ATOM     22  C   UNL     1       7.801   2.763   8.391  0.00  0.00    +0.000 A 
ATOM     23  N   UNL     1       7.954   1.600   7.717  0.00  0.00    +0.000 NA
ATOM     24  H   UNL     1      10.081  -0.522   7.090  0.00  0.00    +0.000 HD
BRANCH  21  25
ATOM     25  C   UNL     1       8.414   4.428  10.182  0.00  0.00    +0.000 C 
ATOM     26  N   UNL     1       7.440   5.298   9.769  0.00  0.00    +0.000 N 
ATOM     27  O   UNL     1       9.126   4.718  11.135  0.00  0.00    +0.000 OA
ATOM     28  H   UNL     1       6.814   5.169   8.990  0.00  0.00    +0.000 HD
ATOM     29  H   UNL     1       7.361   6.164  10.287  0.00  0.00    +0.000 HD
ENDBRANCH  21  25
ENDBRANCH  16  17
ENDBRANCH   1  16
TORSDOF 7
