REMARK  Name = 
REMARK  5 active torsions:
REMARK  status: ('A' for Active; 'I' for Inactive)
REMARK    1  A    between atoms: C_2  and  C_4
REMARK    2  A    between atoms: C_7  and  N_8
REMARK    3  A    between atoms: N_8  and  C_9
REMARK    4  A    between atoms: C_9  and  C_10
REMARK    5  A    between atoms: C_14  and  C_15
REMARK                            x       y       z     vdW  Elec       q    Type
REMARK                         _______ _______ _______ _____ _____    ______ ____
ROOT
ATOM      1  C   UNL     1       5.212   5.612  -1.801  0.00  0.00    +0.000 C 
ENDROOT
BRANCH   1   2
ATOM      2  C   UNL     1       6.182   6.560  -2.463  0.00  0.00    +0.000 A 
ATOM      3  C   UNL     1       7.341   6.093  -3.066  0.00  0.00    +0.000 A 
ATOM      4  N   UNL     1       8.257   6.889  -3.655  0.00  0.00    +0.000 NA
ATOM      5  C   UNL     1       8.006   8.223  -3.643  0.00  0.00    +0.000 A 
ATOM      6  C   UNL     1       6.881   8.829  -3.078  0.00  0.00    +0.000 A 
ATOM      7  C   UNL     1       5.967   7.948  -2.474  0.00  0.00    +0.000 A 
BRANCH   6   8
ATOM      8  C   UNL     1       6.670  10.296  -3.111  0.00  0.00    +0.000 A 
ATOM      9  C   UNL     1       7.123  11.086  -4.190  0.00  0.00    +0.000 A 
ATOM     10  C   UNL     1       6.925  12.473  -4.222  0.00  0.00    +0.000 A 
ATOM     11  C   UNL     1       6.259  13.100  -3.176  0.00  0.00    +0.000 A 
ATOM     12 CL   UNL     1       6.004  14.800  -3.216  0.00  0.00    +0.000 Cl
ATOM     13  C   UNL     1       5.795  12.354  -2.099  0.00  0.00    +0.000 A 
ATOM     14  C   UNL     1       6.006  10.969  -2.067  0.00  0.00    +0.000 A 
ENDBRANCH   6   8
ENDBRANCH   1   2
BRANCH   1  15
ATOM     15  N   UNL     1       5.567   5.472  -0.394  0.00  0.00    +0.000 N 
ATOM     16  H   UNL     1       6.531   5.176  -0.268  0.00  0.00    +0.000 HD
BRANCH  15  20
ATOM     17  C   UNL     1       3.078   3.236   2.003  0.00  0.00    +0.000 A 
ATOM     18  C   UNL     1       2.815   3.374   0.650  0.00  0.00    +0.000 A 
ATOM     19  N   UNL     1       3.621   4.088  -0.187  0.00  0.00    +0.000 NA
ATOM     20  C   UNL     1       4.713   4.659   0.366  0.00  0.00    +0.000 A 
ATOM     21  C   UNL     1       4.962   4.498   1.739  0.00  0.00    +0.000 A 
ATOM     22  N   UNL     1       4.171   3.794   2.590  0.00  0.00    +0.000 NA
BRANCH  17  24
ATOM     23  N   UNL     1       2.440   2.481   4.214  0.00  0.00    +0.000 N 
ATOM     24  C   UNL     1       2.133   2.488   2.879  0.00  0.00    +0.000 C 
ATOM     25  O   UNL     1       1.138   1.926   2.441  0.00  0.00    +0.000 OA
ATOM     26  H   UNL     1       1.820   2.023   4.867  0.00  0.00    +0.000 HD
ATOM     27  H   UNL     1       3.255   2.982   4.549  0.00  0.00    +0.000 HD
ENDBRANCH  17  24
ENDBRANCH  15  20
ENDBRANCH   1  15
TORSDOF 5
