REMARK  Name = 
REMARK  12 active torsions:
REMARK  status: ('A' for Active; 'I' for Inactive)
REMARK    1  A    between atoms: C_1  and  C_2
REMARK    2  A    between atoms: C_2  and  C_3
REMARK    3  A    between atoms: C_2  and  C_4
REMARK    4  A    between atoms: C_2  and  O_5
REMARK    5  A    between atoms: O_5  and  C_6
REMARK    6  A    between atoms: C_6  and  C_7
REMARK    7  A    between atoms: C_7  and  N_8
REMARK    8  A    between atoms: N_8  and  C_9
REMARK    9  A    between atoms: C_9  and  C_10
REMARK   10  A    between atoms: C_13  and  C_14
REMARK   11  A    between atoms: C_14  and  N_15
REMARK   12  A    between atoms: C_20  and  C_21
REMARK                            x       y       z     vdW  Elec       q    Type
REMARK                         _______ _______ _______ _____ _____    ______ ____
ROOT
ATOM      1  C   UNL     1       8.412  -1.221  -3.912  0.00  0.00    +0.000 A 
ATOM      2  C   UNL     1       9.085   0.005  -3.896  0.00  0.00    +0.000 A 
ATOM      3  C   UNL     1      10.476   0.040  -3.872  0.00  0.00    +0.000 A 
ATOM      4  C   UNL     1      11.177  -1.161  -3.835  0.00  0.00    +0.000 A 
ATOM      5  N   UNL     1      10.548  -2.363  -3.865  0.00  0.00    +0.000 NA
ATOM      6  C   UNL     1       9.195  -2.369  -3.917  0.00  0.00    +0.000 A 
ENDROOT
BRANCH   1   7
ATOM      7  C   UNL     1       6.912  -1.301  -3.884  0.00  0.00    +0.000 C 
BRANCH   7   8
ATOM      8  N   UNL     1       6.328  -0.642  -5.043  0.00  0.00    +0.000 NA
ATOM      9  H   UNL     1       6.657   0.317  -5.118  0.00  0.00    +0.000 HD
BRANCH   8  10
ATOM     10  C   UNL     1       4.864  -0.664  -5.005  0.00  0.00    +0.000 C 
BRANCH  10  11
ATOM     11  C   UNL     1       4.263   0.167  -6.148  0.00  0.00    +0.000 C 
BRANCH  11  12
ATOM     12  O   UNL     1       4.623  -0.382  -7.417  0.00  0.00    +0.000 OA
BRANCH  12  14
ATOM     13  C   UNL     1       4.723   1.756  -8.626  0.00  0.00    +0.000 C 
ATOM     14  C   UNL     1       4.163   0.328  -8.577  0.00  0.00    +0.000 C 
ATOM     15  C   UNL     1       2.632   0.327  -8.643  0.00  0.00    +0.000 C 
ATOM     16  C   UNL     1       4.705  -0.441  -9.793  0.00  0.00    +0.000 C 
ENDBRANCH  12  14
ENDBRANCH  11  12
ENDBRANCH  10  11
ENDBRANCH   8  10
ENDBRANCH   7   8
ENDBRANCH   1   7
BRANCH   4  17
ATOM     17  C   UNL     1      12.662  -1.175  -3.600  0.00  0.00    +0.000 C 
BRANCH  17  18
ATOM     18  N   UNL     1      13.466  -0.720  -4.732  0.00  0.00    +0.000 N 
ATOM     19  C   UNL     1      14.239   0.420  -4.721  0.00  0.00    +0.000 A 
ATOM     20  C   UNL     1      15.170   0.311  -5.733  0.00  0.00    +0.000 A 
ATOM     21  C   UNL     1      14.933  -0.913  -6.401  0.00  0.00    +0.000 A 
ATOM     22  N   UNL     1      15.632  -1.474  -7.419  0.00  0.00    +0.000 NA
ATOM     23  C   UNL     1      15.138  -2.676  -7.834  0.00  0.00    +0.000 A 
ATOM     24  C   UNL     1      14.002  -3.305  -7.335  0.00  0.00    +0.000 A 
ATOM     25  C   UNL     1      13.304  -2.715  -6.288  0.00  0.00    +0.000 A 
ATOM     26  C   UNL     1      13.819  -1.508  -5.809  0.00  0.00    +0.000 A 
BRANCH  23  27
ATOM     27  C   UNL     1      15.933  -3.379  -8.894  0.00  0.00    +0.000 C 
ATOM     28  N   UNL     1      17.067  -2.736  -9.311  0.00  0.00    +0.000 N 
ATOM     29  O   UNL     1      15.613  -4.469  -9.353  0.00  0.00    +0.000 OA
ATOM     30  H   UNL     1      17.326  -1.852  -8.887  0.00  0.00    +0.000 HD
ATOM     31  H   UNL     1      17.665  -3.178  -9.993  0.00  0.00    +0.000 HD
ENDBRANCH  23  27
ENDBRANCH  17  18
ENDBRANCH   4  17
TORSDOF 9
