REMARK  Name = 
REMARK  7 active torsions:
REMARK  status: ('A' for Active; 'I' for Inactive)
REMARK    1  A    between atoms: C_2  and  C_19
REMARK    2  A    between atoms: N_3  and  C_4
REMARK    3  A    between atoms: C_4  and  C_5
REMARK    4  A    between atoms: C_8  and  C_9
REMARK    5  A    between atoms: C_9  and  O_10
REMARK    6  A    between atoms: C_9  and  C_11
REMARK    7  A    between atoms: C_11  and  C_12
REMARK                            x       y       z     vdW  Elec       q    Type
REMARK                         _______ _______ _______ _____ _____    ______ ____
ROOT
ATOM      1  C   UNL     1       2.216   1.735   1.597  0.00  0.00    +0.000 C 
ENDROOT
BRANCH   1   2
ATOM      2  C   UNL     1       3.122   2.635   2.394  0.00  0.00    +0.000 A 
ATOM      3  C   UNL     1       2.999   4.026   2.298  0.00  0.00    +0.000 A 
ATOM      4  C   UNL     1       3.800   4.864   3.076  0.00  0.00    +0.000 A 
ATOM      5  C   UNL     1       4.755   4.332   3.957  0.00  0.00    +0.000 A 
ATOM      6  C   UNL     1       4.913   2.940   4.009  0.00  0.00    +0.000 A 
ATOM      7  C   UNL     1       4.105   2.101   3.236  0.00  0.00    +0.000 A 
BRANCH   5   8
ATOM      8  C   UNL     1       5.574   5.267   4.828  0.00  0.00    +0.000 C 
BRANCH   8   9
ATOM      9  O   UNL     1       5.376   4.981   6.213  0.00  0.00    +0.000 OA
ATOM     10  H   UNL     1       5.075   4.063   6.295  0.00  0.00    +0.000 HD
ENDBRANCH   8   9
BRANCH   8  11
ATOM     11  C   UNL     1       7.076   5.206   4.519  0.00  0.00    +0.000 C 
BRANCH  11  12
ATOM     12  C   UNL     1       7.933   6.141   5.402  0.00  0.00    +0.000 C 
ATOM     13  C   UNL     1       7.619   7.623   5.220  0.00  0.00    +0.000 C 
ATOM     14  C   UNL     1       8.513   8.020   4.067  0.00  0.00    +0.000 C 
ATOM     15  N   UNL     1       9.771   7.322   4.345  0.00  0.00    +0.000 NA
ATOM     16  C   UNL     1       9.413   6.055   5.007  0.00  0.00    +0.000 C 
ATOM     17  H   UNL     1      10.304   7.884   5.010  0.00  0.00    +0.000 HD
ENDBRANCH  11  12
ENDBRANCH   8  11
ENDBRANCH   5   8
ENDBRANCH   1   2
BRANCH   1  20
ATOM     18  O   UNL     1       1.479   3.067  -0.759  0.00  0.00    +0.000 OA
ATOM     19  C   UNL     1       2.347   2.199  -0.818  0.00  0.00    +0.000 C 
ATOM     20  N   UNL     1       2.742   1.482   0.281  0.00  0.00    +0.000 N 
ATOM     21  H   UNL     1       3.571   0.901   0.228  0.00  0.00    +0.000 HD
BRANCH  19  22
ATOM     22  C   UNL     1       2.975   1.840  -2.094  0.00  0.00    +0.000 A 
ATOM     23  C   UNL     1       2.328   2.144  -3.284  0.00  0.00    +0.000 A 
ATOM     24  S   UNL     1       3.188   1.662  -4.675  0.00  0.00    +0.000 S 
ATOM     25  C   UNL     1       4.477   1.070  -3.737  0.00  0.00    +0.000 A 
ATOM     26  N   UNL     1       5.587   0.549  -4.326  0.00  0.00    +0.000 NA
ATOM     27  C   UNL     1       6.506   0.178  -3.499  0.00  0.00    +0.000 A 
ATOM     28  N   UNL     1       6.409   0.261  -2.134  0.00  0.00    +0.000 N 
ATOM     29  C   UNL     1       5.274   0.701  -1.493  0.00  0.00    +0.000 A 
ATOM     30  O   UNL     1       5.163   0.627  -0.273  0.00  0.00    +0.000 OA
ATOM     31  C   UNL     1       4.236   1.196  -2.379  0.00  0.00    +0.000 A 
ATOM     32  H   UNL     1       7.152  -0.083  -1.544  0.00  0.00    +0.000 HD
ENDBRANCH  19  22
ENDBRANCH   1  20
TORSDOF 7
