REMARK  Name = 
REMARK  9 active torsions:
REMARK  status: ('A' for Active; 'I' for Inactive)
REMARK    1  A    between atoms: C_2  and  C_3
REMARK    2  A    between atoms: C_3  and  N_4
REMARK    3  A    between atoms: C_3  and  C_20
REMARK    4  A    between atoms: N_4  and  C_5
REMARK    5  A    between atoms: C_5  and  C_6
REMARK    6  A    between atoms: C_9  and  C_10
REMARK    7  A    between atoms: C_10  and  N_11
REMARK    8  A    between atoms: N_11  and  C_12
REMARK    9  A    between atoms: C_12  and  C_13
REMARK                            x       y       z     vdW  Elec       q    Type
REMARK                         _______ _______ _______ _____ _____    ______ ____
ROOT
ATOM      1  C   UNL     1       3.878  -0.118   2.367  0.00  0.00    +0.000 C 
ENDROOT
BRANCH   1   2
ATOM      2  C   UNL     1       4.305  -0.920   3.572  0.00  0.00    +0.000 A 
ATOM      3  C   UNL     1       4.897  -0.295   4.665  0.00  0.00    +0.000 A 
ATOM      4  C   UNL     1       5.232  -1.061   5.773  0.00  0.00    +0.000 A 
ATOM      5  C   UNL     1       4.954  -2.431   5.779  0.00  0.00    +0.000 A 
ATOM      6  C   UNL     1       4.369  -2.969   4.641  0.00  0.00    +0.000 A 
ATOM      7  N   UNL     1       4.038  -2.249   3.549  0.00  0.00    +0.000 NA
BRANCH   5   8
ATOM      8  C   UNL     1       5.281  -3.298   6.960  0.00  0.00    +0.000 C 
BRANCH   8   9
ATOM      9  N   UNL     1       4.579  -2.846   8.157  0.00  0.00    +0.000 NA
ATOM     10  H   UNL     1       3.571  -2.886   7.998  0.00  0.00    +0.000 HD
BRANCH   9  11
ATOM     11  C   UNL     1       4.879  -3.724   9.289  0.00  0.00    +0.000 C 
BRANCH  11  12
ATOM     12  C   UNL     1       4.138  -3.224  10.483  0.00  0.00    +0.000 A 
ATOM     13  C   UNL     1       4.535  -2.290  11.419  0.00  0.00    +0.000 A 
ATOM     14  N   UNL     1       3.494  -2.194  12.299  0.00  0.00    +0.000 N 
ATOM     15  C   UNL     1       2.518  -3.051  11.878  0.00  0.00    +0.000 A 
ATOM     16  N   UNL     1       2.873  -3.686  10.784  0.00  0.00    +0.000 NA
ATOM     17  H   UNL     1       3.447  -1.596  13.112  0.00  0.00    +0.000 HD
ENDBRANCH  11  12
ENDBRANCH   9  11
ENDBRANCH   8   9
ENDBRANCH   5   8
ENDBRANCH   1   2
BRANCH   1  18
ATOM     18  N   UNL     1       4.993   0.601   1.727  0.00  0.00    +0.000 NA
ATOM     19  H   UNL     1       5.399   1.254   2.390  0.00  0.00    +0.000 HD
BRANCH  18  20
ATOM     20  C   UNL     1       4.511   1.356   0.557  0.00  0.00    +0.000 C 
BRANCH  20  21
ATOM     21  C   UNL     1       5.683   2.077  -0.078  0.00  0.00    +0.000 A 
ATOM     22  C   UNL     1       6.995   1.625  -0.106  0.00  0.00    +0.000 A 
ATOM     23  S   UNL     1       8.053   2.670  -0.947  0.00  0.00    +0.000 S 
ATOM     24  C   UNL     1       6.790   3.746  -1.326  0.00  0.00    +0.000 A 
ATOM     25  N   UNL     1       7.005   4.867  -2.066  0.00  0.00    +0.000 NA
ATOM     26  C   UNL     1       5.942   5.566  -2.294  0.00  0.00    +0.000 A 
ATOM     27  N   UNL     1       4.684   5.256  -1.839  0.00  0.00    +0.000 N 
ATOM     28  C   UNL     1       4.422   4.146  -1.070  0.00  0.00    +0.000 A 
ATOM     29  O   UNL     1       3.298   3.893  -0.646  0.00  0.00    +0.000 OA
ATOM     30  C   UNL     1       5.583   3.321  -0.804  0.00  0.00    +0.000 A 
ATOM     31  H   UNL     1       3.897   5.851  -2.052  0.00  0.00    +0.000 HD
ENDBRANCH  20  21
BRANCH  20  33
ATOM     32  N   UNL     1       3.367  -0.312  -1.351  0.00  0.00    +0.000 NA
ATOM     33  C   UNL     1       3.886   0.445  -0.486  0.00  0.00    +0.000 C 
ENDBRANCH  20  33
ENDBRANCH  18  20
ENDBRANCH   1  18
TORSDOF 9
