REMARK  Name = 
REMARK  8 active torsions:
REMARK  status: ('A' for Active; 'I' for Inactive)
REMARK    1  A    between atoms: C_1  and  C_2
REMARK    2  A    between atoms: C_2  and  N_3
REMARK    3  A    between atoms: C_2  and  C_16
REMARK    4  A    between atoms: C_4  and  C_6
REMARK    5  A    between atoms: C_19  and  C_20
REMARK    6  A    between atoms: C_20  and  N_21
REMARK    7  A    between atoms: N_21  and  C_22
REMARK    8  A    between atoms: C_22  and  C_23
REMARK                            x       y       z     vdW  Elec       q    Type
REMARK                         _______ _______ _______ _____ _____    ______ ____
ROOT
ATOM      1  C   UNL     1       3.641  -0.940  -0.333  0.00  0.00    +0.000 C 
ATOM      2  C   UNL     1       2.429  -0.064  -0.005  0.00  0.00    +0.000 C 
ENDROOT
BRANCH   2   3
ATOM      3  C   UNL     1       2.818   1.000   1.012  0.00  0.00    +0.000 A 
ATOM      4  C   UNL     1       2.754   2.359   0.682  0.00  0.00    +0.000 A 
ATOM      5  C   UNL     1       3.030   3.337   1.645  0.00  0.00    +0.000 A 
ATOM      6  C   UNL     1       3.365   2.980   2.961  0.00  0.00    +0.000 A 
ATOM      7  C   UNL     1       3.472   1.622   3.279  0.00  0.00    +0.000 A 
ATOM      8  C   UNL     1       3.207   0.645   2.315  0.00  0.00    +0.000 A 
BRANCH   6   9
ATOM      9  C   UNL     1       3.580   4.041   4.019  0.00  0.00    +0.000 C 
BRANCH   9  10
ATOM     10  N   UNL     1       2.374   4.852   4.182  0.00  0.00    +0.000 NA
ATOM     11  H   UNL     1       1.608   4.239   4.463  0.00  0.00    +0.000 HD
BRANCH  10  12
ATOM     12  C   UNL     1       2.537   5.881   5.215  0.00  0.00    +0.000 C 
BRANCH  12  13
ATOM     13  C   UNL     1       1.276   6.712   5.394  0.00  0.00    +0.000 A 
ATOM     14  C   UNL     1       0.746   7.434   4.323  0.00  0.00    +0.000 A 
ATOM     15  C   UNL     1      -0.413   8.182   4.516  0.00  0.00    +0.000 A 
ATOM     16  C   UNL     1      -1.006   8.202   5.772  0.00  0.00    +0.000 A 
ATOM     17  C   UNL     1      -0.418   7.464   6.784  0.00  0.00    +0.000 A 
ATOM     18  N   UNL     1       0.701   6.719   6.624  0.00  0.00    +0.000 NA
ENDBRANCH  12  13
ENDBRANCH  10  12
ENDBRANCH   9  10
ENDBRANCH   6   9
ENDBRANCH   2   3
BRANCH   2  19
ATOM     19  N   UNL     1       1.315  -0.838   0.522  0.00  0.00    +0.000 N 
ATOM     20  C   UNL     1       0.697  -1.845  -0.174  0.00  0.00    +0.000 C 
ATOM     21  O   UNL     1       1.049  -2.198  -1.295  0.00  0.00    +0.000 OA
ATOM     22  H   UNL     1       0.782  -0.382   1.257  0.00  0.00    +0.000 HD
BRANCH  20  23
ATOM     23  C   UNL     1      -0.377  -2.544   0.537  0.00  0.00    +0.000 A 
ATOM     24  C   UNL     1      -0.633  -3.881   0.267  0.00  0.00    +0.000 A 
ATOM     25  S   UNL     1      -1.906  -4.531   1.200  0.00  0.00    +0.000 S 
ATOM     26  C   UNL     1      -2.184  -3.035   1.963  0.00  0.00    +0.000 A 
ATOM     27  N   UNL     1      -3.186  -2.884   2.871  0.00  0.00    +0.000 NA
ATOM     28  C   UNL     1      -3.297  -1.686   3.345  0.00  0.00    +0.000 A 
ATOM     29  N   UNL     1      -2.490  -0.629   3.007  0.00  0.00    +0.000 N 
ATOM     30  C   UNL     1      -1.443  -0.750   2.126  0.00  0.00    +0.000 A 
ATOM     31  O   UNL     1      -0.694   0.194   1.896  0.00  0.00    +0.000 OA
ATOM     32  C   UNL     1      -1.297  -2.068   1.540  0.00  0.00    +0.000 A 
ATOM     33  H   UNL     1      -2.617   0.275   3.433  0.00  0.00    +0.000 HD
ENDBRANCH  20  23
ENDBRANCH   2  19
TORSDOF 7
