REMARK  Name = 
REMARK  5 active torsions:
REMARK  status: ('A' for Active; 'I' for Inactive)
REMARK    1  A    between atoms: C_2  and  C_4
REMARK    2  A    between atoms: C_7  and  O_8
REMARK    3  A    between atoms: O_8  and  C_9
REMARK    4  A    between atoms: C_9  and  C_10
REMARK    5  A    between atoms: C_15  and  N_16
REMARK                            x       y       z     vdW  Elec       q    Type
REMARK                         _______ _______ _______ _____ _____    ______ ____
ROOT
ATOM      1  C   UNL     1       4.894   4.820   3.378  0.00  0.00    +0.000 C 
ENDROOT
BRANCH   1   2
ATOM      2  C   UNL     1       5.758   5.974   3.821  0.00  0.00    +0.000 A 
ATOM      3  C   UNL     1       5.377   7.282   3.509  0.00  0.00    +0.000 A 
ATOM      4  C   UNL     1       6.096   8.346   4.030  0.00  0.00    +0.000 A 
ATOM      5  F   UNL     1       5.729   9.599   3.727  0.00  0.00    +0.000 F 
ATOM      6  C   UNL     1       7.176   8.135   4.881  0.00  0.00    +0.000 A 
ATOM      7  C   UNL     1       7.585   6.841   5.228  0.00  0.00    +0.000 A 
ATOM      8  C   UNL     1       6.868   5.773   4.662  0.00  0.00    +0.000 A 
BRANCH   7   9
ATOM      9  N   UNL     1       8.637   6.639   6.095  0.00  0.00    +0.000 N 
ATOM     10  C   UNL     1       9.508   5.456   6.047  0.00  0.00    +0.000 C 
ATOM     11  C   UNL     1       9.417   4.664   7.359  0.00  0.00    +0.000 C 
ATOM     12  O   UNL     1       9.687   5.499   8.498  0.00  0.00    +0.000 OA
ATOM     13  C   UNL     1       8.735   6.574   8.561  0.00  0.00    +0.000 C 
ATOM     14  C   UNL     1       8.792   7.463   7.306  0.00  0.00    +0.000 C 
ENDBRANCH   7   9
ENDBRANCH   1   2
BRANCH   1  15
ATOM     15  O   UNL     1       5.661   3.639   3.138  0.00  0.00    +0.000 OA
BRANCH  15  19
ATOM     16  C   UNL     1       3.707   0.123   2.011  0.00  0.00    +0.000 A 
ATOM     17  C   UNL     1       2.942   1.270   2.238  0.00  0.00    +0.000 A 
ATOM     18  C   UNL     1       3.562   2.464   2.618  0.00  0.00    +0.000 A 
ATOM     19  C   UNL     1       4.948   2.525   2.775  0.00  0.00    +0.000 A 
ATOM     20  C   UNL     1       5.710   1.374   2.562  0.00  0.00    +0.000 A 
ATOM     21  C   UNL     1       5.095   0.174   2.187  0.00  0.00    +0.000 A 
BRANCH  16  23
ATOM     22  N   UNL     1       1.901  -1.098   0.927  0.00  0.00    +0.000 N 
ATOM     23  C   UNL     1       3.078  -1.162   1.621  0.00  0.00    +0.000 C 
ATOM     24  O   UNL     1       3.601  -2.240   1.878  0.00  0.00    +0.000 OA
ATOM     25  H   UNL     1       1.537  -1.976   0.582  0.00  0.00    +0.000 HD
ATOM     26  H   UNL     1       1.587  -0.250   0.474  0.00  0.00    +0.000 HD
ENDBRANCH  16  23
ENDBRANCH  15  19
ENDBRANCH   1  15
TORSDOF 5
