REMARK  Name = 
REMARK  7 active torsions:
REMARK  status: ('A' for Active; 'I' for Inactive)
REMARK    1  A    between atoms: C_2  and  C_20
REMARK    2  A    between atoms: N_3  and  C_4
REMARK    3  A    between atoms: C_4  and  C_5
REMARK    4  A    between atoms: C_8  and  C_9
REMARK    5  A    between atoms: C_9  and  O_10
REMARK    6  A    between atoms: C_9  and  C_11
REMARK    7  A    between atoms: C_11  and  N_12
REMARK                            x       y       z     vdW  Elec       q    Type
REMARK                         _______ _______ _______ _____ _____    ______ ____
ROOT
ATOM      1  C   UNL     1       2.280   2.155   1.030  0.00  0.00    +0.000 C 
ENDROOT
BRANCH   1   2
ATOM      2  C   UNL     1       3.223   3.218   1.533  0.00  0.00    +0.000 A 
ATOM      3  C   UNL     1       4.412   2.888   2.179  0.00  0.00    +0.000 A 
ATOM      4  N   UNL     1       5.282   3.815   2.668  0.00  0.00    +0.000 NA
ATOM      5  C   UNL     1       4.932   5.114   2.461  0.00  0.00    +0.000 A 
ATOM      6  C   UNL     1       3.756   5.437   1.788  0.00  0.00    +0.000 A 
ATOM      7  N   UNL     1       2.887   4.513   1.313  0.00  0.00    +0.000 NA
BRANCH   5   8
ATOM      8  C   UNL     1       5.813   6.225   2.998  0.00  0.00    +0.000 C 
BRANCH   8   9
ATOM      9  O   UNL     1       5.980   6.091   4.418  0.00  0.00    +0.000 OA
ATOM     10  H   UNL     1       6.474   5.261   4.553  0.00  0.00    +0.000 HD
ENDBRANCH   8   9
BRANCH   8  11
ATOM     11  C   UNL     1       7.212   6.289   2.331  0.00  0.00    +0.000 C 
BRANCH  11  12
ATOM     12  N   UNL     1       7.238   6.529   0.872  0.00  0.00    +0.000 NA
ATOM     13  C   UNL     1       6.634   7.822   0.521  0.00  0.00    +0.000 C 
ATOM     14  C   UNL     1       6.625   8.042  -0.991  0.00  0.00    +0.000 C 
ATOM     15  C   UNL     1       8.026   7.932  -1.574  0.00  0.00    +0.000 C 
ATOM     16  C   UNL     1       8.671   6.619  -1.150  0.00  0.00    +0.000 C 
ATOM     17  C   UNL     1       8.621   6.445   0.370  0.00  0.00    +0.000 C 
ENDBRANCH  11  12
ENDBRANCH   8  11
ENDBRANCH   5   8
ENDBRANCH   1   2
BRANCH   1  20
ATOM     18  O   UNL     1       0.983   0.123  -0.351  0.00  0.00    +0.000 OA
ATOM     19  C   UNL     1       1.889   0.724  -0.917  0.00  0.00    +0.000 C 
ATOM     20  N   UNL     1       2.635   1.690  -0.291  0.00  0.00    +0.000 N 
ATOM     21  H   UNL     1       3.131   2.365  -0.868  0.00  0.00    +0.000 HD
BRANCH  19  22
ATOM     22  C   UNL     1       2.272   0.416  -2.300  0.00  0.00    +0.000 A 
ATOM     23  C   UNL     1       2.044  -0.847  -2.825  0.00  0.00    +0.000 A 
ATOM     24  S   UNL     1       2.585  -1.022  -4.434  0.00  0.00    +0.000 S 
ATOM     25  C   UNL     1       3.100   0.599  -4.498  0.00  0.00    +0.000 A 
ATOM     26  N   UNL     1       3.635   1.129  -5.640  0.00  0.00    +0.000 NA
ATOM     27  C   UNL     1       3.958   2.380  -5.540  0.00  0.00    +0.000 A 
ATOM     28  N   UNL     1       3.793   3.138  -4.418  0.00  0.00    +0.000 N 
ATOM     29  C   UNL     1       3.284   2.647  -3.244  0.00  0.00    +0.000 A 
ATOM     30  O   UNL     1       3.233   3.337  -2.232  0.00  0.00    +0.000 OA
ATOM     31  C   UNL     1       2.893   1.247  -3.295  0.00  0.00    +0.000 A 
ATOM     32  H   UNL     1       4.079   4.113  -4.399  0.00  0.00    +0.000 HD
ENDBRANCH  19  22
ENDBRANCH   1  20
TORSDOF 7
