REMARK  Name = 
REMARK  5 active torsions:
REMARK  status: ('A' for Active; 'I' for Inactive)
REMARK    1  A    between atoms: C_2  and  C_4
REMARK    2  A    between atoms: C_7  and  N_8
REMARK    3  A    between atoms: N_8  and  C_9
REMARK    4  A    between atoms: C_9  and  C_10
REMARK    5  A    between atoms: C_14  and  C_15
REMARK                            x       y       z     vdW  Elec       q    Type
REMARK                         _______ _______ _______ _____ _____    ______ ____
ROOT
ATOM      1  N   UNL     1       5.014   2.901   4.052  0.00  0.00    +0.000 N 
ATOM      2  H   UNL     1       5.885   2.515   3.698  0.00  0.00    +0.000 HD
ENDROOT
BRANCH   1   6
ATOM      3  C   UNL     1       1.931   2.541   1.349  0.00  0.00    +0.000 A 
ATOM      4  C   UNL     1       1.789   2.082   2.649  0.00  0.00    +0.000 A 
ATOM      5  N   UNL     1       2.796   2.147   3.567  0.00  0.00    +0.000 NA
ATOM      6  C   UNL     1       3.963   2.686   3.153  0.00  0.00    +0.000 A 
ATOM      7  C   UNL     1       4.088   3.124   1.826  0.00  0.00    +0.000 A 
ATOM      8  N   UNL     1       3.101   3.061   0.895  0.00  0.00    +0.000 NA
BRANCH   3  10
ATOM      9  N   UNL     1       1.009   2.939  -0.872  0.00  0.00    +0.000 N 
ATOM     10  C   UNL     1       0.788   2.491   0.402  0.00  0.00    +0.000 C 
ATOM     11  O   UNL     1      -0.310   2.047   0.735  0.00  0.00    +0.000 OA
ATOM     12  H   UNL     1       0.270   2.803  -1.547  0.00  0.00    +0.000 HD
ATOM     13  H   UNL     1       1.956   3.101  -1.197  0.00  0.00    +0.000 HD
ENDBRANCH   3  10
ENDBRANCH   1   6
BRANCH   1  14
ATOM     14  C   UNL     1       4.762   2.524   5.438  0.00  0.00    +0.000 C 
BRANCH  14  15
ATOM     15  C   UNL     1       5.575   3.413   6.343  0.00  0.00    +0.000 A 
ATOM     16  C   UNL     1       6.515   2.901   7.224  0.00  0.00    +0.000 A 
ATOM     17  N   UNL     1       7.244   3.651   8.078  0.00  0.00    +0.000 NA
ATOM     18  C   UNL     1       7.021   4.986   8.057  0.00  0.00    +0.000 A 
ATOM     19  C   UNL     1       6.103   5.631   7.224  0.00  0.00    +0.000 A 
ATOM     20  C   UNL     1       5.377   4.800   6.360  0.00  0.00    +0.000 A 
BRANCH  19  21
ATOM     21  C   UNL     1       5.910   7.087   7.250  0.00  0.00    +0.000 A 
ATOM     22  C   UNL     1       5.516   7.803   6.109  0.00  0.00    +0.000 A 
ATOM     23  C   UNL     1       5.338   9.182   6.164  0.00  0.00    +0.000 A 
ATOM     24  C   UNL     1       5.562   9.821   7.368  0.00  0.00    +0.000 A 
ATOM     25  N   UNL     1       5.946   9.186   8.494  0.00  0.00    +0.000 NA
ATOM     26  C   UNL     1       6.106   7.847   8.407  0.00  0.00    +0.000 A 
ENDBRANCH  19  21
ENDBRANCH  14  15
ENDBRANCH   1  14
TORSDOF 5
