REMARK  Name = 
REMARK  8 active torsions:
REMARK  status: ('A' for Active; 'I' for Inactive)
REMARK    1  A    between atoms: C_1  and  C_2
REMARK    2  A    between atoms: C_2  and  N_3
REMARK    3  A    between atoms: C_2  and  C_25
REMARK    4  A    between atoms: N_3  and  C_4
REMARK    5  A    between atoms: C_4  and  C_5
REMARK    6  A    between atoms: C_8  and  C_9
REMARK    7  A    between atoms: C_9  and  N_10
REMARK    8  A    between atoms: C_11  and  C_13
REMARK                            x       y       z     vdW  Elec       q    Type
REMARK                         _______ _______ _______ _____ _____    ______ ____
ROOT
ATOM      1  C   UNL     1       2.983   0.197  -3.757  0.00  0.00    +0.000 C 
ATOM      2  C   UNL     1       4.433  -0.235  -4.024  0.00  0.00    +0.000 C 
ATOM      3  C   UNL     1       4.988   0.361  -5.315  0.00  0.00    +0.000 C 
ATOM      4  C   UNL     1       4.883   1.896  -5.342  0.00  0.00    +0.000 C 
ATOM      5  C   UNL     1       3.465   2.378  -4.992  0.00  0.00    +0.000 C 
ATOM      6  C   UNL     1       2.929   1.734  -3.715  0.00  0.00    +0.000 C 
ENDROOT
BRANCH   1   7
ATOM      7  C   UNL     1       1.966  -0.377  -4.774  0.00  0.00    +0.000 C 
BRANCH   7   8
ATOM      8  N   UNL     1       1.929  -1.839  -4.716  0.00  0.00    +0.000 NA
ATOM      9  H   UNL     1       2.865  -2.205  -4.898  0.00  0.00    +0.000 HD
BRANCH   8  11
ATOM     10  C   UNL     1      -0.419  -2.037  -5.590  0.00  0.00    +0.000 C 
ATOM     11  C   UNL     1       1.049  -2.454  -5.732  0.00  0.00    +0.000 C 
BRANCH  11  12
ATOM     12  C   UNL     1       1.149  -3.980  -5.665  0.00  0.00    +0.000 A 
ATOM     13  C   UNL     1       0.770  -4.663  -4.507  0.00  0.00    +0.000 A 
ATOM     14  C   UNL     1       0.815  -6.053  -4.492  0.00  0.00    +0.000 A 
ATOM     15  C   UNL     1       1.255  -6.728  -5.621  0.00  0.00    +0.000 A 
ATOM     16  C   UNL     1       1.643  -5.980  -6.720  0.00  0.00    +0.000 A 
ATOM     17  N   UNL     1       1.602  -4.629  -6.769  0.00  0.00    +0.000 NA
ENDBRANCH  11  12
ENDBRANCH   8  11
ENDBRANCH   7   8
ENDBRANCH   1   7
BRANCH   4  18
ATOM     18  C   UNL     1       5.299   2.479  -6.703  0.00  0.00    +0.000 C 
BRANCH  18  19
ATOM     19  N   UNL     1       6.666   2.151  -7.039  0.00  0.00    +0.000 N 
ATOM     20  C   UNL     1       7.459   2.988  -7.781  0.00  0.00    +0.000 C 
ATOM     21  O   UNL     1       7.085   4.099  -8.152  0.00  0.00    +0.000 OA
ATOM     22  H   UNL     1       6.915   1.167  -7.024  0.00  0.00    +0.000 HD
BRANCH  20  23
ATOM     23  C   UNL     1       8.823   2.517  -8.043  0.00  0.00    +0.000 A 
ATOM     24  C   UNL     1       9.837   3.441  -8.255  0.00  0.00    +0.000 A 
ATOM     25  S   UNL     1      11.369   2.732  -8.489  0.00  0.00    +0.000 S 
ATOM     26  C   UNL     1      10.722   1.163  -8.367  0.00  0.00    +0.000 A 
ATOM     27  N   UNL     1      11.516   0.067  -8.502  0.00  0.00    +0.000 NA
ATOM     28  C   UNL     1      10.889  -1.058  -8.424  0.00  0.00    +0.000 A 
ATOM     29  N   UNL     1       9.540  -1.190  -8.214  0.00  0.00    +0.000 N 
ATOM     30  C   UNL     1       8.705  -0.112  -8.028  0.00  0.00    +0.000 A 
ATOM     31  O   UNL     1       7.513  -0.260  -7.777  0.00  0.00    +0.000 OA
ATOM     32  C   UNL     1       9.359   1.180  -8.130  0.00  0.00    +0.000 A 
ATOM     33  H   UNL     1       9.114  -2.101  -8.152  0.00  0.00    +0.000 HD
ENDBRANCH  20  23
ENDBRANCH  18  19
ENDBRANCH   4  18
TORSDOF 7
