REMARK  Name = 
REMARK  13 active torsions:
REMARK  status: ('A' for Active; 'I' for Inactive)
REMARK    1  A    between atoms: C_1  and  C_2
REMARK    2  A    between atoms: C_2  and  N_3
REMARK    3  A    between atoms: N_3  and  C_4
REMARK    4  A    between atoms: C_4  and  C_5
REMARK    5  A    between atoms: C_6  and  C_8
REMARK    6  A    between atoms: C_8  and  O_9
REMARK    7  A    between atoms: O_9  and  C_10
REMARK    8  A    between atoms: C_13  and  C_14
REMARK    9  A    between atoms: C_14  and  C_15
REMARK   10  A    between atoms: C_14  and  C_16
REMARK   11  A    between atoms: C_14  and  C_17
REMARK   12  A    between atoms: C_17  and  N_18
REMARK   13  A    between atoms: C_22  and  C_23
REMARK                            x       y       z     vdW  Elec       q    Type
REMARK                         _______ _______ _______ _____ _____    ______ ____
ROOT
ATOM      1  C   UNL     1       9.340   3.644   7.001  0.00  0.00    +0.000 C 
ATOM      2  C   UNL     1      10.744   2.994   6.985  0.00  0.00    +0.000 C 
ATOM      3  C   UNL     1       9.522   5.175   6.825  0.00  0.00    +0.000 C 
ENDROOT
BRANCH   1   7
ATOM      4  C   UNL     1       6.923   2.186   3.642  0.00  0.00    +0.000 A 
ATOM      5  C   UNL     1       6.476   2.020   4.944  0.00  0.00    +0.000 A 
ATOM      6  C   UNL     1       7.242   2.491   6.019  0.00  0.00    +0.000 A 
ATOM      7  C   UNL     1       8.482   3.122   5.827  0.00  0.00    +0.000 A 
ATOM      8  C   UNL     1       8.918   3.276   4.501  0.00  0.00    +0.000 A 
ATOM      9  C   UNL     1       8.149   2.812   3.424  0.00  0.00    +0.000 A 
BRANCH   4  10
ATOM     10  O   UNL     1       6.281   1.724   2.528  0.00  0.00    +0.000 OA
BRANCH  10  11
ATOM     11  C   UNL     1       4.859   1.659   2.596  0.00  0.00    +0.000 C 
BRANCH  11  13
ATOM     12  N   UNL     1       4.459   1.978   0.117  0.00  0.00    +0.000 N 
ATOM     13  C   UNL     1       4.255   1.188   1.260  0.00  0.00    +0.000 C 
ATOM     14  O   UNL     1       3.587   0.149   1.225  0.00  0.00    +0.000 OA
BRANCH  12  16
ATOM     15  C   UNL     1       2.555   1.760  -1.507  0.00  0.00    +0.000 C 
ATOM     16  C   UNL     1       4.004   1.428  -1.167  0.00  0.00    +0.000 C 
ENDBRANCH  12  16
BRANCH  12  17
ATOM     17  C   UNL     1       5.259   3.206   0.192  0.00  0.00    +0.000 C 
ATOM     18  C   UNL     1       5.444   4.068  -1.044  0.00  0.00    +0.000 C 
ENDBRANCH  12  17
ENDBRANCH  11  13
ENDBRANCH  10  11
ENDBRANCH   4  10
ENDBRANCH   1   7
BRANCH   1  19
ATOM     19  C   UNL     1       8.713   3.433   8.419  0.00  0.00    +0.000 C 
BRANCH  19  20
ATOM     20  N   UNL     1       8.511   2.015   8.754  0.00  0.00    +0.000 N 
ATOM     21  C   UNL     1       7.928   1.798  10.008  0.00  0.00    +0.000 A 
ATOM     22  C   UNL     1       7.644   0.492  10.399  0.00  0.00    +0.000 A 
ATOM     23  C   UNL     1       7.075   0.260  11.653  0.00  0.00    +0.000 A 
ATOM     24  C   UNL     1       6.795   1.337  12.499  0.00  0.00    +0.000 A 
ATOM     25  C   UNL     1       7.082   2.602  12.008  0.00  0.00    +0.000 A 
ATOM     26  N   UNL     1       7.630   2.848  10.798  0.00  0.00    +0.000 NA
ATOM     27  H   UNL     1       9.355   1.456   8.678  0.00  0.00    +0.000 HD
BRANCH  24  28
ATOM     28  C   UNL     1       6.227   1.093  13.840  0.00  0.00    +0.000 C 
ATOM     29  N   UNL     1       5.979   2.162  14.660  0.00  0.00    +0.000 N 
ATOM     30  O   UNL     1       5.989  -0.047  14.230  0.00  0.00    +0.000 OA
ATOM     31  H   UNL     1       6.136   3.135  14.443  0.00  0.00    +0.000 HD
ATOM     32  H   UNL     1       5.593   1.949  15.572  0.00  0.00    +0.000 HD
ENDBRANCH  24  28
ENDBRANCH  19  20
ENDBRANCH   1  19
TORSDOF 9
