REMARK  Name = 
REMARK  8 active torsions:
REMARK  status: ('A' for Active; 'I' for Inactive)
REMARK    1  A    between atoms: C_1  and  C_2
REMARK    2  A    between atoms: C_5  and  C_6
REMARK    3  A    between atoms: C_10  and  C_11
REMARK    4  A    between atoms: C_11  and  C_12
REMARK    5  A    between atoms: C_11  and  C_13
REMARK    6  A    between atoms: C_13  and  N_14
REMARK    7  A    between atoms: N_14  and  C_15
REMARK    8  A    between atoms: C_18  and  C_19
REMARK                            x       y       z     vdW  Elec       q    Type
REMARK                         _______ _______ _______ _____ _____    ______ ____
ROOT
ATOM      1  C   UNL     1      -5.981   2.190  -1.654  0.00  0.00    +0.000 C 
ATOM      2  C   UNL     1      -5.324   1.093  -0.810  0.00  0.00    +0.000 C 
ENDROOT
BRANCH   1   7
ATOM      3  C   UNL     1      -6.898   0.533  -5.024  0.00  0.00    +0.000 A 
ATOM      4  C   UNL     1      -6.075   1.282  -5.882  0.00  0.00    +0.000 A 
ATOM      5  C   UNL     1      -5.225   2.275  -5.391  0.00  0.00    +0.000 A 
ATOM      6  C   UNL     1      -5.183   2.549  -4.026  0.00  0.00    +0.000 A 
ATOM      7  C   UNL     1      -5.979   1.823  -3.133  0.00  0.00    +0.000 A 
ATOM      8  C   UNL     1      -6.804   0.801  -3.644  0.00  0.00    +0.000 A 
BRANCH   3  13
ATOM      9  C   UNL     1     -10.843  -3.042  -7.228  0.00  0.00    +0.000 C 
ATOM     10  C   UNL     1      -9.798  -2.160  -6.618  0.00  0.00    +0.000 A 
ATOM     11  C   UNL     1      -9.173  -2.496  -5.424  0.00  0.00    +0.000 A 
ATOM     12  C   UNL     1      -8.204  -1.634  -4.898  0.00  0.00    +0.000 A 
ATOM     13  C   UNL     1      -7.873  -0.444  -5.557  0.00  0.00    +0.000 A 
ATOM     14  C   UNL     1      -8.566  -0.209  -6.748  0.00  0.00    +0.000 A 
ATOM     15  N   UNL     1      -9.502  -1.028  -7.291  0.00  0.00    +0.000 NA
ENDBRANCH   3  13
ENDBRANCH   1   7
BRANCH   1  16
ATOM     16  C   UNL     1      -7.416   2.507  -1.167  0.00  0.00    +0.000 C 
BRANCH  16  17
ATOM     17  N   UNL     1      -7.408   3.083   0.182  0.00  0.00    +0.000 N 
ATOM     18  H   UNL     1      -6.724   3.832   0.280  0.00  0.00    +0.000 HD
BRANCH  17  19
ATOM     19  C   UNL     1      -8.636   3.423   0.768  0.00  0.00    +0.000 A 
ATOM     20  C   UNL     1      -9.839   2.777   0.474  0.00  0.00    +0.000 A 
ATOM     21  C   UNL     1     -11.014   3.116   1.148  0.00  0.00    +0.000 A 
ATOM     22  C   UNL     1     -10.951   4.089   2.133  0.00  0.00    +0.000 A 
ATOM     23  N   UNL     1      -9.804   4.722   2.494  0.00  0.00    +0.000 NA
ATOM     24  C   UNL     1      -8.687   4.352   1.816  0.00  0.00    +0.000 A 
BRANCH  22  25
ATOM     25  C   UNL     1     -12.199   4.481   2.863  0.00  0.00    +0.000 C 
ATOM     26  N   UNL     1     -12.044   5.468   3.801  0.00  0.00    +0.000 N 
ATOM     27  O   UNL     1     -13.286   3.965   2.645  0.00  0.00    +0.000 OA
ATOM     28  H   UNL     1     -11.125   5.865   3.956  0.00  0.00    +0.000 HD
ATOM     29  H   UNL     1     -12.842   5.780   4.331  0.00  0.00    +0.000 HD
ENDBRANCH  22  25
ENDBRANCH  17  19
ENDBRANCH  16  17
ENDBRANCH   1  16
TORSDOF 6
