REMARK  Name = 
REMARK  8 active torsions:
REMARK  status: ('A' for Active; 'I' for Inactive)
REMARK    1  A    between atoms: C_2  and  C_21
REMARK    2  A    between atoms: N_3  and  C_4
REMARK    3  A    between atoms: C_4  and  C_5
REMARK    4  A    between atoms: C_8  and  C_9
REMARK    5  A    between atoms: C_9  and  C_10
REMARK    6  A    between atoms: C_10  and  O_11
REMARK    7  A    between atoms: C_10  and  C_12
REMARK    8  A    between atoms: C_12  and  C_13
REMARK                            x       y       z     vdW  Elec       q    Type
REMARK                         _______ _______ _______ _____ _____    ______ ____
ROOT
ATOM      1  C   UNL     1       3.104   3.646   0.543  0.00  0.00    +0.000 A 
ATOM      2  C   UNL     1       2.713   4.979   0.421  0.00  0.00    +0.000 A 
ATOM      3  C   UNL     1       3.620   6.001   0.695  0.00  0.00    +0.000 A 
ATOM      4  C   UNL     1       4.924   5.669   1.047  0.00  0.00    +0.000 A 
ATOM      5  N   UNL     1       5.345   4.382   1.108  0.00  0.00    +0.000 NA
ATOM      6  C   UNL     1       4.431   3.407   0.884  0.00  0.00    +0.000 A 
ENDROOT
BRANCH   1   7
ATOM      7  C   UNL     1       2.145   2.525   0.263  0.00  0.00    +0.000 C 
BRANCH   7  10
ATOM      8  O   UNL     1       0.348   0.775  -1.063  0.00  0.00    +0.000 OA
ATOM      9  C   UNL     1       1.350   1.182  -1.631  0.00  0.00    +0.000 C 
ATOM     10  N   UNL     1       2.185   2.166  -1.130  0.00  0.00    +0.000 N 
ATOM     11  H   UNL     1       3.092   2.237  -1.574  0.00  0.00    +0.000 HD
BRANCH   9  12
ATOM     12  C   UNL     1       1.942   0.547  -2.804  0.00  0.00    +0.000 A 
ATOM     13  C   UNL     1       1.999  -0.819  -3.007  0.00  0.00    +0.000 A 
ATOM     14  N   UNL     1       2.990  -1.062  -3.924  0.00  0.00    +0.000 N 
ATOM     15  C   UNL     1       3.505   0.127  -4.385  0.00  0.00    +0.000 A 
ATOM     16  C   UNL     1       4.585   0.397  -5.214  0.00  0.00    +0.000 A 
ATOM     17  N   UNL     1       4.829   1.677  -5.580  0.00  0.00    +0.000 NA
ATOM     18  C   UNL     1       4.007   2.657  -5.146  0.00  0.00    +0.000 A 
ATOM     19  C   UNL     1       2.956   2.466  -4.266  0.00  0.00    +0.000 A 
ATOM     20  C   UNL     1       2.732   1.148  -3.836  0.00  0.00    +0.000 A 
ATOM     21  H   UNL     1       3.340  -1.978  -4.172  0.00  0.00    +0.000 HD
ENDBRANCH   9  12
ENDBRANCH   7  10
ENDBRANCH   1   7
BRANCH   4  22
ATOM     22  C   UNL     1       5.956   6.737   1.332  0.00  0.00    +0.000 C 
BRANCH  22  23
ATOM     23  C   UNL     1       6.834   7.099   0.117  0.00  0.00    +0.000 C 
BRANCH  23  24
ATOM     24  O   UNL     1       7.547   5.943  -0.344  0.00  0.00    +0.000 OA
ATOM     25  H   UNL     1       6.936   5.181  -0.316  0.00  0.00    +0.000 HD
ENDBRANCH  23  24
BRANCH  23  26
ATOM     26  C   UNL     1       6.033   7.737  -1.026  0.00  0.00    +0.000 C 
BRANCH  26  27
ATOM     27  C   UNL     1       6.912   8.189  -2.166  0.00  0.00    +0.000 A 
ATOM     28  C   UNL     1       7.208   7.309  -3.204  0.00  0.00    +0.000 A 
ATOM     29  C   UNL     1       8.029   7.735  -4.243  0.00  0.00    +0.000 A 
ATOM     30  C   UNL     1       8.532   9.028  -4.222  0.00  0.00    +0.000 A 
ATOM     31  C   UNL     1       8.190   9.840  -3.153  0.00  0.00    +0.000 A 
ATOM     32  N   UNL     1       7.389   9.456  -2.132  0.00  0.00    +0.000 NA
ENDBRANCH  26  27
ENDBRANCH  23  26
ENDBRANCH  22  23
ENDBRANCH   4  22
TORSDOF 8
