REMARK  Name = 
REMARK  5 active torsions:
REMARK  status: ('A' for Active; 'I' for Inactive)
REMARK    1  A    between atoms: C_2  and  C_4
REMARK    2  A    between atoms: C_7  and  O_8
REMARK    3  A    between atoms: O_8  and  C_9
REMARK    4  A    between atoms: C_9  and  C_10
REMARK    5  A    between atoms: C_14  and  C_15
REMARK                            x       y       z     vdW  Elec       q    Type
REMARK                         _______ _______ _______ _____ _____    ______ ____
ROOT
ATOM      1  C   UNL     1       4.908   5.875  -1.124  0.00  0.00    +0.000 C 
ENDROOT
BRANCH   1   2
ATOM      2  C   UNL     1       5.739   6.985  -1.710  0.00  0.00    +0.000 A 
ATOM      3  C   UNL     1       6.935   6.701  -2.356  0.00  0.00    +0.000 A 
ATOM      4  N   UNL     1       7.759   7.641  -2.863  0.00  0.00    +0.000 NA
ATOM      5  C   UNL     1       7.375   8.933  -2.710  0.00  0.00    +0.000 A 
ATOM      6  C   UNL     1       6.205   9.356  -2.076  0.00  0.00    +0.000 A 
ATOM      7  C   UNL     1       5.391   8.333  -1.566  0.00  0.00    +0.000 A 
BRANCH   6   8
ATOM      8  C   UNL     1       5.834  10.778  -1.953  0.00  0.00    +0.000 A 
ATOM      9  C   UNL     1       6.163  11.728  -2.931  0.00  0.00    +0.000 A 
ATOM     10  C   UNL     1       5.770  13.059  -2.793  0.00  0.00    +0.000 A 
ATOM     11  C   UNL     1       5.044  13.417  -1.673  0.00  0.00    +0.000 A 
ATOM     12  N   UNL     1       4.704  12.552  -0.699  0.00  0.00    +0.000 NA
ATOM     13  C   UNL     1       5.109  11.267  -0.861  0.00  0.00    +0.000 A 
ENDBRANCH   6   8
ENDBRANCH   1   2
BRANCH   1  14
ATOM     14  O   UNL     1       3.520   6.233  -1.118  0.00  0.00    +0.000 OA
BRANCH  14  18
ATOM     15  C   UNL     1       1.120   3.292   0.468  0.00  0.00    +0.000 A 
ATOM     16  C   UNL     1       0.545   4.482   0.020  0.00  0.00    +0.000 A 
ATOM     17  C   UNL     1       1.368   5.478  -0.510  0.00  0.00    +0.000 A 
ATOM     18  C   UNL     1       2.735   5.241  -0.571  0.00  0.00    +0.000 A 
ATOM     19  N   UNL     1       3.316   4.105  -0.131  0.00  0.00    +0.000 NA
ATOM     20  C   UNL     1       2.500   3.160   0.390  0.00  0.00    +0.000 A 
BRANCH  15  22
ATOM     21  N   UNL     1      -0.946   2.024   0.608  0.00  0.00    +0.000 N 
ATOM     22  C   UNL     1       0.344   2.170   1.033  0.00  0.00    +0.000 C 
ATOM     23  O   UNL     1       0.850   1.373   1.814  0.00  0.00    +0.000 OA
ATOM     24  H   UNL     1      -1.421   1.183   0.911  0.00  0.00    +0.000 HD
ATOM     25  H   UNL     1      -1.302   2.487  -0.216  0.00  0.00    +0.000 HD
ENDBRANCH  15  22
ENDBRANCH  14  18
ENDBRANCH   1  14
TORSDOF 5
