REMARK  Name = 
REMARK  6 active torsions:
REMARK  status: ('A' for Active; 'I' for Inactive)
REMARK    1  A    between atoms: C_2  and  C_3
REMARK    2  A    between atoms: C_6  and  N_7
REMARK    3  A    between atoms: C_10  and  C_11
REMARK    4  A    between atoms: C_11  and  N_12
REMARK    5  A    between atoms: N_12  and  C_13
REMARK    6  A    between atoms: C_16  and  C_17
REMARK                            x       y       z     vdW  Elec       q    Type
REMARK                         _______ _______ _______ _____ _____    ______ ____
ROOT
ATOM      1  C   UNL     1       6.845   0.771   1.658  0.00  0.00    +0.000 C 
ATOM      2  C   UNL     1       7.041   0.308   3.085  0.00  0.00    +0.000 C 
ATOM      3  C   UNL     1       6.694   1.745   2.804  0.00  0.00    +0.000 C 
ENDROOT
BRANCH   1   7
ATOM      4  N   UNL     1       4.019  -0.898   0.121  0.00  0.00    +0.000 N 
ATOM      5  C   UNL     1       3.698   0.408  -0.179  0.00  0.00    +0.000 A 
ATOM      6  C   UNL     1       4.690   1.202   0.326  0.00  0.00    +0.000 A 
ATOM      7  C   UNL     1       5.570   0.305   0.942  0.00  0.00    +0.000 A 
ATOM      8  N   UNL     1       5.192  -0.972   0.813  0.00  0.00    +0.000 NA
BRANCH   4  12
ATOM      9  C   UNL     1       1.780  -4.330  -0.931  0.00  0.00    +0.000 A 
ATOM     10  C   UNL     1       1.369  -3.065  -1.355  0.00  0.00    +0.000 A 
ATOM     11  C   UNL     1       2.107  -1.936  -1.003  0.00  0.00    +0.000 A 
ATOM     12  C   UNL     1       3.269  -2.058  -0.225  0.00  0.00    +0.000 A 
ATOM     13  C   UNL     1       3.681  -3.326   0.203  0.00  0.00    +0.000 A 
ATOM     14  C   UNL     1       2.934  -4.459  -0.149  0.00  0.00    +0.000 A 
BRANCH   9  16
ATOM     15  N   UNL     1       0.397  -6.416  -1.607  0.00  0.00    +0.000 NA
ATOM     16  C   UNL     1       1.021  -5.484  -1.301  0.00  0.00    +0.000 C 
ENDBRANCH   9  16
ENDBRANCH   4  12
ENDBRANCH   1   7
BRANCH   1  17
ATOM     17  N   UNL     1       8.041   0.816   0.781  0.00  0.00    +0.000 N 
ATOM     18  H   UNL     1       8.194  -0.061   0.281  0.00  0.00    +0.000 HD
BRANCH  17  19
ATOM     19  C   UNL     1       8.381   1.930  -0.020  0.00  0.00    +0.000 A 
ATOM     20  C   UNL     1       7.722   3.159   0.031  0.00  0.00    +0.000 A 
ATOM     21  C   UNL     1       8.188   4.251  -0.704  0.00  0.00    +0.000 A 
ATOM     22  C   UNL     1       9.338   4.092  -1.460  0.00  0.00    +0.000 A 
ATOM     23  N   UNL     1      10.027   2.923  -1.546  0.00  0.00    +0.000 NA
ATOM     24  C   UNL     1       9.531   1.887  -0.820  0.00  0.00    +0.000 A 
BRANCH  22  25
ATOM     25  C   UNL     1       9.899   5.266  -2.204  0.00  0.00    +0.000 C 
ATOM     26  N   UNL     1      11.054   5.024  -2.897  0.00  0.00    +0.000 N 
ATOM     27  O   UNL     1       9.372   6.371  -2.190  0.00  0.00    +0.000 OA
ATOM     28  H   UNL     1      11.470   4.101  -2.867  0.00  0.00    +0.000 HD
ATOM     29  H   UNL     1      11.499   5.776  -3.402  0.00  0.00    +0.000 HD
ENDBRANCH  22  25
ENDBRANCH  17  19
ENDBRANCH   1  17
TORSDOF 6
