REMARK  Name = 
REMARK  8 active torsions:
REMARK  status: ('A' for Active; 'I' for Inactive)
REMARK    1  A    between atoms: N_1  and  C_2
REMARK    2  A    between atoms: C_2  and  C_3
REMARK    3  A    between atoms: C_2  and  C_24
REMARK    4  A    between atoms: C_3  and  C_4
REMARK    5  A    between atoms: C_7  and  C_8
REMARK    6  A    between atoms: C_8  and  N_9
REMARK    7  A    between atoms: C_10  and  C_12
REMARK    8  A    between atoms: N_26  and  C_27
REMARK                            x       y       z     vdW  Elec       q    Type
REMARK                         _______ _______ _______ _____ _____    ______ ____
ROOT
ATOM      1  C   UNL     1       0.459  -0.451   1.529  0.00  0.00    +0.000 A 
ATOM      2  C   UNL     1       1.311  -0.613   2.628  0.00  0.00    +0.000 A 
ATOM      3  C   UNL     1       0.800  -0.960   3.884  0.00  0.00    +0.000 A 
ATOM      4  C   UNL     1      -0.576  -1.139   4.071  0.00  0.00    +0.000 A 
ATOM      5  C   UNL     1      -1.435  -0.908   2.990  0.00  0.00    +0.000 A 
ATOM      6  C   UNL     1      -0.923  -0.574   1.731  0.00  0.00    +0.000 A 
ENDROOT
BRANCH   1   7
ATOM      7  C   UNL     1       1.007  -0.126   0.152  0.00  0.00    +0.000 C 
BRANCH   7   8
ATOM      8  C   UNL     1       2.009  -1.159  -0.423  0.00  0.00    +0.000 C 
BRANCH   8   9
ATOM      9  C   UNL     1       2.532  -0.679  -1.804  0.00  0.00    +0.000 C 
ATOM     10  O   UNL     1       2.316   0.454  -2.229  0.00  0.00    +0.000 OA
ATOM     11  N   UNL     1       3.264  -1.649  -2.481  0.00  0.00    +0.000 N 
ATOM     12  H   UNL     1       3.009  -2.609  -2.307  0.00  0.00    +0.000 HD
BRANCH  11  13
ATOM     13  C   UNL     1       3.758  -1.377  -3.735  0.00  0.00    +0.000 A 
ATOM     14  C   UNL     1       4.417  -0.288  -4.248  0.00  0.00    +0.000 A 
ATOM     15  C   UNL     1       4.633  -0.427  -5.652  0.00  0.00    +0.000 A 
ATOM     16  C   UNL     1       4.109  -1.607  -6.139  0.00  0.00    +0.000 A 
ATOM     17  S   UNL     1       3.498  -2.600  -4.881  0.00  0.00    +0.000 S 
ENDBRANCH  11  13
ENDBRANCH   8   9
BRANCH   8  18
ATOM     18  N   UNL     1       1.410  -2.507  -0.516  0.00  0.00    +0.000 NA
ATOM     19  H   UNL     1       2.100  -3.232  -0.674  0.00  0.00    +0.000 HD
ATOM     20  H   UNL     1       0.688  -2.539  -1.233  0.00  0.00    +0.000 HD
ENDBRANCH   8  18
ENDBRANCH   7   8
ENDBRANCH   1   7
BRANCH   4  21
ATOM     21  C   UNL     1      -1.126  -1.533   5.417  0.00  0.00    +0.000 C 
BRANCH  21  22
ATOM     22  N   UNL     1      -1.415  -0.372   6.221  0.00  0.00    +0.000 N 
ATOM     23  C   UNL     1      -1.784  -0.488   7.534  0.00  0.00    +0.000 C 
ATOM     24  O   UNL     1      -1.830  -1.572   8.112  0.00  0.00    +0.000 OA
ATOM     25  H   UNL     1      -1.591   0.497   5.719  0.00  0.00    +0.000 HD
BRANCH  23  26
ATOM     26  C   UNL     1      -2.071   0.769   8.248  0.00  0.00    +0.000 A 
ATOM     27  C   UNL     1      -1.989   0.807   9.632  0.00  0.00    +0.000 A 
ATOM     28  S   UNL     1      -2.313   2.344  10.298  0.00  0.00    +0.000 S 
ATOM     29  C   UNL     1      -2.619   3.006   8.762  0.00  0.00    +0.000 A 
ATOM     30  N   UNL     1      -2.991   4.308   8.622  0.00  0.00    +0.000 NA
ATOM     31  C   UNL     1      -3.213   4.670   7.402  0.00  0.00    +0.000 A 
ATOM     32  N   UNL     1      -3.093   3.855   6.313  0.00  0.00    +0.000 N 
ATOM     33  C   UNL     1      -2.708   2.534   6.401  0.00  0.00    +0.000 A 
ATOM     34  O   UNL     1      -2.580   1.838   5.400  0.00  0.00    +0.000 OA
ATOM     35  C   UNL     1      -2.455   2.073   7.752  0.00  0.00    +0.000 A 
ATOM     36  H   UNL     1      -3.276   4.196   5.378  0.00  0.00    +0.000 HD
ENDBRANCH  23  26
ENDBRANCH  21  22
ENDBRANCH   4  21
TORSDOF 8
