REMARK  Name = 
REMARK  5 active torsions:
REMARK  status: ('A' for Active; 'I' for Inactive)
REMARK    1  A    between atoms: N_1  and  C_2
REMARK    2  A    between atoms: C_2  and  C_3
REMARK    3  A    between atoms: C_3  and  C_4
REMARK    4  A    between atoms: C_7  and  C_8
REMARK    5  A    between atoms: C_8  and  N_9
REMARK                            x       y       z     vdW  Elec       q    Type
REMARK                         _______ _______ _______ _____ _____    ______ ____
ROOT
ATOM      1  C   UNL     1       4.350  -1.495  -0.707  0.00  0.00    +0.000 C 
ATOM      2  C   UNL     1       4.757  -0.598  -1.883  0.00  0.00    +0.000 C 
ATOM      3  C   UNL     1       6.270  -0.504  -2.024  0.00  0.00    +0.000 C 
ATOM      4  C   UNL     1       6.957  -1.872  -2.148  0.00  0.00    +0.000 C 
ATOM      5  C   UNL     1       6.488  -2.822  -1.034  0.00  0.00    +0.000 C 
ATOM      6  C   UNL     1       4.965  -2.888  -0.896  0.00  0.00    +0.000 C 
ENDROOT
BRANCH   1   7
ATOM      7  C   UNL     1       2.814  -1.514  -0.586  0.00  0.00    +0.000 C 
BRANCH   7   8
ATOM      8  C   UNL     1       2.298  -2.328   0.600  0.00  0.00    +0.000 C 
BRANCH   8   9
ATOM      9  N   UNL     1       0.845  -2.231   0.680  0.00  0.00    +0.000 NA
ATOM     10  H   UNL     1       0.506  -2.840   1.424  0.00  0.00    +0.000 HD
ATOM     11  H   UNL     1       0.430  -2.580  -0.184  0.00  0.00    +0.000 HD
ENDBRANCH   8   9
ENDBRANCH   7   8
ENDBRANCH   1   7
BRANCH   4  12
ATOM     12  C   UNL     1       8.498  -1.745  -2.103  0.00  0.00    +0.000 C 
BRANCH  12  13
ATOM     13  N   UNL     1       9.068  -0.965  -3.192  0.00  0.00    +0.000 N 
ATOM     14  C   UNL     1       9.457  -1.499  -4.398  0.00  0.00    +0.000 A 
ATOM     15  C   UNL     1       9.879  -0.464  -5.204  0.00  0.00    +0.000 A 
ATOM     16  C   UNL     1       9.757   0.731  -4.459  0.00  0.00    +0.000 A 
ATOM     17  N   UNL     1      10.024   2.002  -4.848  0.00  0.00    +0.000 NA
ATOM     18  C   UNL     1       9.808   2.939  -3.903  0.00  0.00    +0.000 A 
ATOM     19  C   UNL     1       9.381   2.697  -2.607  0.00  0.00    +0.000 A 
ATOM     20  C   UNL     1       9.128   1.386  -2.209  0.00  0.00    +0.000 A 
ATOM     21  C   UNL     1       9.300   0.397  -3.184  0.00  0.00    +0.000 A 
ENDBRANCH  12  13
ENDBRANCH   4  12
TORSDOF 5
