REMARK  Name = 
REMARK  6 active torsions:
REMARK  status: ('A' for Active; 'I' for Inactive)
REMARK    1  A    between atoms: C_2  and  C_25
REMARK    2  A    between atoms: N_3  and  C_4
REMARK    3  A    between atoms: C_4  and  C_5
REMARK    4  A    between atoms: C_8  and  C_9
REMARK    5  A    between atoms: C_9  and  N_10
REMARK    6  A    between atoms: C_11  and  C_13
REMARK                            x       y       z     vdW  Elec       q    Type
REMARK                         _______ _______ _______ _____ _____    ______ ____
ROOT
ATOM      1  C   UNL     1       3.211   3.088   2.126  0.00  0.00    +0.000 A 
ATOM      2  C   UNL     1       2.899   4.443   2.021  0.00  0.00    +0.000 A 
ATOM      3  C   UNL     1       3.734   5.380   2.630  0.00  0.00    +0.000 A 
ATOM      4  C   UNL     1       4.874   4.954   3.313  0.00  0.00    +0.000 A 
ATOM      5  C   UNL     1       5.109   3.584   3.358  0.00  0.00    +0.000 A 
ATOM      6  N   UNL     1       4.317   2.650   2.778  0.00  0.00    +0.000 NA
ENDROOT
BRANCH   1   7
ATOM      7  C   UNL     1       2.292   2.049   1.528  0.00  0.00    +0.000 C 
BRANCH   7  10
ATOM      8  O   UNL     1       0.345   1.329  -0.354  0.00  0.00    +0.000 OA
ATOM      9  C   UNL     1       1.517   1.405  -0.713  0.00  0.00    +0.000 C 
ATOM     10  N   UNL     1       2.535   1.813   0.121  0.00  0.00    +0.000 N 
ATOM     11  H   UNL     1       3.488   1.701  -0.213  0.00  0.00    +0.000 HD
BRANCH   9  12
ATOM     12  C   UNL     1       1.910   1.059  -2.117  0.00  0.00    +0.000 A 
ATOM     13  C   UNL     1       0.918   0.702  -3.025  0.00  0.00    +0.000 A 
ATOM     14  C   UNL     1       1.292   0.407  -4.332  0.00  0.00    +0.000 A 
ATOM     15  C   UNL     1       2.635   0.475  -4.683  0.00  0.00    +0.000 A 
ATOM     16  C   UNL     1       3.557   0.835  -3.709  0.00  0.00    +0.000 A 
ATOM     17  N   UNL     1       3.234   1.131  -2.429  0.00  0.00    +0.000 NA
ENDBRANCH   9  12
ENDBRANCH   7  10
ENDBRANCH   1   7
BRANCH   4  18
ATOM     18  C   UNL     1       5.797   5.915   4.004  0.00  0.00    +0.000 C 
BRANCH  18  19
ATOM     19  N   UNL     1       5.406   6.139   5.374  0.00  0.00    +0.000 N 
ATOM     20  C   UNL     1       6.074   7.045   6.160  0.00  0.00    +0.000 C 
ATOM     21  O   UNL     1       6.999   7.724   5.722  0.00  0.00    +0.000 OA
ATOM     22  H   UNL     1       4.817   5.440   5.816  0.00  0.00    +0.000 HD
BRANCH  20  23
ATOM     23  C   UNL     1       5.587   7.212   7.536  0.00  0.00    +0.000 A 
ATOM     24  C   UNL     1       5.846   8.394   8.218  0.00  0.00    +0.000 A 
ATOM     25  S   UNL     1       5.163   8.447   9.780  0.00  0.00    +0.000 S 
ATOM     26  C   UNL     1       4.545   6.871   9.623  0.00  0.00    +0.000 A 
ATOM     27  N   UNL     1       3.856   6.284  10.639  0.00  0.00    +0.000 NA
ATOM     28  C   UNL     1       3.472   5.076  10.395  0.00  0.00    +0.000 A 
ATOM     29  N   UNL     1       3.709   4.402   9.226  0.00  0.00    +0.000 N 
ATOM     30  C   UNL     1       4.373   4.964   8.161  0.00  0.00    +0.000 A 
ATOM     31  O   UNL     1       4.532   4.352   7.108  0.00  0.00    +0.000 OA
ATOM     32  C   UNL     1       4.837   6.318   8.387  0.00  0.00    +0.000 A 
ATOM     33  H   UNL     1       3.374   3.458   9.097  0.00  0.00    +0.000 HD
ENDBRANCH  20  23
ENDBRANCH  18  19
ENDBRANCH   4  18
TORSDOF 6
