REMARK  Name = 
REMARK  7 active torsions:
REMARK  status: ('A' for Active; 'I' for Inactive)
REMARK    1  A    between atoms: C_1  and  C_2
REMARK    2  A    between atoms: C_2  and  N_3
REMARK    3  A    between atoms: C_2  and  C_18
REMARK    4  A    between atoms: C_7  and  C_8
REMARK    5  A    between atoms: C_8  and  N_9
REMARK    6  A    between atoms: N_9  and  C_10
REMARK    7  A    between atoms: C_13  and  N_14
REMARK                            x       y       z     vdW  Elec       q    Type
REMARK                         _______ _______ _______ _____ _____    ______ ____
ROOT
ATOM      1  N   UNL     1      -2.260  -6.653   9.468  0.00  0.00    +0.000 N 
ATOM      2  C   UNL     1      -2.432  -6.425   8.098  0.00  0.00    +0.000 A 
ATOM      3  C   UNL     1      -2.577  -7.521   7.248  0.00  0.00    +0.000 A 
ATOM      4  C   UNL     1      -2.562  -7.344   5.861  0.00  0.00    +0.000 A 
ATOM      5  C   UNL     1      -2.359  -6.073   5.330  0.00  0.00    +0.000 A 
ATOM      6  C   UNL     1      -2.264  -5.032   6.244  0.00  0.00    +0.000 A 
ATOM      7  N   UNL     1      -2.307  -5.180   7.595  0.00  0.00    +0.000 NA
ATOM      8  H   UNL     1      -2.635  -7.548   9.778  0.00  0.00    +0.000 HD
ENDROOT
BRANCH   1  10
ATOM      9  C   UNL     1      -4.141  -5.713  10.717  0.00  0.00    +0.000 C 
ATOM     10  C   UNL     1      -2.647  -5.577  10.386  0.00  0.00    +0.000 C 
BRANCH  10  11
ATOM     11  C   UNL     1      -1.822  -5.496  11.670  0.00  0.00    +0.000 A 
ATOM     12  C   UNL     1      -1.437  -4.288  12.234  0.00  0.00    +0.000 A 
ATOM     13  S   UNL     1      -0.409  -4.465  13.584  0.00  0.00    +0.000 S 
ATOM     14  C   UNL     1      -0.537  -6.161  13.530  0.00  0.00    +0.000 A 
ATOM     15  N   UNL     1       0.087  -6.938  14.456  0.00  0.00    +0.000 NA
ATOM     16  C   UNL     1      -0.172  -8.198  14.349  0.00  0.00    +0.000 A 
ATOM     17  N   UNL     1      -0.985  -8.752  13.392  0.00  0.00    +0.000 N 
ATOM     18  C   UNL     1      -1.607  -8.008  12.405  0.00  0.00    +0.000 A 
ATOM     19  O   UNL     1      -2.343  -8.540  11.575  0.00  0.00    +0.000 OA
ATOM     20  C   UNL     1      -1.352  -6.585  12.494  0.00  0.00    +0.000 A 
ATOM     21  H   UNL     1      -1.173  -9.742  13.392  0.00  0.00    +0.000 HD
ENDBRANCH  10  11
ENDBRANCH   1  10
BRANCH   5  22
ATOM     22  C   UNL     1      -2.182  -5.846   3.849  0.00  0.00    +0.000 C 
BRANCH  22  23
ATOM     23  N   UNL     1      -3.407  -6.138   3.103  0.00  0.00    +0.000 NA
ATOM     24  H   UNL     1      -4.126  -5.513   3.462  0.00  0.00    +0.000 HD
BRANCH  23  25
ATOM     25  C   UNL     1      -3.260  -5.907   1.655  0.00  0.00    +0.000 C 
ATOM     26  C   UNL     1      -4.548  -6.342   0.927  0.00  0.00    +0.000 C 
ATOM     27  C   UNL     1      -5.325  -5.070   0.558  0.00  0.00    +0.000 C 
ATOM     28  C   UNL     1      -4.550  -3.895   1.152  0.00  0.00    +0.000 C 
ATOM     29  C   UNL     1      -3.123  -4.436   1.238  0.00  0.00    +0.000 C 
BRANCH  28  30
ATOM     30  N   UNL     1      -5.077  -3.508   2.463  0.00  0.00    +0.000 NA
ATOM     31  H   UNL     1      -5.508  -4.309   2.921  0.00  0.00    +0.000 HD
ATOM     32  H   UNL     1      -5.857  -2.863   2.320  0.00  0.00    +0.000 HD
ENDBRANCH  28  30
ENDBRANCH  23  25
ENDBRANCH  22  23
ENDBRANCH   5  22
TORSDOF 6
