REMARK  Name = 
REMARK  5 active torsions:
REMARK  status: ('A' for Active; 'I' for Inactive)
REMARK    1  A    between atoms: C_2  and  C_3
REMARK    2  A    between atoms: C_6  and  O_7
REMARK    3  A    between atoms: O_7  and  C_8
REMARK    4  A    between atoms: C_8  and  C_9
REMARK    5  A    between atoms: C_13  and  C_14
REMARK                            x       y       z     vdW  Elec       q    Type
REMARK                         _______ _______ _______ _____ _____    ______ ____
ROOT
ATOM      1  C   UNL     1       5.876  -0.922   0.354  0.00  0.00    +0.000 A 
ATOM      2  C   UNL     1       6.353   0.392   0.331  0.00  0.00    +0.000 A 
ATOM      3  C   UNL     1       7.705   0.648   0.543  0.00  0.00    +0.000 A 
ATOM      4  C   UNL     1       8.589  -0.407   0.781  0.00  0.00    +0.000 A 
ATOM      5  C   UNL     1       8.150  -1.743   0.816  0.00  0.00    +0.000 A 
ATOM      6  C   UNL     1       6.782  -1.975   0.573  0.00  0.00    +0.000 A 
ENDROOT
BRANCH   5   7
ATOM      7  C   UNL     1       9.082  -2.852   1.138  0.00  0.00    +0.000 A 
ATOM      8  C   UNL     1       8.937  -4.136   0.571  0.00  0.00    +0.000 A 
ATOM      9  C   UNL     1       9.813  -5.181   0.890  0.00  0.00    +0.000 A 
ATOM     10  C   UNL     1      10.858  -4.955   1.774  0.00  0.00    +0.000 A 
ATOM     11  F   UNL     1      11.704  -5.951   2.068  0.00  0.00    +0.000 F 
ATOM     12  C   UNL     1      11.023  -3.704   2.348  0.00  0.00    +0.000 A 
ATOM     13  F   UNL     1      12.030  -3.480   3.203  0.00  0.00    +0.000 F 
ATOM     14  C   UNL     1      10.144  -2.666   2.045  0.00  0.00    +0.000 A 
ENDBRANCH   5   7
BRANCH   1  15
ATOM     15  C   UNL     1       4.402  -1.207   0.189  0.00  0.00    +0.000 C 
BRANCH  15  16
ATOM     16  O   UNL     1       4.075  -1.316  -1.196  0.00  0.00    +0.000 OA
BRANCH  16  20
ATOM     17  C   UNL     1       0.131  -2.054  -2.360  0.00  0.00    +0.000 A 
ATOM     18  C   UNL     1       0.423  -1.998  -0.994  0.00  0.00    +0.000 A 
ATOM     19  C   UNL     1       1.733  -1.753  -0.563  0.00  0.00    +0.000 A 
ATOM     20  C   UNL     1       2.760  -1.567  -1.489  0.00  0.00    +0.000 A 
ATOM     21  C   UNL     1       2.461  -1.630  -2.856  0.00  0.00    +0.000 A 
ATOM     22  C   UNL     1       1.155  -1.873  -3.291  0.00  0.00    +0.000 A 
BRANCH  17  24
ATOM     23  N   UNL     1      -2.304  -2.489  -3.144  0.00  0.00    +0.000 NA
ATOM     24  C   UNL     1      -1.214  -2.296  -2.798  0.00  0.00    +0.000 C 
ENDBRANCH  17  24
ENDBRANCH  16  20
ENDBRANCH  15  16
ENDBRANCH   1  15
TORSDOF 5
