REMARK  Name = 
REMARK  7 active torsions:
REMARK  status: ('A' for Active; 'I' for Inactive)
REMARK    1  A    between atoms: C_1  and  C_2
REMARK    2  A    between atoms: C_2  and  C_3
REMARK    3  A    between atoms: C_7  and  C_8
REMARK    4  A    between atoms: C_8  and  C_9
REMARK    5  A    between atoms: C_9  and  N_10
REMARK    6  A    between atoms: N_10  and  C_11
REMARK    7  A    between atoms: C_14  and  C_15
REMARK                            x       y       z     vdW  Elec       q    Type
REMARK                         _______ _______ _______ _____ _____    ______ ____
ROOT
ATOM      1  C   UNL     1       3.170   3.595  -4.249  0.00  0.00    +0.000 C 
ENDROOT
BRANCH   1   2
ATOM      2  N   UNL     1       3.654   4.879  -4.780  0.00  0.00    +0.000 N 
ATOM      3  H   UNL     1       4.305   4.756  -5.553  0.00  0.00    +0.000 HD
BRANCH   2   4
ATOM      4  C   UNL     1       2.671   5.841  -5.078  0.00  0.00    +0.000 A 
ATOM      5  C   UNL     1       1.474   5.955  -4.365  0.00  0.00    +0.000 A 
ATOM      6  C   UNL     1       0.549   6.954  -4.668  0.00  0.00    +0.000 A 
ATOM      7  C   UNL     1       0.862   7.855  -5.672  0.00  0.00    +0.000 A 
ATOM      8  N   UNL     1       2.031   7.834  -6.365  0.00  0.00    +0.000 NA
ATOM      9  C   UNL     1       2.903   6.843  -6.031  0.00  0.00    +0.000 A 
BRANCH   7  10
ATOM     10  C   UNL     1      -0.123   8.928  -6.024  0.00  0.00    +0.000 C 
ATOM     11  N   UNL     1       0.260   9.776  -7.025  0.00  0.00    +0.000 N 
ATOM     12  O   UNL     1      -1.207   9.042  -5.461  0.00  0.00    +0.000 OA
ATOM     13  H   UNL     1       1.169   9.659  -7.457  0.00  0.00    +0.000 HD
ATOM     14  H   UNL     1      -0.349  10.530  -7.301  0.00  0.00    +0.000 HD
ENDBRANCH   7  10
ENDBRANCH   2   4
ENDBRANCH   1   2
BRANCH   1  15
ATOM     15  C   UNL     1       4.320   2.618  -3.970  0.00  0.00    +0.000 C 
BRANCH  15  20
ATOM     16  C   UNL     1       2.883   0.059  -1.499  0.00  0.00    +0.000 A 
ATOM     17  C   UNL     1       2.575  -0.986  -2.392  0.00  0.00    +0.000 A 
ATOM     18  C   UNL     1       2.853  -0.887  -3.758  0.00  0.00    +0.000 A 
ATOM     19  C   UNL     1       3.440   0.266  -4.269  0.00  0.00    +0.000 A 
ATOM     20  C   UNL     1       3.776   1.319  -3.412  0.00  0.00    +0.000 A 
ATOM     21  C   UNL     1       3.510   1.197  -2.034  0.00  0.00    +0.000 A 
BRANCH  16  23
ATOM     22  C   UNL     1       0.907  -0.131   0.018  0.00  0.00    +0.000 C 
ATOM     23  C   UNL     1       2.445  -0.051  -0.027  0.00  0.00    +0.000 C 
ATOM     24  C   UNL     1       3.103  -1.250   0.665  0.00  0.00    +0.000 C 
ATOM     25  C   UNL     1       4.336  -0.677   1.349  0.00  0.00    +0.000 C 
ATOM     26  O   UNL     1       4.244   0.751   1.304  0.00  0.00    +0.000 OA
ATOM     27  C   UNL     1       2.907   1.077   0.909  0.00  0.00    +0.000 C 
ENDBRANCH  16  23
ENDBRANCH  15  20
ENDBRANCH   1  15
TORSDOF 6
