REMARK  Name = 
REMARK  6 active torsions:
REMARK  status: ('A' for Active; 'I' for Inactive)
REMARK    1  A    between atoms: C_1  and  C_2
REMARK    2  A    between atoms: N_9  and  C_10
REMARK    3  A    between atoms: C_10  and  C_11
REMARK    4  A    between atoms: C_14  and  C_15
REMARK    5  A    between atoms: C_15  and  N_16
REMARK    6  A    between atoms: C_17  and  C_19
REMARK                            x       y       z     vdW  Elec       q    Type
REMARK                         _______ _______ _______ _____ _____    ______ ____
ROOT
ATOM      1  C   UNL     1      -0.536  -4.241   0.014  0.00  0.00    +0.000 A 
ATOM      2  C   UNL     1      -1.170  -5.481  -0.000  0.00  0.00    +0.000 A 
ATOM      3  C   UNL     1      -2.560  -5.527  -0.068  0.00  0.00    +0.000 A 
ATOM      4  C   UNL     1      -3.287  -4.335  -0.127  0.00  0.00    +0.000 A 
ATOM      5  C   UNL     1      -2.571  -3.145  -0.079  0.00  0.00    +0.000 A 
ATOM      6  N   UNL     1      -1.222  -3.072  -0.008  0.00  0.00    +0.000 NA
ENDROOT
BRANCH   1   7
ATOM      7  C   UNL     1       0.967  -4.155   0.105  0.00  0.00    +0.000 C 
BRANCH   7  16
ATOM      8  C   UNL     1       0.578  -3.911   4.486  0.00  0.00    +0.000 C 
ATOM      9  C   UNL     1       1.951  -4.481   4.408  0.00  0.00    +0.000 A 
ATOM     10  C   UNL     1       2.894  -4.564   5.422  0.00  0.00    +0.000 A 
ATOM     11  C   UNL     1       3.982  -5.324   4.950  0.00  0.00    +0.000 A 
ATOM     12  C   UNL     1       3.671  -5.713   3.672  0.00  0.00    +0.000 A 
ATOM     13  N   UNL     1       2.458  -5.164   3.299  0.00  0.00    +0.000 N 
ATOM     14  C   UNL     1       1.905  -5.347   2.017  0.00  0.00    +0.000 C 
ATOM     15  O   UNL     1       2.007  -6.430   1.460  0.00  0.00    +0.000 OA
ATOM     16  N   UNL     1       1.415  -4.188   1.482  0.00  0.00    +0.000 N 
ATOM     17  H   UNL     1       1.521  -3.305   1.963  0.00  0.00    +0.000 HD
ENDBRANCH   7  16
ENDBRANCH   1   7
BRANCH   4  18
ATOM     18  C   UNL     1      -4.784  -4.332  -0.189  0.00  0.00    +0.000 C 
BRANCH  18  19
ATOM     19  N   UNL     1      -5.360  -4.257   1.130  0.00  0.00    +0.000 N 
ATOM     20  C   UNL     1      -6.719  -4.155   1.295  0.00  0.00    +0.000 C 
ATOM     21  O   UNL     1      -7.476  -3.986   0.343  0.00  0.00    +0.000 OA
ATOM     22  H   UNL     1      -4.786  -4.568   1.908  0.00  0.00    +0.000 HD
BRANCH  20  23
ATOM     23  C   UNL     1      -7.226  -4.237   2.669  0.00  0.00    +0.000 A 
ATOM     24  C   UNL     1      -8.452  -3.667   2.986  0.00  0.00    +0.000 A 
ATOM     25  S   UNL     1      -8.921  -3.909   4.607  0.00  0.00    +0.000 S 
ATOM     26  C   UNL     1      -7.528  -4.832   4.928  0.00  0.00    +0.000 A 
ATOM     27  N   UNL     1      -7.347  -5.430   6.136  0.00  0.00    +0.000 NA
ATOM     28  C   UNL     1      -6.262  -6.123   6.231  0.00  0.00    +0.000 A 
ATOM     29  N   UNL     1      -5.324  -6.245   5.238  0.00  0.00    +0.000 N 
ATOM     30  C   UNL     1      -5.436  -5.611   4.024  0.00  0.00    +0.000 A 
ATOM     31  O   UNL     1      -4.531  -5.649   3.197  0.00  0.00    +0.000 OA
ATOM     32  C   UNL     1      -6.677  -4.883   3.838  0.00  0.00    +0.000 A 
ATOM     33  H   UNL     1      -4.473  -6.765   5.394  0.00  0.00    +0.000 HD
ENDBRANCH  20  23
ENDBRANCH  18  19
ENDBRANCH   4  18
TORSDOF 5
