REMARK  Name = 
REMARK  6 active torsions:
REMARK  status: ('A' for Active; 'I' for Inactive)
REMARK    1  A    between atoms: C_1  and  C_2
REMARK    2  A    between atoms: C_2  and  C_3
REMARK    3  A    between atoms: C_2  and  C_14
REMARK    4  A    between atoms: C_3  and  N_4
REMARK    5  A    between atoms: C_8  and  C_9
REMARK    6  A    between atoms: C_18  and  C_19
REMARK                            x       y       z     vdW  Elec       q    Type
REMARK                         _______ _______ _______ _____ _____    ______ ____
ROOT
ATOM      1  N   UNL     1       2.729   2.034  -1.525  0.00  0.00    +0.000 N 
ATOM      2  C   UNL     1       3.268   3.292  -1.853  0.00  0.00    +0.000 A 
ATOM      3  C   UNL     1       3.057   3.831  -3.132  0.00  0.00    +0.000 A 
ATOM      4  N   UNL     1       3.523   5.044  -3.538  0.00  0.00    +0.000 NA
ATOM      5  C   UNL     1       4.243   5.709  -2.594  0.00  0.00    +0.000 A 
ATOM      6  C   UNL     1       4.480   5.182  -1.337  0.00  0.00    +0.000 A 
ATOM      7  N   UNL     1       4.005   3.971  -0.949  0.00  0.00    +0.000 NA
ATOM      8  H   UNL     1       1.726   2.050  -1.697  0.00  0.00    +0.000 HD
ENDROOT
BRANCH   5   9
ATOM      9  C   UNL     1       4.777   7.057  -2.932  0.00  0.00    +0.000 C 
ATOM     10  N   UNL     1       4.506   7.513  -4.192  0.00  0.00    +0.000 N 
ATOM     11  O   UNL     1       5.414   7.725  -2.129  0.00  0.00    +0.000 OA
ATOM     12  H   UNL     1       3.975   6.944  -4.841  0.00  0.00    +0.000 HD
ATOM     13  H   UNL     1       4.838   8.428  -4.466  0.00  0.00    +0.000 HD
ENDBRANCH   5   9
BRANCH   1  14
ATOM     14  C   UNL     1       3.022   1.614  -0.157  0.00  0.00    +0.000 C 
BRANCH  14  16
ATOM     15  C   UNL     1       2.824  -0.911  -0.623  0.00  0.00    +0.000 C 
ATOM     16  C   UNL     1       2.309   0.312   0.072  0.00  0.00    +0.000 C 
BRANCH  16  17
ATOM     17  C   UNL     1       0.942   0.335   0.611  0.00  0.00    +0.000 A 
ATOM     18  C   UNL     1       0.647   0.998   1.810  0.00  0.00    +0.000 A 
ATOM     19  C   UNL     1      -0.670   1.083   2.271  0.00  0.00    +0.000 A 
ATOM     20  C   UNL     1      -1.706   0.513   1.532  0.00  0.00    +0.000 A 
ATOM     21  C   UNL     1      -1.422  -0.167   0.346  0.00  0.00    +0.000 A 
ATOM     22  C   UNL     1      -0.101  -0.267  -0.102  0.00  0.00    +0.000 A 
BRANCH  21  23
ATOM     23  C   UNL     1      -2.479  -0.734  -0.437  0.00  0.00    +0.000 C 
ATOM     24  N   UNL     1      -3.326  -1.184  -1.090  0.00  0.00    +0.000 NA
ENDBRANCH  21  23
ENDBRANCH  16  17
ENDBRANCH  14  16
ENDBRANCH   1  14
TORSDOF 5
