REMARK  Name = 
REMARK  5 active torsions:
REMARK  status: ('A' for Active; 'I' for Inactive)
REMARK    1  A    between atoms: N_1  and  C_2
REMARK    2  A    between atoms: C_2  and  C_3
REMARK    3  A    between atoms: C_6  and  C_7
REMARK    4  A    between atoms: C_7  and  N_8
REMARK    5  A    between atoms: C_13  and  C_14
REMARK                            x       y       z     vdW  Elec       q    Type
REMARK                         _______ _______ _______ _____ _____    ______ ____
ROOT
ATOM      1  N   UNL     1       5.342  -5.480   2.331  0.00  0.00    +0.000 N 
ATOM      2  C   UNL     1       5.192  -5.458   3.698  0.00  0.00    +0.000 A 
ATOM      3  C   UNL     1       6.430  -5.681   4.267  0.00  0.00    +0.000 A 
ATOM      4  C   UNL     1       7.362  -5.851   3.210  0.00  0.00    +0.000 A 
ATOM      5  C   UNL     1       8.737  -6.124   3.128  0.00  0.00    +0.000 A 
ATOM      6  C   UNL     1       9.311  -6.239   1.855  0.00  0.00    +0.000 A 
ATOM      7  C   UNL     1       8.493  -6.060   0.744  0.00  0.00    +0.000 A 
ATOM      8  N   UNL     1       7.165  -5.800   0.768  0.00  0.00    +0.000 NA
ATOM      9  C   UNL     1       6.660  -5.712   2.016  0.00  0.00    +0.000 A 
ENDROOT
BRANCH   6  10
ATOM     10  C   UNL     1      10.759  -6.564   1.659  0.00  0.00    +0.000 C 
ATOM     11  F   UNL     1      11.443  -6.728   2.826  0.00  0.00    +0.000 F 
ATOM     12  F   UNL     1      10.942  -7.717   0.957  0.00  0.00    +0.000 F 
ATOM     13  F   UNL     1      11.426  -5.599   0.969  0.00  0.00    +0.000 F 
ENDBRANCH   6  10
BRANCH   1  14
ATOM     14  C   UNL     1       4.252  -5.402   1.365  0.00  0.00    +0.000 C 
BRANCH  14  18
ATOM     15  C   UNL     1       3.123  -1.323   0.410  0.00  0.00    +0.000 A 
ATOM     16  C   UNL     1       4.397  -1.806   0.086  0.00  0.00    +0.000 A 
ATOM     17  C   UNL     1       4.762  -3.121   0.387  0.00  0.00    +0.000 A 
ATOM     18  C   UNL     1       3.864  -3.982   1.034  0.00  0.00    +0.000 A 
ATOM     19  C   UNL     1       2.579  -3.507   1.334  0.00  0.00    +0.000 A 
ATOM     20  C   UNL     1       2.213  -2.193   1.026  0.00  0.00    +0.000 A 
BRANCH  15  21
ATOM     21  C   UNL     1       2.752   0.112   0.135  0.00  0.00    +0.000 C 
BRANCH  21  22
ATOM     22  N   UNL     1       2.841   0.436  -1.284  0.00  0.00    +0.000 NA
ATOM     23  H   UNL     1       2.464   1.369  -1.436  0.00  0.00    +0.000 HD
ATOM     24  H   UNL     1       2.244  -0.207  -1.804  0.00  0.00    +0.000 HD
ENDBRANCH  21  22
ENDBRANCH  15  21
ENDBRANCH  14  18
ENDBRANCH   1  14
TORSDOF 5
