REMARK  Name = 
REMARK  8 active torsions:
REMARK  status: ('A' for Active; 'I' for Inactive)
REMARK    1  A    between atoms: C_2  and  C_21
REMARK    2  A    between atoms: N_3  and  C_4
REMARK    3  A    between atoms: C_4  and  C_5
REMARK    4  A    between atoms: C_8  and  C_9
REMARK    5  A    between atoms: C_9  and  C_10
REMARK    6  A    between atoms: C_10  and  O_11
REMARK    7  A    between atoms: C_10  and  C_12
REMARK    8  A    between atoms: C_12  and  C_13
REMARK                            x       y       z     vdW  Elec       q    Type
REMARK                         _______ _______ _______ _____ _____    ______ ____
ROOT
ATOM      1  C   UNL     1       3.243   1.309   3.320  0.00  0.00    +0.000 A 
ATOM      2  C   UNL     1       3.382   2.673   3.573  0.00  0.00    +0.000 A 
ATOM      3  C   UNL     1       4.242   3.103   4.578  0.00  0.00    +0.000 A 
ATOM      4  C   UNL     1       4.956   2.157   5.311  0.00  0.00    +0.000 A 
ATOM      5  N   UNL     1       4.872   0.830   5.057  0.00  0.00    +0.000 NA
ATOM      6  C   UNL     1       4.034   0.441   4.066  0.00  0.00    +0.000 A 
ENDROOT
BRANCH   1   7
ATOM      7  C   UNL     1       2.285   0.807   2.282  0.00  0.00    +0.000 C 
BRANCH   7  10
ATOM      8  O   UNL     1       2.117   2.784   0.286  0.00  0.00    +0.000 OA
ATOM      9  C   UNL     1       2.790   1.778   0.076  0.00  0.00    +0.000 C 
ATOM     10  N   UNL     1       2.886   0.754   0.975  0.00  0.00    +0.000 N 
ATOM     11  H   UNL     1       3.582   0.029   0.831  0.00  0.00    +0.000 HD
BRANCH   9  12
ATOM     12  C   UNL     1       3.503   1.590  -1.196  0.00  0.00    +0.000 A 
ATOM     13  C   UNL     1       3.086   2.275  -2.331  0.00  0.00    +0.000 A 
ATOM     14  S   UNL     1       4.032   1.946  -3.712  0.00  0.00    +0.000 S 
ATOM     15  C   UNL     1       5.057   0.911  -2.831  0.00  0.00    +0.000 A 
ATOM     16  N   UNL     1       6.128   0.316  -3.424  0.00  0.00    +0.000 NA
ATOM     17  C   UNL     1       6.843  -0.408  -2.630  0.00  0.00    +0.000 A 
ATOM     18  N   UNL     1       6.574  -0.608  -1.299  0.00  0.00    +0.000 N 
ATOM     19  C   UNL     1       5.456  -0.102  -0.683  0.00  0.00    +0.000 A 
ATOM     20  O   UNL     1       5.154  -0.430   0.460  0.00  0.00    +0.000 OA
ATOM     21  C   UNL     1       4.656   0.781  -1.514  0.00  0.00    +0.000 A 
ATOM     22  H   UNL     1       7.150  -1.220  -0.740  0.00  0.00    +0.000 HD
ENDBRANCH   9  12
ENDBRANCH   7  10
ENDBRANCH   1   7
BRANCH   4  23
ATOM     23  C   UNL     1       5.843   2.590   6.455  0.00  0.00    +0.000 C 
BRANCH  23  24
ATOM     24  C   UNL     1       7.273   2.931   6.009  0.00  0.00    +0.000 C 
BRANCH  24  25
ATOM     25  O   UNL     1       7.232   4.052   5.108  0.00  0.00    +0.000 OA
ATOM     26  H   UNL     1       6.801   4.794   5.561  0.00  0.00    +0.000 HD
ENDBRANCH  24  25
BRANCH  24  27
ATOM     27  C   UNL     1       8.144   3.289   7.229  0.00  0.00    +0.000 C 
BRANCH  27  28
ATOM     28  C   UNL     1       9.566   3.587   6.818  0.00  0.00    +0.000 A 
ATOM     29  C   UNL     1       9.942   4.887   6.481  0.00  0.00    +0.000 A 
ATOM     30  C   UNL     1      11.228   5.115   6.003  0.00  0.00    +0.000 A 
ATOM     31  C   UNL     1      12.104   4.045   5.880  0.00  0.00    +0.000 A 
ATOM     32  C   UNL     1      11.659   2.790   6.259  0.00  0.00    +0.000 A 
ATOM     33  N   UNL     1      10.418   2.536   6.728  0.00  0.00    +0.000 NA
ENDBRANCH  27  28
ENDBRANCH  24  27
ENDBRANCH  23  24
ENDBRANCH   4  23
TORSDOF 8
