REMARK  Name = 
REMARK  8 active torsions:
REMARK  status: ('A' for Active; 'I' for Inactive)
REMARK    1  A    between atoms: C_1  and  C_2
REMARK    2  A    between atoms: C_2  and  C_3
REMARK    3  A    between atoms: C_2  and  C_23
REMARK    4  A    between atoms: C_3  and  N_4
REMARK    5  A    between atoms: C_9  and  C_10
REMARK    6  A    between atoms: C_14  and  O_15
REMARK    7  A    between atoms: O_15  and  C_16
REMARK    8  A    between atoms: C_16  and  C_17
REMARK                            x       y       z     vdW  Elec       q    Type
REMARK                         _______ _______ _______ _____ _____    ______ ____
ROOT
ATOM      1  N   UNL     1       2.653  -2.375  -0.913  0.00  0.00    +0.000 N 
ATOM      2  C   UNL     1       2.936  -3.323  -1.889  0.00  0.00    +0.000 A 
ATOM      3  C   UNL     1       4.233  -3.569  -2.328  0.00  0.00    +0.000 A 
ATOM      4  C   UNL     1       4.451  -4.502  -3.331  0.00  0.00    +0.000 A 
ATOM      5  C   UNL     1       3.371  -5.206  -3.843  0.00  0.00    +0.000 A 
ATOM      6  C   UNL     1       2.095  -4.945  -3.347  0.00  0.00    +0.000 A 
ATOM      7  N   UNL     1       1.883  -4.015  -2.376  0.00  0.00    +0.000 NA
ATOM      8  H   UNL     1       1.644  -2.243  -0.895  0.00  0.00    +0.000 HD
ENDROOT
BRANCH   6   9
ATOM      9  C   UNL     1       0.902  -5.678  -3.826  0.00  0.00    +0.000 A 
ATOM     10  C   UNL     1       0.798  -6.144  -5.145  0.00  0.00    +0.000 A 
ATOM     11  C   UNL     1      -0.347  -6.816  -5.537  0.00  0.00    +0.000 A 
ATOM     12  N   UNL     1      -1.391  -7.053  -4.721  0.00  0.00    +0.000 NA
ATOM     13  C   UNL     1      -1.302  -6.603  -3.455  0.00  0.00    +0.000 A 
ATOM     14  C   UNL     1      -0.191  -5.923  -2.973  0.00  0.00    +0.000 A 
BRANCH  13  15
ATOM     15  O   UNL     1      -2.448  -6.806  -2.741  0.00  0.00    +0.000 OA
BRANCH  15  16
ATOM     16  C   UNL     1      -2.276  -7.124  -1.359  0.00  0.00    +0.000 C 
BRANCH  16  17
ATOM     17  C   UNL     1      -3.617  -7.449  -0.704  0.00  0.00    +0.000 C 
ATOM     18  F   UNL     1      -4.649  -7.470  -1.575  0.00  0.00    +0.000 F 
ATOM     19  F   UNL     1      -3.577  -8.658  -0.095  0.00  0.00    +0.000 F 
ATOM     20  F   UNL     1      -3.915  -6.534   0.251  0.00  0.00    +0.000 F 
ENDBRANCH  16  17
ENDBRANCH  15  16
ENDBRANCH  13  15
ENDBRANCH   6   9
BRANCH   1  21
ATOM     21  C   UNL     1       3.456  -1.167  -0.898  0.00  0.00    +0.000 C 
BRANCH  21  23
ATOM     22  C   UNL     1       2.291   0.041   1.060  0.00  0.00    +0.000 C 
ATOM     23  C   UNL     1       2.642  -0.022  -0.391  0.00  0.00    +0.000 C 
BRANCH  23  24
ATOM     24  C   UNL     1       2.022   0.913  -1.341  0.00  0.00    +0.000 A 
ATOM     25  C   UNL     1       2.019   2.292  -1.097  0.00  0.00    +0.000 A 
ATOM     26  C   UNL     1       1.399   3.170  -1.990  0.00  0.00    +0.000 A 
ATOM     27  C   UNL     1       0.772   2.678  -3.133  0.00  0.00    +0.000 A 
ATOM     28  C   UNL     1       0.785   1.312  -3.396  0.00  0.00    +0.000 A 
ATOM     29  C   UNL     1       1.415   0.436  -2.511  0.00  0.00    +0.000 A 
ENDBRANCH  23  24
ENDBRANCH  21  23
ENDBRANCH   1  21
TORSDOF 7
