REMARK  Name = 
REMARK  7 active torsions:
REMARK  status: ('A' for Active; 'I' for Inactive)
REMARK    1  A    between atoms: C_1  and  C_2
REMARK    2  A    between atoms: C_2  and  N_3
REMARK    3  A    between atoms: C_2  and  C_21
REMARK    4  A    between atoms: C_4  and  C_6
REMARK    5  A    between atoms: C_9  and  C_10
REMARK    6  A    between atoms: C_10  and  N_11
REMARK    7  A    between atoms: C_12  and  C_14
REMARK                            x       y       z     vdW  Elec       q    Type
REMARK                         _______ _______ _______ _____ _____    ______ ____
ROOT
ATOM      1  N   UNL     1       3.263   1.327  -0.120  0.00  0.00    +0.000 N 
ATOM      2  C   UNL     1       2.746   2.337  -0.906  0.00  0.00    +0.000 C 
ATOM      3  O   UNL     1       1.875   2.170  -1.753  0.00  0.00    +0.000 OA
ATOM      4  H   UNL     1       3.715   1.617   0.743  0.00  0.00    +0.000 HD
ENDROOT
BRANCH   2   5
ATOM      5  C   UNL     1       3.296   3.704  -0.665  0.00  0.00    +0.000 A 
ATOM      6  C   UNL     1       4.629   3.888  -0.281  0.00  0.00    +0.000 A 
ATOM      7  C   UNL     1       5.141   5.180  -0.106  0.00  0.00    +0.000 A 
ATOM      8  C   UNL     1       4.327   6.306  -0.302  0.00  0.00    +0.000 A 
ATOM      9  C   UNL     1       2.998   6.114  -0.708  0.00  0.00    +0.000 A 
ATOM     10  C   UNL     1       2.486   4.823  -0.889  0.00  0.00    +0.000 A 
BRANCH   8  11
ATOM     11  C   UNL     1       4.882   7.695  -0.109  0.00  0.00    +0.000 C 
BRANCH  11  12
ATOM     12  N   UNL     1       5.470   8.209  -1.323  0.00  0.00    +0.000 N 
ATOM     13  C   UNL     1       5.976   9.487  -1.383  0.00  0.00    +0.000 C 
ATOM     14  O   UNL     1       5.944  10.253  -0.424  0.00  0.00    +0.000 OA
ATOM     15  H   UNL     1       5.565   7.591  -2.112  0.00  0.00    +0.000 HD
BRANCH  13  16
ATOM     16  C   UNL     1       6.552   9.864  -2.644  0.00  0.00    +0.000 A 
ATOM     17  C   UNL     1       6.690   9.213  -3.859  0.00  0.00    +0.000 A 
ATOM     18  C   UNL     1       7.344  10.131  -4.698  0.00  0.00    +0.000 A 
ATOM     19  N   UNL     1       7.608  11.282  -4.081  0.00  0.00    +0.000 NA
ATOM     20  N   UNL     1       7.115  11.097  -2.844  0.00  0.00    +0.000 N 
ATOM     21  H   UNL     1       7.189  11.851  -2.164  0.00  0.00    +0.000 HD
ENDBRANCH  13  16
ENDBRANCH  11  12
ENDBRANCH   8  11
ENDBRANCH   2   5
BRANCH   1  23
ATOM     22  C   UNL     1       1.327  -0.210   0.191  0.00  0.00    +0.000 C 
ATOM     23  C   UNL     1       2.797  -0.042  -0.210  0.00  0.00    +0.000 C 
BRANCH  23  24
ATOM     24  C   UNL     1       3.666  -0.985   0.613  0.00  0.00    +0.000 A 
ATOM     25  C   UNL     1       3.953  -2.272   0.177  0.00  0.00    +0.000 A 
ATOM     26  S   UNL     1       4.774  -3.222   1.331  0.00  0.00    +0.000 S 
ATOM     27  C   UNL     1       4.802  -1.943   2.451  0.00  0.00    +0.000 A 
ATOM     28  N   UNL     1       5.347  -2.108   3.686  0.00  0.00    +0.000 NA
ATOM     29  C   UNL     1       5.302  -1.058   4.435  0.00  0.00    +0.000 A 
ATOM     30  N   UNL     1       4.770   0.148   4.057  0.00  0.00    +0.000 N 
ATOM     31  C   UNL     1       4.251   0.375   2.803  0.00  0.00    +0.000 A 
ATOM     32  O   UNL     1       3.900   1.498   2.453  0.00  0.00    +0.000 OA
ATOM     33  C   UNL     1       4.224  -0.793   1.939  0.00  0.00    +0.000 A 
ATOM     34  H   UNL     1       4.815   0.946   4.673  0.00  0.00    +0.000 HD
ENDBRANCH  23  24
ENDBRANCH   1  23
TORSDOF 6
