REMARK  Name = 
REMARK  5 active torsions:
REMARK  status: ('A' for Active; 'I' for Inactive)
REMARK    1  A    between atoms: C_7  and  C_8
REMARK    2  A    between atoms: N_10  and  C_11
REMARK    3  A    between atoms: C_11  and  C_12
REMARK    4  A    between atoms: C_15  and  C_16
REMARK    5  A    between atoms: C_16  and  N_17
REMARK                            x       y       z     vdW  Elec       q    Type
REMARK                         _______ _______ _______ _____ _____    ______ ____
ROOT
ATOM      1  C   UNL     1      -2.351  -2.907  -1.441  0.00  0.00    +0.000 C 
ATOM      2  O   UNL     1      -1.495  -2.369  -0.734  0.00  0.00    +0.000 OA
ATOM      3  N   UNL     1      -3.143  -3.928  -0.981  0.00  0.00    +0.000 N 
ATOM      4  H   UNL     1      -3.870  -4.313  -1.574  0.00  0.00    +0.000 HD
ENDROOT
BRANCH   1  11
ATOM      5  N   UNL     1      -5.420  -3.444  -7.405  0.00  0.00    +0.000 N 
ATOM      6  C   UNL     1      -4.742  -3.216  -6.251  0.00  0.00    +0.000 A 
ATOM      7  N   UNL     1      -3.803  -2.313  -6.208  0.00  0.00    +0.000 NA
ATOM      8  C   UNL     1      -3.209  -2.200  -4.997  0.00  0.00    +0.000 A 
ATOM      9  N   UNL     1      -2.208  -1.315  -4.734  0.00  0.00    +0.000 N 
ATOM     10  C   UNL     1      -1.812  -1.469  -3.430  0.00  0.00    +0.000 A 
ATOM     11  C   UNL     1      -2.566  -2.475  -2.828  0.00  0.00    +0.000 A 
ATOM     12  C   UNL     1      -3.477  -2.906  -3.843  0.00  0.00    +0.000 A 
ATOM     13  C   UNL     1      -4.545  -3.870  -3.908  0.00  0.00    +0.000 A 
ATOM     14  O   UNL     1      -4.942  -4.522  -2.947  0.00  0.00    +0.000 OA
ATOM     15  N   UNL     1      -5.104  -3.986  -5.168  0.00  0.00    +0.000 N 
ATOM     16  H   UNL     1      -4.961  -3.027  -8.209  0.00  0.00    +0.000 HD
ATOM     17  H   UNL     1      -5.741  -4.387  -7.578  0.00  0.00    +0.000 HD
ATOM     18  H   UNL     1      -1.829  -0.663  -5.405  0.00  0.00    +0.000 HD
ATOM     19  H   UNL     1      -5.876  -4.626  -5.246  0.00  0.00    +0.000 HD
ENDBRANCH   1  11
BRANCH   3  20
ATOM     20  C   UNL     1      -3.024  -4.462   0.362  0.00  0.00    +0.000 C 
BRANCH  20  21
ATOM     21  C   UNL     1      -2.067  -5.628   0.449  0.00  0.00    +0.000 A 
ATOM     22  C   UNL     1      -0.706  -5.408   0.699  0.00  0.00    +0.000 A 
ATOM     23  C   UNL     1       0.195  -6.478   0.757  0.00  0.00    +0.000 A 
ATOM     24  C   UNL     1      -0.245  -7.795   0.563  0.00  0.00    +0.000 A 
ATOM     25  C   UNL     1      -1.610  -8.021   0.349  0.00  0.00    +0.000 A 
ATOM     26  C   UNL     1      -2.510  -6.948   0.282  0.00  0.00    +0.000 A 
BRANCH  24  27
ATOM     27  C   UNL     1       0.747  -8.936   0.554  0.00  0.00    +0.000 C 
BRANCH  27  28
ATOM     28  N   UNL     1       0.917  -9.484   1.885  0.00  0.00    +0.000 N 
ATOM     29  C   UNL     1       1.826 -10.535   1.924  0.00  0.00    +0.000 A 
ATOM     30  N   UNL     1       2.867 -10.551   1.075  0.00  0.00    +0.000 NA
ATOM     31  C   UNL     1       3.697 -11.606   1.130  0.00  0.00    +0.000 A 
ATOM     32  C   UNL     1       3.532 -12.651   2.001  0.00  0.00    +0.000 A 
ATOM     33  C   UNL     1       2.448 -12.542   2.837  0.00  0.00    +0.000 A 
ATOM     34  N   UNL     1       1.583 -11.507   2.812  0.00  0.00    +0.000 NA
ATOM     35  H   UNL     1       0.069  -9.815   2.330  0.00  0.00    +0.000 HD
ENDBRANCH  27  28
ENDBRANCH  24  27
ENDBRANCH  20  21
ENDBRANCH   3  20
TORSDOF 5
