REMARK  Name = 
REMARK  10 active torsions:
REMARK  status: ('A' for Active; 'I' for Inactive)
REMARK    1  A    between atoms: C_1  and  O_2
REMARK    2  A    between atoms: O_2  and  C_3
REMARK    3  A    between atoms: C_6  and  C_7
REMARK    4  A    between atoms: N_9  and  C_10
REMARK    5  A    between atoms: N_9  and  C_11
REMARK    6  A    between atoms: C_11  and  C_12
REMARK    7  A    between atoms: C_11  and  C_13
REMARK    8  A    between atoms: C_16  and  C_17
REMARK    9  A    between atoms: C_17  and  N_18
REMARK   10  A    between atoms: C_19  and  C_21
REMARK                            x       y       z     vdW  Elec       q    Type
REMARK                         _______ _______ _______ _____ _____    ______ ____
ROOT
ATOM      1  C   UNL     1       5.527   6.101  -5.401  0.00  0.00    +0.000 A 
ATOM      2  C   UNL     1       4.163   6.317  -5.644  0.00  0.00    +0.000 A 
ATOM      3  C   UNL     1       3.674   7.601  -5.915  0.00  0.00    +0.000 A 
ATOM      4  C   UNL     1       4.534   8.706  -5.933  0.00  0.00    +0.000 A 
ATOM      5  C   UNL     1       5.892   8.501  -5.676  0.00  0.00    +0.000 A 
ATOM      6  C   UNL     1       6.386   7.213  -5.452  0.00  0.00    +0.000 A 
ENDROOT
BRANCH   1   7
ATOM      7  C   UNL     1       6.028   4.689  -5.076  0.00  0.00    +0.000 C 
ATOM      8  C   UNL     1       7.170   4.273  -6.016  0.00  0.00    +0.000 C 
BRANCH   7  11
ATOM      9  C   UNL     1       6.279   3.139  -3.153  0.00  0.00    +0.000 C 
ATOM     10  O   UNL     1       6.089   2.179  -3.905  0.00  0.00    +0.000 OA
ATOM     11  N   UNL     1       6.366   4.460  -3.644  0.00  0.00    +0.000 N 
ATOM     12  C   UNL     1       6.811   5.594  -2.837  0.00  0.00    +0.000 C 
BRANCH   9  16
ATOM     13  C   UNL     1       6.683   2.398   0.977  0.00  0.00    +0.000 A 
ATOM     14  C   UNL     1       6.992   1.367   0.110  0.00  0.00    +0.000 A 
ATOM     15  C   UNL     1       6.857   1.590  -1.261  0.00  0.00    +0.000 A 
ATOM     16  C   UNL     1       6.417   2.837  -1.692  0.00  0.00    +0.000 A 
ATOM     17  N   UNL     1       6.063   3.796  -0.807  0.00  0.00    +0.000 NA
ATOM     18  N   UNL     1       6.224   3.587   0.536  0.00  0.00    +0.000 NA
BRANCH  13  20
ATOM     19  C   UNL     1       6.612   3.340   3.112  0.00  0.00    +0.000 C 
ATOM     20  O   UNL     1       6.860   2.175   2.326  0.00  0.00    +0.000 OA
ENDBRANCH  13  20
ENDBRANCH   9  16
ENDBRANCH   7  11
ENDBRANCH   1   7
BRANCH   4  21
ATOM     21  C   UNL     1       4.011  10.094  -6.190  0.00  0.00    +0.000 C 
BRANCH  21  22
ATOM     22  N   UNL     1       3.570  10.720  -4.970  0.00  0.00    +0.000 N 
ATOM     23  C   UNL     1       2.963  11.951  -4.988  0.00  0.00    +0.000 C 
ATOM     24  O   UNL     1       2.732  12.545  -6.035  0.00  0.00    +0.000 OA
ATOM     25  H   UNL     1       3.952  10.363  -4.100  0.00  0.00    +0.000 HD
BRANCH  23  26
ATOM     26  C   UNL     1       2.546  12.498  -3.691  0.00  0.00    +0.000 A 
ATOM     27  C   UNL     1       1.539  13.453  -3.643  0.00  0.00    +0.000 A 
ATOM     28  S   UNL     1       1.131  13.939  -2.061  0.00  0.00    +0.000 S 
ATOM     29  C   UNL     1       2.324  12.933  -1.386  0.00  0.00    +0.000 A 
ATOM     30  N   UNL     1       2.521  12.889  -0.040  0.00  0.00    +0.000 NA
ATOM     31  C   UNL     1       3.471  12.100   0.334  0.00  0.00    +0.000 A 
ATOM     32  N   UNL     1       4.243  11.351  -0.514  0.00  0.00    +0.000 N 
ATOM     33  C   UNL     1       4.068  11.347  -1.877  0.00  0.00    +0.000 A 
ATOM     34  O   UNL     1       4.762  10.643  -2.607  0.00  0.00    +0.000 OA
ATOM     35  C   UNL     1       3.013  12.220  -2.353  0.00  0.00    +0.000 A 
ATOM     36  H   UNL     1       4.972  10.752  -0.155  0.00  0.00    +0.000 HD
ENDBRANCH  23  26
ENDBRANCH  21  22
ENDBRANCH   4  21
TORSDOF 7
