REMARK  Name = 
REMARK  6 active torsions:
REMARK  status: ('A' for Active; 'I' for Inactive)
REMARK    1  A    between atoms: C_2  and  C_25
REMARK    2  A    between atoms: N_3  and  C_4
REMARK    3  A    between atoms: C_4  and  C_5
REMARK    4  A    between atoms: C_8  and  C_9
REMARK    5  A    between atoms: C_9  and  N_10
REMARK    6  A    between atoms: C_11  and  C_13
REMARK                            x       y       z     vdW  Elec       q    Type
REMARK                         _______ _______ _______ _____ _____    ______ ____
ROOT
ATOM      1  C   UNL     1       3.275   3.230  -2.051  0.00  0.00    +0.000 C 
ATOM      2  C   UNL     1       4.672   2.840  -1.556  0.00  0.00    +0.000 C 
ATOM      3  C   UNL     1       5.740   3.845  -1.974  0.00  0.00    +0.000 C 
ATOM      4  C   UNL     1       5.416   5.283  -1.533  0.00  0.00    +0.000 C 
ATOM      5  C   UNL     1       3.996   5.682  -1.966  0.00  0.00    +0.000 C 
ATOM      6  C   UNL     1       2.948   4.647  -1.550  0.00  0.00    +0.000 C 
ENDROOT
BRANCH   1   7
ATOM      7  C   UNL     1       3.137   3.140  -3.583  0.00  0.00    +0.000 C 
BRANCH   7  10
ATOM      8  O   UNL     1       1.187   1.108  -3.835  0.00  0.00    +0.000 OA
ATOM      9  C   UNL     1       2.338   0.882  -4.199  0.00  0.00    +0.000 C 
ATOM     10  N   UNL     1       3.348   1.809  -4.103  0.00  0.00    +0.000 N 
ATOM     11  H   UNL     1       4.218   1.620  -4.579  0.00  0.00    +0.000 HD
BRANCH   9  12
ATOM     12  C   UNL     1       2.733  -0.380  -4.784  0.00  0.00    +0.000 A 
ATOM     13  C   UNL     1       3.983  -0.876  -5.131  0.00  0.00    +0.000 A 
ATOM     14  C   UNL     1       3.811  -2.177  -5.658  0.00  0.00    +0.000 A 
ATOM     15  C   UNL     1       2.466  -2.456  -5.624  0.00  0.00    +0.000 A 
ATOM     16  N   UNL     1       1.821  -1.368  -5.096  0.00  0.00    +0.000 N 
ATOM     17  H   UNL     1       0.822  -1.279  -4.951  0.00  0.00    +0.000 HD
ENDBRANCH   9  12
ENDBRANCH   7  10
ENDBRANCH   1   7
BRANCH   4  18
ATOM     18  C   UNL     1       6.437   6.290  -2.095  0.00  0.00    +0.000 C 
BRANCH  18  19
ATOM     19  N   UNL     1       7.789   6.038  -1.643  0.00  0.00    +0.000 N 
ATOM     20  C   UNL     1       8.831   6.850  -2.024  0.00  0.00    +0.000 C 
ATOM     21  O   UNL     1       8.664   7.851  -2.716  0.00  0.00    +0.000 OA
ATOM     22  H   UNL     1       8.020   5.099  -1.336  0.00  0.00    +0.000 HD
BRANCH  20  23
ATOM     23  C   UNL     1      10.154   6.492  -1.498  0.00  0.00    +0.000 A 
ATOM     24  C   UNL     1      11.105   7.482  -1.297  0.00  0.00    +0.000 A 
ATOM     25  S   UNL     1      12.568   6.899  -0.640  0.00  0.00    +0.000 S 
ATOM     26  C   UNL     1      11.998   5.296  -0.649  0.00  0.00    +0.000 A 
ATOM     27  N   UNL     1      12.783   4.269  -0.232  0.00  0.00    +0.000 NA
ATOM     28  C   UNL     1      12.234   3.103  -0.317  0.00  0.00    +0.000 A 
ATOM     29  N   UNL     1      10.961   2.872  -0.778  0.00  0.00    +0.000 N 
ATOM     30  C   UNL     1      10.134   3.882  -1.196  0.00  0.00    +0.000 A 
ATOM     31  O   UNL     1       8.992   3.648  -1.583  0.00  0.00    +0.000 OA
ATOM     32  C   UNL     1      10.703   5.210  -1.126  0.00  0.00    +0.000 A 
ATOM     33  H   UNL     1      10.586   1.938  -0.815  0.00  0.00    +0.000 HD
ENDBRANCH  20  23
ENDBRANCH  18  19
ENDBRANCH   4  18
TORSDOF 6
