REMARK  Name = 
REMARK  6 active torsions:
REMARK  status: ('A' for Active; 'I' for Inactive)
REMARK    1  A    between atoms: C_1  and  C_2
REMARK    2  A    between atoms: C_2  and  C_3
REMARK    3  A    between atoms: C_2  and  N_4
REMARK    4  A    between atoms: C_2  and  C_14
REMARK    5  A    between atoms: N_4  and  C_5
REMARK    6  A    between atoms: C_8  and  C_9
REMARK                            x       y       z     vdW  Elec       q    Type
REMARK                         _______ _______ _______ _____ _____    ______ ____
ROOT
ATOM      1  N   UNL     1       2.789  -0.556   1.303  0.00  0.00    +0.000 N 
ATOM      2  H   UNL     1       3.705  -1.007   1.297  0.00  0.00    +0.000 HD
ENDROOT
BRANCH   1   3
ATOM      3  C   UNL     1       2.444  -0.091   2.568  0.00  0.00    +0.000 A 
ATOM      4  C   UNL     1       1.568   0.943   2.849  0.00  0.00    +0.000 A 
ATOM      5  N   UNL     1       1.229   1.395   4.072  0.00  0.00    +0.000 NA
ATOM      6  C   UNL     1       1.772   0.719   5.102  0.00  0.00    +0.000 A 
ATOM      7  N   UNL     1       2.572  -0.355   4.997  0.00  0.00    +0.000 NA
ATOM      8  C   UNL     1       2.864  -0.737   3.727  0.00  0.00    +0.000 A 
BRANCH   6   9
ATOM      9  C   UNL     1       1.465   1.299   6.462  0.00  0.00    +0.000 C 
ATOM     10  N   UNL     1       0.715   2.457   6.433  0.00  0.00    +0.000 N 
ATOM     11  O   UNL     1       1.847   0.822   7.522  0.00  0.00    +0.000 OA
ATOM     12  H   UNL     1       0.431   2.843   5.539  0.00  0.00    +0.000 HD
ATOM     13  H   UNL     1       0.490   2.932   7.293  0.00  0.00    +0.000 HD
ENDBRANCH   6   9
ENDBRANCH   1   3
BRANCH   1  15
ATOM     14  C   UNL     1       0.987   0.124  -0.270  0.00  0.00    +0.000 C 
ATOM     15  C   UNL     1       2.507   0.135   0.019  0.00  0.00    +0.000 C 
ATOM     16  C   UNL     1       3.061   1.575   0.060  0.00  0.00    +0.000 C 
BRANCH  15  17
ATOM     17  C   UNL     1       3.175  -0.686  -1.118  0.00  0.00    +0.000 A 
ATOM     18  C   UNL     1       4.060  -0.102  -2.048  0.00  0.00    +0.000 A 
ATOM     19  C   UNL     1       4.625  -0.845  -3.089  0.00  0.00    +0.000 A 
ATOM     20  C   UNL     1       4.310  -2.190  -3.227  0.00  0.00    +0.000 A 
ATOM     21 CL   UNL     1       5.009  -3.101  -4.506  0.00  0.00    +0.000 Cl
ATOM     22  C   UNL     1       3.430  -2.796  -2.335  0.00  0.00    +0.000 A 
ATOM     23  C   UNL     1       2.872  -2.053  -1.288  0.00  0.00    +0.000 A 
ENDBRANCH  15  17
ENDBRANCH   1  15
TORSDOF 4
