REMARK  Name = 
REMARK  4 active torsions:
REMARK  status: ('A' for Active; 'I' for Inactive)
REMARK    1  A    between atoms: C_2  and  C_4
REMARK    2  A    between atoms: N_8  and  C_9
REMARK    3  A    between atoms: C_9  and  C_10
REMARK    4  A    between atoms: C_14  and  C_15
REMARK                            x       y       z     vdW  Elec       q    Type
REMARK                         _______ _______ _______ _____ _____    ______ ____
ROOT
ATOM      1  C   UNL     1       7.635   1.521   0.899  0.00  0.00    +0.000 A 
ATOM      2  C   UNL     1       7.259   0.939   2.103  0.00  0.00    +0.000 A 
ATOM      3  C   UNL     1       6.414   1.641   2.965  0.00  0.00    +0.000 A 
ATOM      4  C   UNL     1       5.983   2.918   2.622  0.00  0.00    +0.000 A 
ATOM      5  N   UNL     1       5.091   3.649   3.371  0.00  0.00    +0.000 N 
ATOM      6  N   UNL     1       6.356   3.496   1.462  0.00  0.00    +0.000 NA
ATOM      7  C   UNL     1       7.175   2.799   0.632  0.00  0.00    +0.000 A 
ATOM      8  H   UNL     1       5.017   4.576   2.967  0.00  0.00    +0.000 HD
ENDROOT
BRANCH   1  10
ATOM      9  N   UNL     1       8.505  -0.530  -0.071  0.00  0.00    +0.000 N 
ATOM     10  C   UNL     1       8.503   0.841  -0.083  0.00  0.00    +0.000 C 
ATOM     11  O   UNL     1       9.164   1.467  -0.899  0.00  0.00    +0.000 OA
ATOM     12  H   UNL     1       9.026  -0.985  -0.810  0.00  0.00    +0.000 HD
ATOM     13  H   UNL     1       7.809  -1.077   0.414  0.00  0.00    +0.000 HD
ENDBRANCH   1  10
BRANCH   5  14
ATOM     14  C   UNL     1       5.014   3.572   4.813  0.00  0.00    +0.000 C 
BRANCH  14  15
ATOM     15  C   UNL     1       5.970   4.510   5.513  0.00  0.00    +0.000 A 
ATOM     16  C   UNL     1       5.876   5.894   5.332  0.00  0.00    +0.000 A 
ATOM     17  C   UNL     1       6.675   6.757   6.078  0.00  0.00    +0.000 A 
ATOM     18  C   UNL     1       7.563   6.246   7.028  0.00  0.00    +0.000 A 
ATOM     19  C   UNL     1       7.677   4.863   7.256  0.00  0.00    +0.000 A 
ATOM     20  C   UNL     1       6.887   4.011   6.459  0.00  0.00    +0.000 A 
BRANCH  19  21
ATOM     21  C   UNL     1       8.522   4.329   8.346  0.00  0.00    +0.000 A 
ATOM     22  C   UNL     1       8.638   4.989   9.580  0.00  0.00    +0.000 A 
ATOM     23  C   UNL     1       9.378   4.434  10.624  0.00  0.00    +0.000 A 
ATOM     24  C   UNL     1       9.992   3.214  10.414  0.00  0.00    +0.000 A 
ATOM     25  N   UNL     1       9.929   2.541   9.248  0.00  0.00    +0.000 NA
ATOM     26  C   UNL     1       9.207   3.115   8.250  0.00  0.00    +0.000 A 
ENDBRANCH  19  21
ENDBRANCH  14  15
ENDBRANCH   5  14
TORSDOF 4
