REMARK  Name = 
REMARK  7 active torsions:
REMARK  status: ('A' for Active; 'I' for Inactive)
REMARK    1  A    between atoms: C_2  and  C_20
REMARK    2  A    between atoms: N_3  and  C_4
REMARK    3  A    between atoms: C_4  and  C_5
REMARK    4  A    between atoms: C_8  and  C_9
REMARK    5  A    between atoms: C_9  and  O_10
REMARK    6  A    between atoms: O_10  and  C_11
REMARK    7  A    between atoms: C_11  and  C_12
REMARK                            x       y       z     vdW  Elec       q    Type
REMARK                         _______ _______ _______ _____ _____    ______ ____
ROOT
ATOM      1  C   UNL     1       2.355   1.096  -2.166  0.00  0.00    +0.000 C 
ENDROOT
BRANCH   1   2
ATOM      2  C   UNL     1       3.333   1.656  -3.204  0.00  0.00    +0.000 C 
ATOM      3  C   UNL     1       4.681   0.914  -3.183  0.00  0.00    +0.000 C 
ATOM      4  C   UNL     1       5.675   1.510  -4.174  0.00  0.00    +0.000 C 
ATOM      5  C   UNL     1       5.877   3.005  -3.914  0.00  0.00    +0.000 C 
ATOM      6  C   UNL     1       4.535   3.752  -3.950  0.00  0.00    +0.000 C 
ATOM      7  C   UNL     1       3.528   3.158  -2.974  0.00  0.00    +0.000 C 
BRANCH   5   8
ATOM      8  C   UNL     1       6.855   3.593  -4.930  0.00  0.00    +0.000 C 
BRANCH   8   9
ATOM      9  O   UNL     1       7.033   4.975  -4.645  0.00  0.00    +0.000 OA
BRANCH   9  10
ATOM     10  C   UNL     1       7.922   5.588  -5.573  0.00  0.00    +0.000 C 
BRANCH  10  11
ATOM     11  C   UNL     1       8.064   7.049  -5.252  0.00  0.00    +0.000 A 
ATOM     12  C   UNL     1       7.943   7.531  -3.944  0.00  0.00    +0.000 A 
ATOM     13  C   UNL     1       8.121   8.882  -3.710  0.00  0.00    +0.000 A 
ATOM     14  N   UNL     1       8.422   9.779  -4.676  0.00  0.00    +0.000 NA
ATOM     15  C   UNL     1       8.541   9.294  -5.930  0.00  0.00    +0.000 A 
ATOM     16  C   UNL     1       8.380   7.960  -6.264  0.00  0.00    +0.000 A 
ENDBRANCH  10  11
ENDBRANCH   9  10
ENDBRANCH   8   9
ENDBRANCH   5   8
ENDBRANCH   1   2
BRANCH   1  19
ATOM     17  O   UNL     1       0.194   0.078  -3.725  0.00  0.00    +0.000 OA
ATOM     18  C   UNL     1       0.954  -0.698  -3.148  0.00  0.00    +0.000 C 
ATOM     19  N   UNL     1       2.051  -0.287  -2.444  0.00  0.00    +0.000 N 
ATOM     20  H   UNL     1       2.684  -0.979  -2.063  0.00  0.00    +0.000 HD
BRANCH  18  21
ATOM     21  C   UNL     1       0.773  -2.148  -3.210  0.00  0.00    +0.000 A 
ATOM     22  C   UNL     1       0.195  -2.760  -4.312  0.00  0.00    +0.000 A 
ATOM     23  S   UNL     1       0.079  -4.458  -4.153  0.00  0.00    +0.000 S 
ATOM     24  C   UNL     1       0.782  -4.422  -2.601  0.00  0.00    +0.000 A 
ATOM     25  N   UNL     1       0.970  -5.563  -1.887  0.00  0.00    +0.000 NA
ATOM     26  C   UNL     1       1.535  -5.384  -0.736  0.00  0.00    +0.000 A 
ATOM     27  N   UNL     1       1.927  -4.169  -0.238  0.00  0.00    +0.000 N 
ATOM     28  C   UNL     1       1.718  -2.987  -0.899  0.00  0.00    +0.000 A 
ATOM     29  O   UNL     1       2.061  -1.924  -0.400  0.00  0.00    +0.000 OA
ATOM     30  C   UNL     1       1.111  -3.138  -2.215  0.00  0.00    +0.000 A 
ATOM     31  H   UNL     1       2.368  -4.092   0.665  0.00  0.00    +0.000 HD
ENDBRANCH  18  21
ENDBRANCH   1  19
TORSDOF 7
