REMARK  Name = 
REMARK  7 active torsions:
REMARK  status: ('A' for Active; 'I' for Inactive)
REMARK    1  A    between atoms: C_2  and  C_15
REMARK    2  A    between atoms: N_3  and  C_4
REMARK    3  A    between atoms: C_4  and  C_5
REMARK    4  A    between atoms: N_8  and  C_9
REMARK    5  A    between atoms: C_9  and  C_10
REMARK    6  A    between atoms: C_10  and  C_11
REMARK    7  A    between atoms: C_11  and  O_12
REMARK                            x       y       z     vdW  Elec       q    Type
REMARK                         _______ _______ _______ _____ _____    ______ ____
ROOT
ATOM      1  O   UNL     1      -0.192  -0.172  -1.791  0.00  0.00    +0.000 OA
ATOM      2  C   UNL     1       0.745   0.391  -2.346  0.00  0.00    +0.000 C 
ATOM      3  N   UNL     1       1.978  -0.197  -2.492  0.00  0.00    +0.000 N 
ATOM      4  H   UNL     1       2.761   0.385  -2.773  0.00  0.00    +0.000 HD
ENDROOT
BRANCH   2   5
ATOM      5  C   UNL     1       0.599   1.718  -2.955  0.00  0.00    +0.000 A 
ATOM      6  C   UNL     1      -0.656   2.159  -3.347  0.00  0.00    +0.000 A 
ATOM      7  S   UNL     1      -0.640   3.710  -4.057  0.00  0.00    +0.000 S 
ATOM      8  C   UNL     1       1.038   3.864  -3.821  0.00  0.00    +0.000 A 
ATOM      9  N   UNL     1       1.698   4.995  -4.188  0.00  0.00    +0.000 NA
ATOM     10  C   UNL     1       2.961   4.989  -3.918  0.00  0.00    +0.000 A 
ATOM     11  N   UNL     1       3.627   3.950  -3.318  0.00  0.00    +0.000 N 
ATOM     12  C   UNL     1       3.013   2.766  -2.986  0.00  0.00    +0.000 A 
ATOM     13  O   UNL     1       3.658   1.819  -2.547  0.00  0.00    +0.000 OA
ATOM     14  C   UNL     1       1.584   2.735  -3.236  0.00  0.00    +0.000 A 
ATOM     15  H   UNL     1       4.621   4.000  -3.158  0.00  0.00    +0.000 HD
ENDBRANCH   2   5
BRANCH   3  16
ATOM     16  C   UNL     1       2.313  -1.477  -1.912  0.00  0.00    +0.000 C 
BRANCH  16  17
ATOM     17  C   UNL     1       3.352  -2.218  -2.769  0.00  0.00    +0.000 C 
ATOM     18  C   UNL     1       2.852  -2.487  -4.195  0.00  0.00    +0.000 C 
ATOM     19  C   UNL     1       1.755  -3.549  -4.229  0.00  0.00    +0.000 C 
ATOM     20  N   UNL     1       2.222  -4.808  -3.626  0.00  0.00    +0.000 NA
ATOM     21  C   UNL     1       2.646  -4.606  -2.231  0.00  0.00    +0.000 C 
ATOM     22  C   UNL     1       3.751  -3.550  -2.125  0.00  0.00    +0.000 C 
BRANCH  20  23
ATOM     23  C   UNL     1       1.199  -5.864  -3.702  0.00  0.00    +0.000 C 
BRANCH  23  24
ATOM     24  C   UNL     1       0.815  -6.270  -5.131  0.00  0.00    +0.000 C 
BRANCH  24  25
ATOM     25  C   UNL     1       2.006  -6.742  -5.957  0.00  0.00    +0.000 C 
BRANCH  25  26
ATOM     26  O   UNL     1       1.581  -7.053  -7.281  0.00  0.00    +0.000 OA
ATOM     27  H   UNL     1       0.872  -7.715  -7.214  0.00  0.00    +0.000 HD
ENDBRANCH  25  26
ENDBRANCH  24  25
ENDBRANCH  23  24
ENDBRANCH  20  23
ENDBRANCH  16  17
ENDBRANCH   3  16
TORSDOF 7
