REMARK  Name = 
REMARK  8 active torsions:
REMARK  status: ('A' for Active; 'I' for Inactive)
REMARK    1  A    between atoms: C_1  and  C_2
REMARK    2  A    between atoms: C_2  and  C_3
REMARK    3  A    between atoms: C_2  and  C_14
REMARK    4  A    between atoms: C_3  and  N_4
REMARK    5  A    between atoms: N_4  and  C_5
REMARK    6  A    between atoms: C_8  and  C_9
REMARK    7  A    between atoms: C_18  and  N_19
REMARK    8  A    between atoms: N_22  and  C_23
REMARK                            x       y       z     vdW  Elec       q    Type
REMARK                         _______ _______ _______ _____ _____    ______ ____
ROOT
ATOM      1  C   UNL     1       2.859   0.290  -1.450  0.00  0.00    +0.000 C 
ATOM      2  C   UNL     1       2.599  -0.013   0.030  0.00  0.00    +0.000 C 
ENDROOT
BRANCH   2   3
ATOM      3  C   UNL     1       3.094  -1.415   0.387  0.00  0.00    +0.000 A 
ATOM      4  C   UNL     1       4.101  -1.604   1.338  0.00  0.00    +0.000 A 
ATOM      5  C   UNL     1       4.496  -2.894   1.694  0.00  0.00    +0.000 A 
ATOM      6  C   UNL     1       3.875  -4.009   1.123  0.00  0.00    +0.000 A 
ATOM      7  C   UNL     1       2.849  -3.868   0.183  0.00  0.00    +0.000 A 
ATOM      8  C   UNL     1       2.507  -2.558  -0.192  0.00  0.00    +0.000 A 
BRANCH   7   9
ATOM      9  N   UNL     1       2.140  -4.964  -0.264  0.00  0.00    +0.000 N 
ATOM     10  C   UNL     1       0.746  -4.833  -0.707  0.00  0.00    +0.000 C 
ATOM     11  C   UNL     1      -0.048  -6.079  -0.264  0.00  0.00    +0.000 C 
ATOM     12  N   UNL     1       0.540  -7.334  -0.779  0.00  0.00    +0.000 NA
ATOM     13  C   UNL     1      -0.236  -8.480  -0.312  0.00  0.00    +0.000 C 
ATOM     14  C   UNL     1       1.951  -7.431  -0.332  0.00  0.00    +0.000 C 
ATOM     15  C   UNL     1       2.803  -6.194  -0.726  0.00  0.00    +0.000 C 
ENDBRANCH   7   9
ENDBRANCH   2   3
BRANCH   2  16
ATOM     16  C   UNL     1       1.102   0.126   0.409  0.00  0.00    +0.000 C 
BRANCH  16  17
ATOM     17  N   UNL     1       0.568   1.484   0.189  0.00  0.00    +0.000 N 
ATOM     18  H   UNL     1       0.788   1.849  -0.737  0.00  0.00    +0.000 HD
BRANCH  17  19
ATOM     19  C   UNL     1      -0.801   1.646   0.469  0.00  0.00    +0.000 A 
ATOM     20  C   UNL     1      -1.483   0.987   1.486  0.00  0.00    +0.000 A 
ATOM     21  N   UNL     1      -2.786   1.158   1.788  0.00  0.00    +0.000 NA
ATOM     22  C   UNL     1      -3.434   2.082   1.044  0.00  0.00    +0.000 A 
ATOM     23  N   UNL     1      -2.887   2.830   0.069  0.00  0.00    +0.000 NA
ATOM     24  C   UNL     1      -1.577   2.602  -0.173  0.00  0.00    +0.000 A 
BRANCH  22  25
ATOM     25  C   UNL     1      -4.900   2.268   1.355  0.00  0.00    +0.000 C 
ATOM     26  N   UNL     1      -5.392   1.478   2.369  0.00  0.00    +0.000 N 
ATOM     27  O   UNL     1      -5.638   3.056   0.768  0.00  0.00    +0.000 OA
ATOM     28  H   UNL     1      -4.778   0.836   2.855  0.00  0.00    +0.000 HD
ATOM     29  H   UNL     1      -6.362   1.564   2.632  0.00  0.00    +0.000 HD
ENDBRANCH  22  25
ENDBRANCH  17  19
ENDBRANCH  16  17
ENDBRANCH   2  16
TORSDOF 6
