REMARK  Name = 
REMARK  6 active torsions:
REMARK  status: ('A' for Active; 'I' for Inactive)
REMARK    1  A    between atoms: C_2  and  C_3
REMARK    2  A    between atoms: C_6  and  N_7
REMARK    3  A    between atoms: N_7  and  C_8
REMARK    4  A    between atoms: C_8  and  C_9
REMARK    5  A    between atoms: C_13  and  C_14
REMARK    6  A    between atoms: C_18  and  C_19
REMARK                            x       y       z     vdW  Elec       q    Type
REMARK                         _______ _______ _______ _____ _____    ______ ____
ROOT
ATOM      1  C   UNL     1       5.431  -0.146   0.979  0.00  0.00    +0.000 A 
ATOM      2  C   UNL     1       6.099   0.908   0.335  0.00  0.00    +0.000 A 
ATOM      3  C   UNL     1       6.644   1.969   1.051  0.00  0.00    +0.000 A 
ATOM      4  C   UNL     1       6.534   1.993   2.439  0.00  0.00    +0.000 A 
ATOM      5  C   UNL     1       5.927   0.937   3.136  0.00  0.00    +0.000 A 
ATOM      6  C   UNL     1       5.428  -0.143   2.385  0.00  0.00    +0.000 A 
ENDROOT
BRANCH   5   7
ATOM      7  C   UNL     1       5.718   0.996   4.596  0.00  0.00    +0.000 A 
ATOM      8  C   UNL     1       5.306   2.193   5.211  0.00  0.00    +0.000 A 
ATOM      9  C   UNL     1       5.066   2.261   6.585  0.00  0.00    +0.000 A 
ATOM     10  C   UNL     1       5.220   1.125   7.373  0.00  0.00    +0.000 A 
ATOM     11  C   UNL     1       5.617  -0.080   6.788  0.00  0.00    +0.000 A 
ATOM     12  C   UNL     1       5.868  -0.139   5.411  0.00  0.00    +0.000 A 
BRANCH  11  13
ATOM     13  C   UNL     1       5.749  -1.259   7.592  0.00  0.00    +0.000 C 
ATOM     14  N   UNL     1       5.846  -2.217   8.240  0.00  0.00    +0.000 NA
ENDBRANCH  11  13
ENDBRANCH   5   7
BRANCH   1  15
ATOM     15  C   UNL     1       4.593  -1.143   0.184  0.00  0.00    +0.000 C 
ATOM     16  C   UNL     1       3.228  -1.580   0.720  0.00  0.00    +0.000 C 
ATOM     17  C   UNL     1       3.299  -0.557  -0.359  0.00  0.00    +0.000 C 
BRANCH  15  18
ATOM     18  N   UNL     1       5.335  -2.249  -0.430  0.00  0.00    +0.000 N 
ATOM     19  H   UNL     1       5.825  -2.863   0.214  0.00  0.00    +0.000 HD
BRANCH  18  23
ATOM     20  C   UNL     1       6.822  -2.628  -4.365  0.00  0.00    +0.000 A 
ATOM     21  C   UNL     1       6.257  -1.416  -3.963  0.00  0.00    +0.000 A 
ATOM     22  C   UNL     1       5.750  -1.271  -2.664  0.00  0.00    +0.000 A 
ATOM     23  C   UNL     1       5.852  -2.305  -1.734  0.00  0.00    +0.000 A 
ATOM     24  C   UNL     1       6.396  -3.527  -2.163  0.00  0.00    +0.000 A 
ATOM     25  C   UNL     1       6.883  -3.689  -3.467  0.00  0.00    +0.000 A 
BRANCH  20  27
ATOM     26  N   UNL     1       7.731  -2.916  -6.778  0.00  0.00    +0.000 NA
ATOM     27  C   UNL     1       7.324  -2.787  -5.698  0.00  0.00    +0.000 C 
ENDBRANCH  20  27
ENDBRANCH  18  23
ENDBRANCH  15  18
ENDBRANCH   1  15
TORSDOF 6
