REMARK  Name = 
REMARK  8 active torsions:
REMARK  status: ('A' for Active; 'I' for Inactive)
REMARK    1  A    between atoms: C_1  and  C_2
REMARK    2  A    between atoms: C_2  and  N_3
REMARK    3  A    between atoms: N_3  and  C_4
REMARK    4  A    between atoms: N_3  and  C_25
REMARK    5  A    between atoms: C_4  and  C_5
REMARK    6  A    between atoms: C_8  and  C_9
REMARK    7  A    between atoms: C_9  and  N_10
REMARK    8  A    between atoms: C_11  and  C_13
REMARK                            x       y       z     vdW  Elec       q    Type
REMARK                         _______ _______ _______ _____ _____    ______ ____
ROOT
ATOM      1  C   UNL     1       0.567   1.177  -2.015  0.00  0.00    +0.000 A 
ATOM      2  C   UNL     1       0.072  -0.126  -2.145  0.00  0.00    +0.000 A 
ATOM      3  C   UNL     1      -1.212  -0.424  -1.696  0.00  0.00    +0.000 A 
ATOM      4  C   UNL     1      -1.973   0.589  -1.121  0.00  0.00    +0.000 A 
ATOM      5  N   UNL     1      -1.551   1.878  -1.074  0.00  0.00    +0.000 NA
ATOM      6  C   UNL     1      -0.302   2.140  -1.522  0.00  0.00    +0.000 A 
ENDROOT
BRANCH   1   7
ATOM      7  C   UNL     1       2.032   1.477  -2.182  0.00  0.00    +0.000 C 
BRANCH   7   8
ATOM      8  N   UNL     1       2.536   1.988  -3.463  0.00  0.00    +0.000 N 
BRANCH   8   9
ATOM      9  C   UNL     1       3.897   2.330  -3.524  0.00  0.00    +0.000 A 
ATOM     10  C   UNL     1       4.493   2.860  -4.683  0.00  0.00    +0.000 A 
ATOM     11  C   UNL     1       5.840   3.251  -4.727  0.00  0.00    +0.000 A 
ATOM     12  C   UNL     1       6.647   3.113  -3.608  0.00  0.00    +0.000 A 
ATOM     13  C   UNL     1       6.108   2.569  -2.453  0.00  0.00    +0.000 A 
ATOM     14  C   UNL     1       4.763   2.185  -2.418  0.00  0.00    +0.000 A 
ENDBRANCH   8   9
BRANCH   8  16
ATOM     15  C   UNL     1       1.168   3.326  -5.031  0.00  0.00    +0.000 C 
ATOM     16  C   UNL     1       1.717   1.946  -4.679  0.00  0.00    +0.000 C 
ENDBRANCH   8  16
ENDBRANCH   7   8
ENDBRANCH   1   7
BRANCH   4  17
ATOM     17  C   UNL     1      -3.291   0.268  -0.457  0.00  0.00    +0.000 C 
BRANCH  17  18
ATOM     18  N   UNL     1      -4.410   0.363  -1.359  0.00  0.00    +0.000 N 
ATOM     19  C   UNL     1      -4.943  -0.733  -1.981  0.00  0.00    +0.000 C 
ATOM     20  O   UNL     1      -4.488  -1.862  -1.815  0.00  0.00    +0.000 OA
ATOM     21  H   UNL     1      -4.647   1.299  -1.676  0.00  0.00    +0.000 HD
BRANCH  19  22
ATOM     22  C   UNL     1      -6.135  -0.501  -2.803  0.00  0.00    +0.000 A 
ATOM     23  C   UNL     1      -7.023  -1.544  -3.031  0.00  0.00    +0.000 A 
ATOM     24  S   UNL     1      -8.360  -1.106  -3.994  0.00  0.00    +0.000 S 
ATOM     25  C   UNL     1      -7.776   0.482  -4.173  0.00  0.00    +0.000 A 
ATOM     26  N   UNL     1      -8.443   1.391  -4.938  0.00  0.00    +0.000 NA
ATOM     27  C   UNL     1      -7.870   2.543  -5.013  0.00  0.00    +0.000 A 
ATOM     28  N   UNL     1      -6.700   2.882  -4.385  0.00  0.00    +0.000 N 
ATOM     29  C   UNL     1      -6.026   2.017  -3.552  0.00  0.00    +0.000 A 
ATOM     30  O   UNL     1      -5.046   2.382  -2.917  0.00  0.00    +0.000 OA
ATOM     31  C   UNL     1      -6.600   0.686  -3.476  0.00  0.00    +0.000 A 
ATOM     32  H   UNL     1      -6.320   3.811  -4.458  0.00  0.00    +0.000 HD
ENDBRANCH  19  22
ENDBRANCH  17  18
ENDBRANCH   4  17
TORSDOF 7
