REMARK  Name = 
REMARK  10 active torsions:
REMARK  status: ('A' for Active; 'I' for Inactive)
REMARK    1  A    between atoms: C_1  and  C_2
REMARK    2  A    between atoms: C_5  and  O_6
REMARK    3  A    between atoms: O_6  and  C_7
REMARK    4  A    between atoms: C_9  and  C_10
REMARK    5  A    between atoms: C_10  and  C_11
REMARK    6  A    between atoms: C_10  and  C_12
REMARK    7  A    between atoms: C_10  and  C_13
REMARK    8  A    between atoms: C_13  and  N_14
REMARK    9  A    between atoms: C_18  and  C_19
REMARK   10  A    between atoms: C_26  and  C_27
REMARK                            x       y       z     vdW  Elec       q    Type
REMARK                         _______ _______ _______ _____ _____    ______ ____
ROOT
ATOM      1  C   UNL     1       5.681  -0.381  -3.182  0.00  0.00    +0.000 C 
ATOM      2  C   UNL     1       6.518  -1.158  -2.139  0.00  0.00    +0.000 C 
ATOM      3  C   UNL     1       4.348  -1.125  -3.441  0.00  0.00    +0.000 C 
ENDROOT
BRANCH   1   6
ATOM      4  C   UNL     1       4.159   2.334  -0.898  0.00  0.00    +0.000 A 
ATOM      5  C   UNL     1       4.572   1.110  -1.431  0.00  0.00    +0.000 A 
ATOM      6  C   UNL     1       5.341   1.021  -2.612  0.00  0.00    +0.000 A 
ATOM      7  C   UNL     1       5.733   2.226  -3.216  0.00  0.00    +0.000 A 
ATOM      8  C   UNL     1       5.358   3.460  -2.668  0.00  0.00    +0.000 A 
ATOM      9  C   UNL     1       4.568   3.520  -1.512  0.00  0.00    +0.000 A 
BRANCH   9  10
ATOM     10  C   UNL     1       4.181   4.798  -0.993  0.00  0.00    +0.000 C 
ATOM     11  N   UNL     1       3.879   5.852  -0.604  0.00  0.00    +0.000 NA
ENDBRANCH   9  10
BRANCH   4  12
ATOM     12  O   UNL     1       3.372   2.422   0.229  0.00  0.00    +0.000 OA
BRANCH  12  17
ATOM     13  C   UNL     1       1.620   0.982   3.013  0.00  0.00    +0.000 C 
ATOM     14  C   UNL     1       1.427   1.583   1.633  0.00  0.00    +0.000 C 
ATOM     15  N   UNL     1       0.480   0.785   0.823  0.00  0.00    +0.000 NA
ATOM     16  C   UNL     1       1.340   0.970  -0.359  0.00  0.00    +0.000 C 
ATOM     17  C   UNL     1       2.531   1.292   0.578  0.00  0.00    +0.000 C 
ATOM     18  H   UNL     1      -0.451   1.194   0.739  0.00  0.00    +0.000 HD
ENDBRANCH  12  17
ENDBRANCH   4  12
ENDBRANCH   1   6
BRANCH   1  19
ATOM     19  C   UNL     1       6.489  -0.318  -4.513  0.00  0.00    +0.000 C 
BRANCH  19  20
ATOM     20  N   UNL     1       6.813  -1.638  -5.054  0.00  0.00    +0.000 N 
ATOM     21  C   UNL     1       7.568  -1.579  -6.217  0.00  0.00    +0.000 A 
ATOM     22  N   UNL     1       8.398  -0.546  -6.419  0.00  0.00    +0.000 NA
ATOM     23  C   UNL     1       9.055  -0.500  -7.593  0.00  0.00    +0.000 A 
ATOM     24  C   UNL     1       8.929  -1.459  -8.566  0.00  0.00    +0.000 A 
ATOM     25  C   UNL     1       8.063  -2.485  -8.268  0.00  0.00    +0.000 A 
ATOM     26  N   UNL     1       7.372  -2.564  -7.106  0.00  0.00    +0.000 NA
ATOM     27  H   UNL     1       6.029  -2.243  -5.274  0.00  0.00    +0.000 HD
BRANCH  24  28
ATOM     28  C   UNL     1       9.657  -1.309  -9.831  0.00  0.00    +0.000 C 
ATOM     29  N   UNL     1       9.944  -2.436 -10.546  0.00  0.00    +0.000 N 
ATOM     30  O   UNL     1      10.017  -0.206 -10.217  0.00  0.00    +0.000 OA
ATOM     31  H   UNL     1       9.860  -3.375 -10.183  0.00  0.00    +0.000 HD
ATOM     32  H   UNL     1      10.531  -2.304 -11.362  0.00  0.00    +0.000 HD
ENDBRANCH  24  28
ENDBRANCH  19  20
ENDBRANCH   1  19
TORSDOF 7
