REMARK  Name = 
REMARK  7 active torsions:
REMARK  status: ('A' for Active; 'I' for Inactive)
REMARK    1  A    between atoms: C_1  and  C_2
REMARK    2  A    between atoms: C_2  and  N_3
REMARK    3  A    between atoms: C_2  and  C_16
REMARK    4  A    between atoms: C_4  and  C_6
REMARK    5  A    between atoms: C_19  and  S_20
REMARK    6  A    between atoms: S_20  and  C_21
REMARK    7  A    between atoms: C_24  and  O_25
REMARK                            x       y       z     vdW  Elec       q    Type
REMARK                         _______ _______ _______ _____ _____    ______ ____
ROOT
ATOM      1  C   UNL     1       0.877   0.061  -0.111  0.00  0.00    +0.000 C 
ATOM      2  C   UNL     1       2.403   0.048  -0.156  0.00  0.00    +0.000 C 
ENDROOT
BRANCH   2   3
ATOM      3  C   UNL     1       2.940   1.082  -1.125  0.00  0.00    +0.000 A 
ATOM      4  C   UNL     1       3.136   0.817  -2.483  0.00  0.00    +0.000 A 
ATOM      5  C   UNL     1       3.659   1.804  -3.318  0.00  0.00    +0.000 A 
ATOM      6  C   UNL     1       3.969   3.044  -2.779  0.00  0.00    +0.000 A 
ATOM      7  N   UNL     1       3.758   3.349  -1.479  0.00  0.00    +0.000 NA
ATOM      8  C   UNL     1       3.253   2.369  -0.689  0.00  0.00    +0.000 A 
BRANCH   6   9
ATOM      9  S   UNL     1       4.636   4.322  -3.828  0.00  0.00    +0.000 S 
BRANCH   9  10
ATOM     10  C   UNL     1       6.382   4.041  -3.648  0.00  0.00    +0.000 A 
ATOM     11  C   UNL     1       7.026   4.170  -2.417  0.00  0.00    +0.000 A 
ATOM     12  C   UNL     1       8.406   3.987  -2.330  0.00  0.00    +0.000 A 
ATOM     13  C   UNL     1       9.098   3.683  -3.490  0.00  0.00    +0.000 A 
ATOM     14  N   UNL     1       8.522   3.550  -4.695  0.00  0.00    +0.000 NA
ATOM     15  C   UNL     1       7.180   3.739  -4.748  0.00  0.00    +0.000 A 
BRANCH  13  16
ATOM     16  O   UNL     1      10.450   3.503  -3.477  0.00  0.00    +0.000 OA
ATOM     17  H   UNL     1      10.762   3.652  -2.573  0.00  0.00    +0.000 HD
ENDBRANCH  13  16
ENDBRANCH   9  10
ENDBRANCH   6   9
ENDBRANCH   2   3
BRANCH   2  18
ATOM     18  N   UNL     1       2.881  -1.291  -0.462  0.00  0.00    +0.000 N 
ATOM     19  C   UNL     1       4.070  -1.778   0.034  0.00  0.00    +0.000 C 
ATOM     20  O   UNL     1       4.771  -1.122   0.795  0.00  0.00    +0.000 OA
ATOM     21  H   UNL     1       2.388  -1.885  -1.123  0.00  0.00    +0.000 HD
BRANCH  19  22
ATOM     22  C   UNL     1       4.391  -3.158  -0.393  0.00  0.00    +0.000 A 
ATOM     23  N   UNL     1       3.513  -3.801  -1.188  0.00  0.00    +0.000 NA
ATOM     24  S   UNL     1       4.033  -5.353  -1.443  0.00  0.00    +0.000 S 
ATOM     25  C   UNL     1       5.457  -5.223  -0.521  0.00  0.00    +0.000 A 
ATOM     26  N   UNL     1       6.330  -6.248  -0.330  0.00  0.00    +0.000 NA
ATOM     27  C   UNL     1       7.337  -5.941   0.421  0.00  0.00    +0.000 A 
ATOM     28  N   UNL     1       7.546  -4.704   0.977  0.00  0.00    +0.000 N 
ATOM     29  C   UNL     1       6.715  -3.623   0.765  0.00  0.00    +0.000 A 
ATOM     30  O   UNL     1       7.018  -2.522   1.205  0.00  0.00    +0.000 OA
ATOM     31  C   UNL     1       5.545  -3.936  -0.024  0.00  0.00    +0.000 A 
ATOM     32  H   UNL     1       8.372  -4.513   1.526  0.00  0.00    +0.000 HD
ENDBRANCH  19  22
ENDBRANCH   2  18
TORSDOF 6
