REMARK  Name = 
REMARK  10 active torsions:
REMARK  status: ('A' for Active; 'I' for Inactive)
REMARK    1  A    between atoms: C_1  and  O_2
REMARK    2  A    between atoms: O_2  and  C_3
REMARK    3  A    between atoms: C_10  and  C_11
REMARK    4  A    between atoms: N_13  and  C_14
REMARK    5  A    between atoms: C_14  and  C_15
REMARK    6  A    between atoms: C_18  and  C_19
REMARK    7  A    between atoms: C_19  and  N_20
REMARK    8  A    between atoms: N_20  and  C_21
REMARK    9  A    between atoms: C_21  and  C_22
REMARK   10  A    between atoms: C_21  and  C_23
REMARK                            x       y       z     vdW  Elec       q    Type
REMARK                         _______ _______ _______ _____ _____    ______ ____
ROOT
ATOM      1  C   UNL     1      -2.262   0.974 -10.547  0.00  0.00    +0.000 A 
ATOM      2  C   UNL     1      -3.209   1.287  -9.561  0.00  0.00    +0.000 A 
ATOM      3  C   UNL     1      -3.202   0.621  -8.325  0.00  0.00    +0.000 A 
ATOM      4  C   UNL     1      -2.233  -0.350  -8.042  0.00  0.00    +0.000 A 
ATOM      5  C   UNL     1      -1.241  -0.600  -9.003  0.00  0.00    +0.000 A 
ATOM      6  C   UNL     1      -1.252   0.056 -10.236  0.00  0.00    +0.000 A 
ENDROOT
BRANCH   1   7
ATOM      7  C   UNL     1      -2.313   1.614 -11.912  0.00  0.00    +0.000 C 
BRANCH   7  10
ATOM      8  C   UNL     1      -1.411   3.581 -13.090  0.00  0.00    +0.000 C 
ATOM      9  O   UNL     1      -1.986   3.286 -14.132  0.00  0.00    +0.000 OA
ATOM     10  N   UNL     1      -1.521   2.813 -11.968  0.00  0.00    +0.000 N 
ATOM     11  H   UNL     1      -1.007   3.058 -11.129  0.00  0.00    +0.000 HD
BRANCH   8  19
ATOM     12  C   UNL     1       0.355   5.034 -10.512  0.00  0.00    +0.000 A 
ATOM     13  N   UNL     1       1.134   5.781  -9.707  0.00  0.00    +0.000 NA
ATOM     14  C   UNL     1       1.707   6.869 -10.225  0.00  0.00    +0.000 A 
ATOM     15  N   UNL     1       1.597   7.316 -11.473  0.00  0.00    +0.000 NA
ATOM     16  C   UNL     1       0.822   6.535 -12.245  0.00  0.00    +0.000 A 
ATOM     17  S   UNL     1       0.566   6.952 -13.871  0.00  0.00    +0.000 S 
ATOM     18  C   UNL     1      -0.418   5.590 -14.119  0.00  0.00    +0.000 A 
ATOM     19  C   UNL     1      -0.573   4.794 -12.991  0.00  0.00    +0.000 A 
ATOM     20  C   UNL     1       0.165   5.368 -11.865  0.00  0.00    +0.000 A 
BRANCH  12  22
ATOM     21  C   UNL     1      -0.422   3.983  -8.571  0.00  0.00    +0.000 C 
ATOM     22  O   UNL     1      -0.221   3.900  -9.980  0.00  0.00    +0.000 OA
ENDBRANCH  12  22
ENDBRANCH   8  19
ENDBRANCH   7  10
ENDBRANCH   1   7
BRANCH   4  23
ATOM     23  C   UNL     1      -2.197  -1.097  -6.721  0.00  0.00    +0.000 C 
BRANCH  23  24
ATOM     24  N   UNL     1      -3.385  -1.930  -6.517  0.00  0.00    +0.000 NA
ATOM     25  H   UNL     1      -3.460  -2.579  -7.298  0.00  0.00    +0.000 HD
BRANCH  24  26
ATOM     26  C   UNL     1      -3.341  -2.705  -5.254  0.00  0.00    +0.000 C 
ATOM     27  C   UNL     1      -3.454  -1.799  -4.018  0.00  0.00    +0.000 C 
BRANCH  26  28
ATOM     28  C   UNL     1      -2.173  -3.690  -5.126  0.00  0.00    +0.000 A 
ATOM     29  C   UNL     1      -2.253  -4.953  -5.714  0.00  0.00    +0.000 A 
ATOM     30  C   UNL     1      -1.229  -5.872  -5.486  0.00  0.00    +0.000 A 
ATOM     31  C   UNL     1      -0.139  -5.503  -4.709  0.00  0.00    +0.000 A 
ATOM     32  C   UNL     1      -0.104  -4.213  -4.211  0.00  0.00    +0.000 A 
ATOM     33  N   UNL     1      -1.086  -3.306  -4.407  0.00  0.00    +0.000 NA
ENDBRANCH  26  28
ENDBRANCH  24  26
ENDBRANCH  23  24
ENDBRANCH   4  23
TORSDOF 8
