REMARK  Name = 
REMARK  3 active torsions:
REMARK  status: ('A' for Active; 'I' for Inactive)
REMARK    1  A    between atoms: C_2  and  C_4
REMARK    2  A    between atoms: N_8  and  C_9
REMARK    3  A    between atoms: C_9  and  C_10
REMARK                            x       y       z     vdW  Elec       q    Type
REMARK                         _______ _______ _______ _____ _____    ______ ____
ROOT
ATOM      1  C   UNL     1       3.105  -1.171   0.852  0.00  0.00    +0.000 A 
ATOM      2  C   UNL     1       4.456  -0.877   0.756  0.00  0.00    +0.000 A 
ATOM      3  C   UNL     1       5.376  -1.699   1.415  0.00  0.00    +0.000 A 
ATOM      4  C   UNL     1       4.932  -2.815   2.125  0.00  0.00    +0.000 A 
ATOM      5  N   UNL     1       5.910  -3.636   2.700  0.00  0.00    +0.000 N 
ATOM      6  N   UNL     1       3.627  -3.118   2.196  0.00  0.00    +0.000 NA
ATOM      7  C   UNL     1       2.733  -2.288   1.588  0.00  0.00    +0.000 A 
ATOM      8  H   UNL     1       6.512  -3.134   3.341  0.00  0.00    +0.000 HD
ENDROOT
BRANCH   1  10
ATOM      9  N   UNL     1       2.377   0.385  -0.874  0.00  0.00    +0.000 N 
ATOM     10  C   UNL     1       2.053  -0.324   0.248  0.00  0.00    +0.000 C 
ATOM     11  O   UNL     1       0.927  -0.268   0.730  0.00  0.00    +0.000 OA
ATOM     12  H   UNL     1       1.628   0.898  -1.313  0.00  0.00    +0.000 HD
ATOM     13  H   UNL     1       3.199   0.188  -1.424  0.00  0.00    +0.000 HD
ENDBRANCH   1  10
BRANCH   5  14
ATOM     14  C   UNL     1       5.525  -4.988   3.082  0.00  0.00    +0.000 C 
BRANCH  14  15
ATOM     15  C   UNL     1       6.628  -5.682   3.913  0.00  0.00    +0.000 C 
ATOM     16  C   UNL     1       6.258  -7.168   4.106  0.00  0.00    +0.000 C 
ATOM     17  C   UNL     1       7.250  -7.917   4.992  0.00  0.00    +0.000 C 
ATOM     18  C   UNL     1       7.432  -7.222   6.335  0.00  0.00    +0.000 C 
ATOM     19  C   UNL     1       7.847  -5.769   6.147  0.00  0.00    +0.000 C 
ATOM     20  C   UNL     1       6.850  -5.005   5.279  0.00  0.00    +0.000 C 
ENDBRANCH  14  15
ENDBRANCH   5  14
TORSDOF 3
