REMARK  Name = 
REMARK  5 active torsions:
REMARK  status: ('A' for Active; 'I' for Inactive)
REMARK    1  A    between atoms: C_2  and  C_18
REMARK    2  A    between atoms: N_3  and  C_4
REMARK    3  A    between atoms: C_4  and  C_5
REMARK    4  A    between atoms: C_8  and  C_9
REMARK    5  A    between atoms: C_9  and  N_10
REMARK                            x       y       z     vdW  Elec       q    Type
REMARK                         _______ _______ _______ _____ _____    ______ ____
ROOT
ATOM      1  O   UNL     1       0.436  -0.309  -0.787  0.00  0.00    +0.000 OA
ATOM      2  C   UNL     1       1.316  -0.715  -1.543  0.00  0.00    +0.000 C 
ATOM      3  N   UNL     1       2.048  -1.843  -1.251  0.00  0.00    +0.000 N 
ATOM      4  H   UNL     1       2.894  -2.034  -1.781  0.00  0.00    +0.000 HD
ENDROOT
BRANCH   2   5
ATOM      5  C   UNL     1       1.605  -0.030  -2.809  0.00  0.00    +0.000 A 
ATOM      6  C   UNL     1       0.629   0.774  -3.387  0.00  0.00    +0.000 A 
ATOM      7  S   UNL     1       1.115   1.510  -4.844  0.00  0.00    +0.000 S 
ATOM      8  C   UNL     1       2.670   0.820  -4.734  0.00  0.00    +0.000 A 
ATOM      9  N   UNL     1       3.619   1.096  -5.666  0.00  0.00    +0.000 NA
ATOM     10  C   UNL     1       4.761   0.533  -5.441  0.00  0.00    +0.000 A 
ATOM     11  N   UNL     1       5.033  -0.285  -4.378  0.00  0.00    +0.000 N 
ATOM     12  C   UNL     1       4.092  -0.618  -3.429  0.00  0.00    +0.000 A 
ATOM     13  O   UNL     1       4.351  -1.395  -2.513  0.00  0.00    +0.000 OA
ATOM     14  C   UNL     1       2.800   0.010  -3.618  0.00  0.00    +0.000 A 
ATOM     15  H   UNL     1       5.942  -0.706  -4.272  0.00  0.00    +0.000 HD
ENDBRANCH   2   5
BRANCH   3  16
ATOM     16  C   UNL     1       1.878  -2.513   0.020  0.00  0.00    +0.000 C 
BRANCH  16  17
ATOM     17  C   UNL     1       2.828  -3.663   0.189  0.00  0.00    +0.000 A 
ATOM     18  C   UNL     1       4.124  -3.432   0.652  0.00  0.00    +0.000 A 
ATOM     19  C   UNL     1       5.008  -4.495   0.804  0.00  0.00    +0.000 A 
ATOM     20  C   UNL     1       4.605  -5.783   0.455  0.00  0.00    +0.000 A 
ATOM     21  N   UNL     1       3.348  -6.036   0.004  0.00  0.00    +0.000 NA
ATOM     22  C   UNL     1       2.495  -4.979  -0.109  0.00  0.00    +0.000 A 
BRANCH  20  23
ATOM     23  C   UNL     1       5.576  -6.940   0.660  0.00  0.00    +0.000 C 
BRANCH  23  24
ATOM     24  N   UNL     1       6.590  -7.257  -0.361  0.00  0.00    +0.000 NA
ATOM     25  C   UNL     1       7.352  -6.139  -0.931  0.00  0.00    +0.000 C 
ATOM     26  C   UNL     1       6.698  -5.461  -2.150  0.00  0.00    +0.000 C 
ATOM     27  O   UNL     1       6.311  -6.409  -3.153  0.00  0.00    +0.000 OA
ATOM     28  C   UNL     1       5.456  -7.423  -2.605  0.00  0.00    +0.000 C 
ATOM     29  C   UNL     1       6.132  -8.146  -1.435  0.00  0.00    +0.000 C 
ENDBRANCH  23  24
ENDBRANCH  20  23
ENDBRANCH  16  17
ENDBRANCH   3  16
TORSDOF 5
