REMARK  Name = 
REMARK  11 active torsions:
REMARK  status: ('A' for Active; 'I' for Inactive)
REMARK    1  A    between atoms: C_1  and  C_2
REMARK    2  A    between atoms: C_2  and  C_3
REMARK    3  A    between atoms: C_3  and  N_4
REMARK    4  A    between atoms: C_3  and  C_20
REMARK    5  A    between atoms: N_4  and  C_5
REMARK    6  A    between atoms: C_5  and  C_6
REMARK    7  A    between atoms: C_9  and  C_10
REMARK    8  A    between atoms: C_10  and  O_11
REMARK    9  A    between atoms: C_10  and  C_12
REMARK   10  A    between atoms: C_12  and  N_13
REMARK   11  A    between atoms: C_20  and  C_22
REMARK                            x       y       z     vdW  Elec       q    Type
REMARK                         _______ _______ _______ _____ _____    ______ ____
ROOT
ATOM      1  N   UNL     1      -0.369   1.257   0.650  0.00  0.00    +0.000 NA
ATOM      2  H   UNL     1      -0.531   0.549   1.363  0.00  0.00    +0.000 HD
ENDROOT
BRANCH   1   3
ATOM      3  C   UNL     1      -0.304   0.599  -0.669  0.00  0.00    +0.000 C 
BRANCH   3   5
ATOM      4  C   UNL     1       0.864  -1.474   0.326  0.00  0.00    +0.000 C 
ATOM      5  C   UNL     1       0.844  -0.429  -0.786  0.00  0.00    +0.000 C 
ENDBRANCH   3   5
BRANCH   3   6
ATOM      6  C   UNL     1      -0.279   1.629  -1.833  0.00  0.00    +0.000 C 
ATOM      7  O   UNL     1       0.715   1.722  -2.557  0.00  0.00    +0.000 OA
BRANCH   6   8
ATOM      8  C   UNL     1      -1.432   2.525  -2.051  0.00  0.00    +0.000 A 
ATOM      9  C   UNL     1      -2.249   3.006  -1.044  0.00  0.00    +0.000 A 
ATOM     10  S   UNL     1      -3.366   4.186  -1.575  0.00  0.00    +0.000 S 
ATOM     11  C   UNL     1      -2.817   4.064  -3.179  0.00  0.00    +0.000 A 
ATOM     12  N   UNL     1      -3.333   4.850  -4.160  0.00  0.00    +0.000 NA
ATOM     13  C   UNL     1      -2.811   4.654  -5.325  0.00  0.00    +0.000 A 
ATOM     14  N   UNL     1      -1.841   3.719  -5.604  0.00  0.00    +0.000 N 
ATOM     15  C   UNL     1      -1.388   2.814  -4.666  0.00  0.00    +0.000 A 
ATOM     16  O   UNL     1      -0.747   1.826  -5.002  0.00  0.00    +0.000 OA
ATOM     17  C   UNL     1      -1.840   3.094  -3.316  0.00  0.00    +0.000 A 
ATOM     18  H   UNL     1      -1.552   3.543  -6.557  0.00  0.00    +0.000 HD
ENDBRANCH   6   8
ENDBRANCH   3   6
ENDBRANCH   1   3
BRANCH   1  19
ATOM     19  C   UNL     1       0.812   2.040   1.021  0.00  0.00    +0.000 C 
BRANCH  19  20
ATOM     20  C   UNL     1       0.607   2.640   2.395  0.00  0.00    +0.000 A 
ATOM     21  C   UNL     1       0.370   1.815   3.506  0.00  0.00    +0.000 A 
ATOM     22  C   UNL     1       0.095   2.364   4.758  0.00  0.00    +0.000 A 
ATOM     23  C   UNL     1       0.076   3.753   4.937  0.00  0.00    +0.000 A 
ATOM     24  C   UNL     1       0.380   4.575   3.840  0.00  0.00    +0.000 A 
ATOM     25  C   UNL     1       0.634   4.026   2.581  0.00  0.00    +0.000 A 
BRANCH  23  26
ATOM     26  C   UNL     1      -0.272   4.331   6.294  0.00  0.00    +0.000 C 
BRANCH  26  27
ATOM     27  O   UNL     1       0.892   4.978   6.809  0.00  0.00    +0.000 OA
ATOM     28  H   UNL     1       1.017   5.792   6.296  0.00  0.00    +0.000 HD
ENDBRANCH  26  27
BRANCH  26  29
ATOM     29  C   UNL     1      -1.503   5.287   6.219  0.00  0.00    +0.000 C 
BRANCH  29  30
ATOM     30  N   UNL     1      -1.889   5.933   7.490  0.00  0.00    +0.000 NA
ATOM     31  C   UNL     1      -2.372   4.990   8.507  0.00  0.00    +0.000 C 
ATOM     32  C   UNL     1      -3.870   4.898   8.297  0.00  0.00    +0.000 C 
ATOM     33  C   UNL     1      -4.254   6.301   7.878  0.00  0.00    +0.000 C 
ATOM     34  C   UNL     1      -2.984   6.900   7.283  0.00  0.00    +0.000 C 
ENDBRANCH  29  30
ENDBRANCH  26  29
ENDBRANCH  23  26
ENDBRANCH  19  20
ENDBRANCH   1  19
TORSDOF 10
