REMARK  Name = 
REMARK  7 active torsions:
REMARK  status: ('A' for Active; 'I' for Inactive)
REMARK    1  A    between atoms: C_1  and  O_2
REMARK    2  A    between atoms: O_2  and  C_3
REMARK    3  A    between atoms: C_5  and  C_6
REMARK    4  A    between atoms: C_6  and  N_7
REMARK    5  A    between atoms: C_12  and  C_13
REMARK    6  A    between atoms: C_22  and  C_23
REMARK    7  A    between atoms: C_23  and  N_24
REMARK                            x       y       z     vdW  Elec       q    Type
REMARK                         _______ _______ _______ _____ _____    ______ ____
ROOT
ATOM      1  N   UNL     1       2.023  -2.176   4.732  0.00  0.00    +0.000 N 
ATOM      2  C   UNL     1       2.183  -3.442   4.213  0.00  0.00    +0.000 A 
ATOM      3  C   UNL     1       1.007  -4.128   4.377  0.00  0.00    +0.000 A 
ATOM      4  C   UNL     1       0.085  -3.253   5.008  0.00  0.00    +0.000 A 
ATOM      5  C   UNL     1      -1.254  -3.427   5.428  0.00  0.00    +0.000 A 
ATOM      6  C   UNL     1      -1.946  -2.365   6.021  0.00  0.00    +0.000 A 
ATOM      7  C   UNL     1      -1.312  -1.128   6.157  0.00  0.00    +0.000 A 
ATOM      8  C   UNL     1       0.011  -0.927   5.742  0.00  0.00    +0.000 A 
ATOM      9 CL   UNL     1       0.657   0.660   5.901  0.00  0.00    +0.000 Cl
ATOM     10  C   UNL     1       0.721  -2.013   5.190  0.00  0.00    +0.000 A 
ENDROOT
BRANCH   6  11
ATOM     11  C   UNL     1      -3.348  -2.479   6.518  0.00  0.00    +0.000 C 
ATOM     12  N   UNL     1      -3.996  -3.673   6.397  0.00  0.00    +0.000 N 
ATOM     13  O   UNL     1      -3.918  -1.527   7.037  0.00  0.00    +0.000 OA
ATOM     14  H   UNL     1      -3.610  -4.518   6.012  0.00  0.00    +0.000 HD
ATOM     15  H   UNL     1      -4.940  -3.715   6.767  0.00  0.00    +0.000 HD
ENDBRANCH   6  11
BRANCH   1  16
ATOM     16  C   UNL     1       3.139  -1.229   4.820  0.00  0.00    +0.000 C 
BRANCH  16  19
ATOM     17  C   UNL     1       2.669   0.553   1.459  0.00  0.00    +0.000 A 
ATOM     18  C   UNL     1       2.375  -0.108   2.653  0.00  0.00    +0.000 A 
ATOM     19  C   UNL     1       3.392  -0.476   3.541  0.00  0.00    +0.000 A 
ATOM     20  C   UNL     1       4.682  -0.076   3.213  0.00  0.00    +0.000 A 
ATOM     21  N   UNL     1       5.013   0.576   2.077  0.00  0.00    +0.000 NA
ATOM     22  C   UNL     1       4.011   0.843   1.187  0.00  0.00    +0.000 A 
BRANCH  17  24
ATOM     23  C   UNL     1       0.368   0.873   0.938  0.00  0.00    +0.000 C 
ATOM     24  O   UNL     1       1.734   0.912   0.526  0.00  0.00    +0.000 OA
ENDBRANCH  17  24
BRANCH  22  25
ATOM     25  C   UNL     1       4.402   1.563  -0.094  0.00  0.00    +0.000 C 
BRANCH  25  26
ATOM     26  N   UNL     1       5.766   1.247  -0.544  0.00  0.00    +0.000 NA
ATOM     27  H   UNL     1       6.363   1.295   0.284  0.00  0.00    +0.000 HD
ATOM     28  H   UNL     1       6.081   1.970  -1.184  0.00  0.00    +0.000 HD
ENDBRANCH  25  26
ENDBRANCH  22  25
ENDBRANCH  16  19
ENDBRANCH   1  16
TORSDOF 6
