REMARK  Name = 
REMARK  4 active torsions:
REMARK  status: ('A' for Active; 'I' for Inactive)
REMARK    1  A    between atoms: C_2  and  C_4
REMARK    2  A    between atoms: N_8  and  C_9
REMARK    3  A    between atoms: C_9  and  C_10
REMARK    4  A    between atoms: C_14  and  C_15
REMARK                            x       y       z     vdW  Elec       q    Type
REMARK                         _______ _______ _______ _____ _____    ______ ____
ROOT
ATOM      1  C   UNL     1       5.285  -2.659   5.081  0.00  0.00    +0.000 C 
ATOM      2  C   UNL     1       5.195  -4.156   4.814  0.00  0.00    +0.000 C 
ATOM      3  C   UNL     1       4.004  -3.428   5.341  0.00  0.00    +0.000 C 
ENDROOT
BRANCH   1   8
ATOM      4  C   UNL     1       3.640   1.791   2.939  0.00  0.00    +0.000 A 
ATOM      5  C   UNL     1       2.895   0.838   3.624  0.00  0.00    +0.000 A 
ATOM      6  C   UNL     1       3.502  -0.364   3.993  0.00  0.00    +0.000 A 
ATOM      7  C   UNL     1       4.834  -0.598   3.660  0.00  0.00    +0.000 A 
ATOM      8  N   UNL     1       5.478  -1.821   3.883  0.00  0.00    +0.000 N 
ATOM      9  N   UNL     1       5.568   0.325   3.002  0.00  0.00    +0.000 NA
ATOM     10  C   UNL     1       4.962   1.490   2.652  0.00  0.00    +0.000 A 
ATOM     11  H   UNL     1       6.449  -1.661   3.615  0.00  0.00    +0.000 HD
BRANCH   4  13
ATOM     12  N   UNL     1       1.961   3.545   3.096  0.00  0.00    +0.000 N 
ATOM     13  C   UNL     1       3.070   3.066   2.454  0.00  0.00    +0.000 C 
ATOM     14  O   UNL     1       3.582   3.685   1.530  0.00  0.00    +0.000 OA
ATOM     15  H   UNL     1       1.637   4.459   2.807  0.00  0.00    +0.000 HD
ATOM     16  H   UNL     1       1.662   3.207   3.999  0.00  0.00    +0.000 HD
ENDBRANCH   4  13
ENDBRANCH   1   8
BRANCH   1  17
ATOM     17  C   UNL     1       6.108  -2.182   6.274  0.00  0.00    +0.000 A 
ATOM     18  C   UNL     1       7.386  -2.691   6.550  0.00  0.00    +0.000 A 
ATOM     19  C   UNL     1       8.174  -2.153   7.566  0.00  0.00    +0.000 A 
ATOM     20  C   UNL     1       7.708  -1.071   8.314  0.00  0.00    +0.000 A 
ATOM     21  C   UNL     1       6.443  -0.514   8.071  0.00  0.00    +0.000 A 
ATOM     22  C   UNL     1       5.653  -1.115   7.072  0.00  0.00    +0.000 A 
BRANCH  21  23
ATOM     23  C   UNL     1       5.987   0.719   8.746  0.00  0.00    +0.000 A 
ATOM     24  C   UNL     1       6.865   1.779   9.015  0.00  0.00    +0.000 A 
ATOM     25  C   UNL     1       6.393   2.977   9.553  0.00  0.00    +0.000 A 
ATOM     26  C   UNL     1       5.040   3.090   9.813  0.00  0.00    +0.000 A 
ATOM     27  N   UNL     1       4.153   2.098   9.596  0.00  0.00    +0.000 NA
ATOM     28  C   UNL     1       4.648   0.945   9.078  0.00  0.00    +0.000 A 
ENDBRANCH  21  23
ENDBRANCH   1  17
TORSDOF 4
