REMARK  Name = 
REMARK  5 active torsions:
REMARK  status: ('A' for Active; 'I' for Inactive)
REMARK    1  A    between atoms: N_1  and  C_2
REMARK    2  A    between atoms: C_2  and  C_3
REMARK    3  A    between atoms: C_6  and  C_7
REMARK    4  A    between atoms: C_7  and  N_8
REMARK    5  A    between atoms: C_13  and  C_14
REMARK                            x       y       z     vdW  Elec       q    Type
REMARK                         _______ _______ _______ _____ _____    ______ ____
ROOT
ATOM      1  N   UNL     1       1.341   4.827   3.169  0.00  0.00    +0.000 N 
ATOM      2  C   UNL     1       1.960   5.956   3.656  0.00  0.00    +0.000 A 
ATOM      3  C   UNL     1       1.836   5.950   5.028  0.00  0.00    +0.000 A 
ATOM      4  C   UNL     1       1.042   4.828   5.379  0.00  0.00    +0.000 A 
ATOM      5  C   UNL     1       0.541   4.313   6.585  0.00  0.00    +0.000 A 
ATOM      6  C   UNL     1      -0.277   3.182   6.521  0.00  0.00    +0.000 A 
ATOM      7  C   UNL     1      -0.518   2.607   5.273  0.00  0.00    +0.000 A 
ATOM      8  N   UNL     1      -0.028   3.042   4.082  0.00  0.00    +0.000 NA
ATOM      9  C   UNL     1       0.728   4.152   4.200  0.00  0.00    +0.000 A 
ENDROOT
BRANCH   6  10
ATOM     10  C   UNL     1      -0.919   2.583   7.716  0.00  0.00    +0.000 C 
ATOM     11  N   UNL     1      -0.710   3.167   8.935  0.00  0.00    +0.000 N 
ATOM     12  O   UNL     1      -1.633   1.589   7.628  0.00  0.00    +0.000 OA
ATOM     13  H   UNL     1      -0.167   3.999   9.101  0.00  0.00    +0.000 HD
ATOM     14  H   UNL     1      -1.183   2.755   9.729  0.00  0.00    +0.000 HD
ENDBRANCH   6  10
BRANCH   1  15
ATOM     15  C   UNL     1       1.350   4.413   1.780  0.00  0.00    +0.000 C 
BRANCH  15  19
ATOM     16  C   UNL     1       3.046   1.384   0.119  0.00  0.00    +0.000 C 
ATOM     17  C   UNL     1       3.069   1.665   1.633  0.00  0.00    +0.000 C 
ATOM     18  C   UNL     1       3.547   3.081   1.963  0.00  0.00    +0.000 C 
ATOM     19  C   UNL     1       2.769   4.178   1.212  0.00  0.00    +0.000 C 
ATOM     20  C   UNL     1       2.702   3.870  -0.294  0.00  0.00    +0.000 C 
ATOM     21  C   UNL     1       2.194   2.458  -0.578  0.00  0.00    +0.000 C 
BRANCH  16  22
ATOM     22  C   UNL     1       4.485   1.270  -0.434  0.00  0.00    +0.000 C 
BRANCH  22  23
ATOM     23  N   UNL     1       4.525   0.991  -1.865  0.00  0.00    +0.000 NA
ATOM     24  H   UNL     1       5.497   0.970  -2.172  0.00  0.00    +0.000 HD
ATOM     25  H   UNL     1       4.092   1.756  -2.380  0.00  0.00    +0.000 HD
ENDBRANCH  22  23
ENDBRANCH  16  22
ENDBRANCH  15  19
ENDBRANCH   1  15
TORSDOF 5
