REMARK  Name = 
REMARK  6 active torsions:
REMARK  status: ('A' for Active; 'I' for Inactive)
REMARK    1  A    between atoms: N_1  and  C_2
REMARK    2  A    between atoms: C_2  and  C_3
REMARK    3  A    between atoms: C_3  and  C_4
REMARK    4  A    between atoms: C_7  and  C_8
REMARK    5  A    between atoms: C_8  and  N_9
REMARK    6  A    between atoms: C_14  and  C_15
REMARK                            x       y       z     vdW  Elec       q    Type
REMARK                         _______ _______ _______ _____ _____    ______ ____
ROOT
ATOM      1  N   UNL     1       9.665   0.885   2.133  0.00  0.00    +0.000 N 
ATOM      2  C   UNL     1      10.214   0.483   3.324  0.00  0.00    +0.000 A 
ATOM      3  N   UNL     1      10.396   1.497   4.136  0.00  0.00    +0.000 NA
ATOM      4  C   UNL     1       9.981   2.597   3.432  0.00  0.00    +0.000 A 
ATOM      5  C   UNL     1       9.813   3.916   3.868  0.00  0.00    +0.000 A 
ATOM      6  C   UNL     1       9.336   4.880   2.972  0.00  0.00    +0.000 A 
ATOM      7  C   UNL     1       9.185   4.560   1.618  0.00  0.00    +0.000 A 
ATOM      8  C   UNL     1       9.374   3.247   1.163  0.00  0.00    +0.000 A 
ATOM      9 CL   UNL     1       9.266   2.928  -0.521  0.00  0.00    +0.000 Cl
ATOM     10  C   UNL     1       9.673   2.264   2.113  0.00  0.00    +0.000 A 
ENDROOT
BRANCH   6  11
ATOM     11  C   UNL     1       8.960   6.206   3.539  0.00  0.00    +0.000 C 
ATOM     12  N   UNL     1       8.423   7.154   2.715  0.00  0.00    +0.000 N 
ATOM     13  O   UNL     1       9.076   6.442   4.736  0.00  0.00    +0.000 OA
ATOM     14  H   UNL     1       8.217   7.038   1.737  0.00  0.00    +0.000 HD
ATOM     15  H   UNL     1       8.093   7.997   3.168  0.00  0.00    +0.000 HD
ENDBRANCH   6  11
BRANCH   1  16
ATOM     16  C   UNL     1       8.904  -0.006   1.263  0.00  0.00    +0.000 C 
BRANCH  16  20
ATOM     17  C   UNL     1       4.687   0.595   2.121  0.00  0.00    +0.000 A 
ATOM     18  C   UNL     1       5.251   1.088   0.940  0.00  0.00    +0.000 A 
ATOM     19  C   UNL     1       6.596   0.854   0.643  0.00  0.00    +0.000 A 
ATOM     20  C   UNL     1       7.417   0.135   1.524  0.00  0.00    +0.000 A 
ATOM     21  C   UNL     1       6.837  -0.385   2.693  0.00  0.00    +0.000 A 
ATOM     22  C   UNL     1       5.487  -0.163   2.984  0.00  0.00    +0.000 A 
BRANCH  17  23
ATOM     23  C   UNL     1       3.244   0.882   2.460  0.00  0.00    +0.000 C 
BRANCH  23  24
ATOM     24  C   UNL     1       2.289  -0.172   1.895  0.00  0.00    +0.000 C 
BRANCH  24  25
ATOM     25  N   UNL     1       0.901   0.134   2.247  0.00  0.00    +0.000 NA
ATOM     26  H   UNL     1       0.288  -0.577   1.851  0.00  0.00    +0.000 HD
ATOM     27  H   UNL     1       0.625   1.018   1.820  0.00  0.00    +0.000 HD
ENDBRANCH  24  25
ENDBRANCH  23  24
ENDBRANCH  17  23
ENDBRANCH  16  20
ENDBRANCH   1  16
TORSDOF 6
