REMARK  Name = 
REMARK  5 active torsions:
REMARK  status: ('A' for Active; 'I' for Inactive)
REMARK    1  A    between atoms: C_2  and  C_18
REMARK    2  A    between atoms: N_3  and  C_4
REMARK    3  A    between atoms: C_4  and  C_5
REMARK    4  A    between atoms: N_9  and  C_10
REMARK    5  A    between atoms: C_10  and  C_11
REMARK                            x       y       z     vdW  Elec       q    Type
REMARK                         _______ _______ _______ _____ _____    ______ ____
ROOT
ATOM      1  C   UNL     1       2.369  -2.454   0.421  0.00  0.00    +0.000 C 
ENDROOT
BRANCH   1   2
ATOM      2  C   UNL     1       3.291  -3.592   0.748  0.00  0.00    +0.000 A 
ATOM      3  C   UNL     1       4.586  -3.392   1.223  0.00  0.00    +0.000 A 
ATOM      4  C   UNL     1       5.398  -4.492   1.518  0.00  0.00    +0.000 A 
ATOM      5  C   UNL     1       4.912  -5.779   1.305  0.00  0.00    +0.000 A 
ATOM      6  N   UNL     1       5.784  -6.876   1.520  0.00  0.00    +0.000 N 
ATOM      7  N   UNL     1       3.644  -5.986   0.893  0.00  0.00    +0.000 NA
ATOM      8  C   UNL     1       2.867  -4.908   0.634  0.00  0.00    +0.000 A 
ATOM      9  H   UNL     1       5.913  -6.956   2.527  0.00  0.00    +0.000 HD
BRANCH   6  10
ATOM     10  C   UNL     1       5.259  -8.109   0.931  0.00  0.00    +0.000 C 
BRANCH  10  11
ATOM     11  C   UNL     1       6.355  -9.147   0.631  0.00  0.00    +0.000 C 
ATOM     12  C   UNL     1       5.732 -10.290  -0.175  0.00  0.00    +0.000 C 
ATOM     13  C   UNL     1       5.198 -11.202   0.910  0.00  0.00    +0.000 C 
ATOM     14  N   UNL     1       6.277 -11.218   1.901  0.00  0.00    +0.000 NA
ATOM     15  C   UNL     1       6.912  -9.883   1.851  0.00  0.00    +0.000 C 
ATOM     16  H   UNL     1       6.968 -11.909   1.600  0.00  0.00    +0.000 HD
ENDBRANCH  10  11
ENDBRANCH   6  10
ENDBRANCH   1   2
BRANCH   1  19
ATOM     17  O   UNL     1       0.597  -0.293   0.562  0.00  0.00    +0.000 OA
ATOM     18  C   UNL     1       0.709  -1.027   1.540  0.00  0.00    +0.000 C 
ATOM     19  N   UNL     1       1.613  -2.058   1.581  0.00  0.00    +0.000 N 
ATOM     20  H   UNL     1       1.533  -2.745   2.322  0.00  0.00    +0.000 HD
BRANCH  18  21
ATOM     21  C   UNL     1      -0.092  -0.829   2.751  0.00  0.00    +0.000 A 
ATOM     22  C   UNL     1      -0.642   0.420   3.029  0.00  0.00    +0.000 A 
ATOM     23  S   UNL     1      -1.529   0.467   4.487  0.00  0.00    +0.000 S 
ATOM     24  C   UNL     1      -1.258  -1.189   4.773  0.00  0.00    +0.000 A 
ATOM     25  N   UNL     1      -1.785  -1.807   5.865  0.00  0.00    +0.000 NA
ATOM     26  C   UNL     1      -1.530  -3.074   5.933  0.00  0.00    +0.000 A 
ATOM     27  N   UNL     1      -0.785  -3.774   5.018  0.00  0.00    +0.000 N 
ATOM     28  C   UNL     1      -0.206  -3.180   3.929  0.00  0.00    +0.000 A 
ATOM     29  O   UNL     1       0.508  -3.818   3.159  0.00  0.00    +0.000 OA
ATOM     30  C   UNL     1      -0.480  -1.762   3.787  0.00  0.00    +0.000 A 
ATOM     31  H   UNL     1      -0.609  -4.756   5.142  0.00  0.00    +0.000 HD
ENDBRANCH  18  21
ENDBRANCH   1  19
TORSDOF 5
