REMARK  Name = 
REMARK  9 active torsions:
REMARK  status: ('A' for Active; 'I' for Inactive)
REMARK    1  A    between atoms: C_1  and  O_2
REMARK    2  A    between atoms: O_2  and  C_3
REMARK    3  A    between atoms: C_10  and  C_11
REMARK    4  A    between atoms: N_13  and  C_14
REMARK    5  A    between atoms: C_14  and  C_15
REMARK    6  A    between atoms: C_18  and  C_19
REMARK    7  A    between atoms: C_19  and  O_20
REMARK    8  A    between atoms: O_20  and  C_21
REMARK    9  A    between atoms: C_21  and  C_22
REMARK                            x       y       z     vdW  Elec       q    Type
REMARK                         _______ _______ _______ _____ _____    ______ ____
ROOT
ATOM      1  C   UNL     1       2.798   1.289   3.192  0.00  0.00    +0.000 C 
ENDROOT
BRANCH   1   2
ATOM      2  C   UNL     1       1.744   2.251   2.707  0.00  0.00    +0.000 A 
ATOM      3  C   UNL     1       0.463   1.799   2.364  0.00  0.00    +0.000 A 
ATOM      4  C   UNL     1      -0.499   2.690   1.873  0.00  0.00    +0.000 A 
ATOM      5  C   UNL     1      -0.199   4.049   1.709  0.00  0.00    +0.000 A 
ATOM      6  C   UNL     1       1.081   4.500   2.059  0.00  0.00    +0.000 A 
ATOM      7  C   UNL     1       2.043   3.611   2.548  0.00  0.00    +0.000 A 
BRANCH   5   8
ATOM      8  C   UNL     1      -1.220   4.999   1.131  0.00  0.00    +0.000 C 
BRANCH   8   9
ATOM      9  O   UNL     1      -2.374   5.020   1.964  0.00  0.00    +0.000 OA
BRANCH   9  10
ATOM     10  C   UNL     1      -3.360   5.935   1.471  0.00  0.00    +0.000 C 
BRANCH  10  11
ATOM     11  C   UNL     1      -4.589   5.945   2.353  0.00  0.00    +0.000 A 
ATOM     12  C   UNL     1      -4.484   5.738   3.728  0.00  0.00    +0.000 A 
ATOM     13  C   UNL     1      -5.635   5.769   4.509  0.00  0.00    +0.000 A 
ATOM     14  C   UNL     1      -6.860   6.022   3.905  0.00  0.00    +0.000 A 
ATOM     15  C   UNL     1      -6.880   6.240   2.538  0.00  0.00    +0.000 A 
ATOM     16  N   UNL     1      -5.779   6.214   1.753  0.00  0.00    +0.000 NA
ENDBRANCH  10  11
ENDBRANCH   9  10
ENDBRANCH   8   9
ENDBRANCH   5   8
ENDBRANCH   1   2
BRANCH   1  19
ATOM     17  C   UNL     1       4.546  -0.179   2.279  0.00  0.00    +0.000 C 
ATOM     18  O   UNL     1       4.828  -0.584   3.405  0.00  0.00    +0.000 OA
ATOM     19  N   UNL     1       3.558   0.748   2.087  0.00  0.00    +0.000 N 
ATOM     20  H   UNL     1       3.369   1.110   1.164  0.00  0.00    +0.000 HD
BRANCH  17  28
ATOM     21  C   UNL     1       4.196   0.360  -1.110  0.00  0.00    +0.000 A 
ATOM     22  N   UNL     1       4.293   0.395  -2.455  0.00  0.00    +0.000 NA
ATOM     23  C   UNL     1       5.245  -0.337  -3.038  0.00  0.00    +0.000 A 
ATOM     24  N   UNL     1       6.132  -1.121  -2.433  0.00  0.00    +0.000 NA
ATOM     25  C   UNL     1       6.007  -1.121  -1.095  0.00  0.00    +0.000 A 
ATOM     26  S   UNL     1       7.057  -2.073  -0.161  0.00  0.00    +0.000 S 
ATOM     27  C   UNL     1       6.313  -1.567   1.278  0.00  0.00    +0.000 A 
ATOM     28  C   UNL     1       5.265  -0.672   1.090  0.00  0.00    +0.000 A 
ATOM     29  C   UNL     1       5.080  -0.411  -0.336  0.00  0.00    +0.000 A 
BRANCH  21  31
ATOM     30  C   UNL     1       2.105   1.366  -1.359  0.00  0.00    +0.000 C 
ATOM     31  O   UNL     1       3.232   1.145  -0.512  0.00  0.00    +0.000 OA
ENDBRANCH  21  31
ENDBRANCH  17  28
ENDBRANCH   1  19
TORSDOF 8
