REMARK  Name = 
REMARK  7 active torsions:
REMARK  status: ('A' for Active; 'I' for Inactive)
REMARK    1  A    between atoms: C_1  and  N_2
REMARK    2  A    between atoms: N_2  and  C_3
REMARK    3  A    between atoms: C_3  and  C_4
REMARK    4  A    between atoms: C_7  and  O_8
REMARK    5  A    between atoms: O_8  and  C_9
REMARK    6  A    between atoms: C_9  and  C_10
REMARK    7  A    between atoms: C_13  and  C_14
REMARK                            x       y       z     vdW  Elec       q    Type
REMARK                         _______ _______ _______ _____ _____    ______ ____
ROOT
ATOM      1  O   UNL     1       8.647  -0.958   1.043  0.00  0.00    +0.000 OA
ENDROOT
BRANCH   1   5
ATOM      2  C   UNL     1       4.473  -0.943   0.916  0.00  0.00    +0.000 A 
ATOM      3  C   UNL     1       5.184  -1.670  -0.049  0.00  0.00    +0.000 A 
ATOM      4  C   UNL     1       6.579  -1.678  -0.048  0.00  0.00    +0.000 A 
ATOM      5  C   UNL     1       7.284  -0.965   0.922  0.00  0.00    +0.000 A 
ATOM      6  C   UNL     1       6.590  -0.190   1.849  0.00  0.00    +0.000 A 
ATOM      7  C   UNL     1       5.198  -0.188   1.843  0.00  0.00    +0.000 A 
ATOM      8  F   UNL     1       4.555   0.558   2.754  0.00  0.00    +0.000 F 
BRANCH   2   9
ATOM      9  C   UNL     1       2.967  -0.958   0.930  0.00  0.00    +0.000 C 
BRANCH   9  11
ATOM     10  C   UNL     1       0.992  -2.324   1.083  0.00  0.00    +0.000 C 
ATOM     11  N   UNL     1       2.447  -2.315   1.121  0.00  0.00    +0.000 NA
ATOM     12  H   UNL     1       2.800  -2.924   0.386  0.00  0.00    +0.000 HD
ENDBRANCH   9  11
ENDBRANCH   2   9
ENDBRANCH   1   5
BRANCH   1  13
ATOM     13  C   UNL     1       9.307  -2.099   0.478  0.00  0.00    +0.000 C 
BRANCH  13  14
ATOM     14  C   UNL     1      10.684  -2.264   1.075  0.00  0.00    +0.000 A 
ATOM     15  C   UNL     1      11.467  -1.155   1.387  0.00  0.00    +0.000 A 
ATOM     16  C   UNL     1      12.732  -1.353   1.936  0.00  0.00    +0.000 A 
ATOM     17  C   UNL     1      13.187  -2.654   2.149  0.00  0.00    +0.000 A 
ATOM     18  C   UNL     1      12.366  -3.705   1.775  0.00  0.00    +0.000 A 
ATOM     19  N   UNL     1      11.128  -3.537   1.243  0.00  0.00    +0.000 NA
BRANCH  17  20
ATOM     20  C   UNL     1      14.506  -2.955   2.736  0.00  0.00    +0.000 C 
ATOM     21  N   UNL     1      15.059  -2.005   3.550  0.00  0.00    +0.000 N 
ATOM     22  O   UNL     1      15.069  -4.022   2.534  0.00  0.00    +0.000 OA
ATOM     23  H   UNL     1      14.526  -1.235   3.931  0.00  0.00    +0.000 HD
ATOM     24  H   UNL     1      15.913  -2.264   4.028  0.00  0.00    +0.000 HD
ENDBRANCH  17  20
ENDBRANCH  13  14
ENDBRANCH   1  13
TORSDOF 6
