REMARK  Name = 
REMARK  3 active torsions:
REMARK  status: ('A' for Active; 'I' for Inactive)
REMARK    1  A    between atoms: C_1  and  C_2
REMARK    2  A    between atoms: C_2  and  C_3
REMARK    3  A    between atoms: C_8  and  C_9
REMARK                            x       y       z     vdW  Elec       q    Type
REMARK                         _______ _______ _______ _____ _____    ______ ____
ROOT
ATOM      1  C   UNL     1       1.111   0.042   0.289  0.00  0.00    +0.000 C 
ATOM      2  C   UNL     1       2.639   0.000   0.199  0.00  0.00    +0.000 C 
ATOM      3  C   UNL     1       3.090   0.071  -1.264  0.00  0.00    +0.000 C 
ATOM      4  N   UNL     1       3.116  -1.281   0.817  0.00  0.00    +0.000 NA
ATOM      5  C   UNL     1       3.899  -0.925   2.022  0.00  0.00    +0.000 C 
ATOM      6  C   UNL     1       3.982   0.557   2.065  0.00  0.00    +0.000 A 
ATOM      7  C   UNL     1       4.630   1.379   2.971  0.00  0.00    +0.000 A 
ATOM      8  C   UNL     1       4.527   2.762   2.793  0.00  0.00    +0.000 A 
ATOM      9  C   UNL     1       3.777   3.230   1.705  0.00  0.00    +0.000 A 
ATOM     10  N   UNL     1       3.137   2.433   0.804  0.00  0.00    +0.000 NA
ATOM     11  C   UNL     1       3.261   1.112   1.022  0.00  0.00    +0.000 A 
ATOM     12  H   UNL     1       3.745  -1.742   0.161  0.00  0.00    +0.000 HD
ENDROOT
BRANCH   8  13
ATOM     13  C   UNL     1       5.161   3.761   3.687  0.00  0.00    +0.000 C 
ATOM     14  N   UNL     1       5.891   3.317   4.755  0.00  0.00    +0.000 N 
ATOM     15  O   UNL     1       5.041   4.963   3.486  0.00  0.00    +0.000 OA
ATOM     16  H   UNL     1       6.033   2.353   5.011  0.00  0.00    +0.000 HD
ATOM     17  H   UNL     1       6.302   4.025   5.351  0.00  0.00    +0.000 HD
ENDBRANCH   8  13
TORSDOF 1
