REMARK  Name = 
REMARK  5 active torsions:
REMARK  status: ('A' for Active; 'I' for Inactive)
REMARK    1  A    between atoms: C_2  and  C_3
REMARK    2  A    between atoms: C_7  and  N_8
REMARK    3  A    between atoms: N_8  and  C_9
REMARK    4  A    between atoms: C_9  and  C_10
REMARK    5  A    between atoms: C_14  and  C_15
REMARK                            x       y       z     vdW  Elec       q    Type
REMARK                         _______ _______ _______ _____ _____    ______ ____
ROOT
ATOM      1  C   UNL     1      -2.575   4.880   0.188  0.00  0.00    +0.000 A 
ATOM      2  C   UNL     1      -3.938   4.643   0.395  0.00  0.00    +0.000 A 
ATOM      3  C   UNL     1      -4.821   5.710   0.542  0.00  0.00    +0.000 A 
ATOM      4  C   UNL     1      -4.349   7.024   0.501  0.00  0.00    +0.000 A 
ATOM      5  C   UNL     1      -2.984   7.305   0.319  0.00  0.00    +0.000 A 
ATOM      6  C   UNL     1      -2.120   6.210   0.127  0.00  0.00    +0.000 A 
ENDROOT
BRANCH   5   7
ATOM      7  C   UNL     1      -2.463   8.693   0.392  0.00  0.00    +0.000 A 
ATOM      8  C   UNL     1      -1.359   9.114  -0.372  0.00  0.00    +0.000 A 
ATOM      9  C   UNL     1      -0.845  10.413  -0.265  0.00  0.00    +0.000 A 
ATOM     10  C   UNL     1      -1.437  11.325   0.602  0.00  0.00    +0.000 A 
ATOM     11  C   UNL     1      -2.527  10.927   1.360  0.00  0.00    +0.000 A 
ATOM     12  F   UNL     1      -3.100  11.799   2.202  0.00  0.00    +0.000 F 
ATOM     13  C   UNL     1      -3.033   9.633   1.270  0.00  0.00    +0.000 A 
ENDBRANCH   5   7
BRANCH   1  14
ATOM     14  C   UNL     1      -1.590   3.737   0.087  0.00  0.00    +0.000 C 
BRANCH  14  15
ATOM     15  N   UNL     1      -1.551   3.199  -1.261  0.00  0.00    +0.000 N 
ATOM     16  H   UNL     1      -1.767   3.873  -1.991  0.00  0.00    +0.000 HD
BRANCH  15  21
ATOM     17  C   UNL     1       0.960   0.435  -1.136  0.00  0.00    +0.000 A 
ATOM     18  C   UNL     1       0.952   0.099  -2.481  0.00  0.00    +0.000 A 
ATOM     19  N   UNL     1       0.208   0.750  -3.403  0.00  0.00    +0.000 NA
ATOM     20  C   UNL     1      -0.564   1.771  -2.951  0.00  0.00    +0.000 A 
ATOM     21  C   UNL     1      -0.634   2.214  -1.624  0.00  0.00    +0.000 A 
ATOM     22  C   UNL     1       0.152   1.497  -0.711  0.00  0.00    +0.000 A 
BRANCH  17  24
ATOM     23  N   UNL     1       2.431  -0.899   0.534  0.00  0.00    +0.000 NA
ATOM     24  C   UNL     1       1.772  -0.302  -0.213  0.00  0.00    +0.000 C 
ENDBRANCH  17  24
ENDBRANCH  15  21
ENDBRANCH  14  15
ENDBRANCH   1  14
TORSDOF 5
