REMARK  Name = 
REMARK  3 active torsions:
REMARK  status: ('A' for Active; 'I' for Inactive)
REMARK    1  A    between atoms: C_2  and  C_4
REMARK    2  A    between atoms: N_8  and  C_9
REMARK    3  A    between atoms: C_9  and  C_10
REMARK                            x       y       z     vdW  Elec       q    Type
REMARK                         _______ _______ _______ _____ _____    ______ ____
ROOT
ATOM      1  C   UNL     1       3.077   0.488   1.101  0.00  0.00    +0.000 A 
ATOM      2  C   UNL     1       2.841  -0.212   2.279  0.00  0.00    +0.000 A 
ATOM      3  C   UNL     1       3.619   0.065   3.407  0.00  0.00    +0.000 A 
ATOM      4  C   UNL     1       4.614   1.037   3.338  0.00  0.00    +0.000 A 
ATOM      5  N   UNL     1       5.443   1.366   4.417  0.00  0.00    +0.000 N 
ATOM      6  N   UNL     1       4.858   1.715   2.198  0.00  0.00    +0.000 NA
ATOM      7  C   UNL     1       4.100   1.423   1.107  0.00  0.00    +0.000 A 
ATOM      8  H   UNL     1       6.006   2.166   4.145  0.00  0.00    +0.000 HD
ENDROOT
BRANCH   1  10
ATOM      9  N   UNL     1       1.054  -0.244  -0.036  0.00  0.00    +0.000 N 
ATOM     10  C   UNL     1       2.321   0.262  -0.147  0.00  0.00    +0.000 C 
ATOM     11  O   UNL     1       2.791   0.544  -1.241  0.00  0.00    +0.000 OA
ATOM     12  H   UNL     1       0.519  -0.307  -0.894  0.00  0.00    +0.000 HD
ATOM     13  H   UNL     1       0.545  -0.256   0.835  0.00  0.00    +0.000 HD
ENDBRANCH   1  10
BRANCH   5  14
ATOM     14  C   UNL     1       5.075   1.162   5.828  0.00  0.00    +0.000 C 
ATOM     15  C   UNL     1       3.843   1.867   6.370  0.00  0.00    +0.000 C 
ATOM     16  C   UNL     1       5.194   2.346   6.784  0.00  0.00    +0.000 C 
BRANCH  14  17
ATOM     17  C   UNL     1       5.483  -0.194   6.416  0.00  0.00    +0.000 A 
ATOM     18  C   UNL     1       6.796  -0.421   6.842  0.00  0.00    +0.000 A 
ATOM     19  N   UNL     1       7.221  -1.566   7.434  0.00  0.00    +0.000 NA
ATOM     20  C   UNL     1       6.275  -2.516   7.574  0.00  0.00    +0.000 A 
ATOM     21  C   UNL     1       4.974  -2.329   7.143  0.00  0.00    +0.000 A 
ATOM     22  N   UNL     1       4.551  -1.178   6.568  0.00  0.00    +0.000 NA
ENDBRANCH  14  17
ENDBRANCH   5  14
TORSDOF 3
