REMARK  Name = 
REMARK  8 active torsions:
REMARK  status: ('A' for Active; 'I' for Inactive)
REMARK    1  A    between atoms: C_1  and  C_2
REMARK    2  A    between atoms: C_2  and  N_3
REMARK    3  A    between atoms: C_2  and  C_26
REMARK    4  A    between atoms: N_3  and  C_4
REMARK    5  A    between atoms: C_4  and  C_5
REMARK    6  A    between atoms: C_8  and  C_9
REMARK    7  A    between atoms: C_9  and  N_10
REMARK    8  A    between atoms: C_11  and  C_13
REMARK                            x       y       z     vdW  Elec       q    Type
REMARK                         _______ _______ _______ _____ _____    ______ ____
ROOT
ATOM      1  C   UNL     1      -0.880  -0.836  -1.147  0.00  0.00    +0.000 A 
ATOM      2  C   UNL     1      -1.574  -1.881  -1.763  0.00  0.00    +0.000 A 
ATOM      3  C   UNL     1      -2.968  -1.910  -1.742  0.00  0.00    +0.000 A 
ATOM      4  C   UNL     1      -3.701  -0.890  -1.117  0.00  0.00    +0.000 A 
ATOM      5  C   UNL     1      -2.999   0.145  -0.495  0.00  0.00    +0.000 A 
ATOM      6  F   UNL     1      -3.660   1.128   0.132  0.00  0.00    +0.000 F 
ATOM      7  C   UNL     1      -1.607   0.188  -0.519  0.00  0.00    +0.000 A 
ENDROOT
BRANCH   1   8
ATOM      8  C   UNL     1       0.624  -0.782  -1.205  0.00  0.00    +0.000 C 
BRANCH   8   9
ATOM      9  N   UNL     1       1.215  -0.780   0.135  0.00  0.00    +0.000 NA
ATOM     10  H   UNL     1       0.941  -1.643   0.609  0.00  0.00    +0.000 HD
BRANCH   9  12
ATOM     11  C   UNL     1       3.159   0.548  -0.639  0.00  0.00    +0.000 C 
ATOM     12  C   UNL     1       2.692  -0.713   0.103  0.00  0.00    +0.000 C 
BRANCH  12  13
ATOM     13  C   UNL     1       3.289  -0.737   1.514  0.00  0.00    +0.000 A 
ATOM     14  C   UNL     1       2.967   0.246   2.440  0.00  0.00    +0.000 A 
ATOM     15  N   UNL     1       3.519   0.325   3.679  0.00  0.00    +0.000 NA
ATOM     16  C   UNL     1       4.410  -0.646   3.969  0.00  0.00    +0.000 A 
ATOM     17  C   UNL     1       4.725  -1.650   3.071  0.00  0.00    +0.000 A 
ATOM     18  N   UNL     1       4.177  -1.724   1.830  0.00  0.00    +0.000 NA
ENDBRANCH  12  13
ENDBRANCH   9  12
ENDBRANCH   8   9
ENDBRANCH   1   8
BRANCH   4  19
ATOM     19  C   UNL     1      -5.203  -0.929  -1.127  0.00  0.00    +0.000 C 
BRANCH  19  20
ATOM     20  N   UNL     1      -5.718  -1.690  -0.015  0.00  0.00    +0.000 N 
ATOM     21  C   UNL     1      -6.901  -2.371  -0.084  0.00  0.00    +0.000 C 
ATOM     22  O   UNL     1      -7.567  -2.465  -1.114  0.00  0.00    +0.000 OA
ATOM     23  H   UNL     1      -5.361  -1.424   0.898  0.00  0.00    +0.000 HD
BRANCH  21  24
ATOM     24  C   UNL     1      -7.296  -3.076   1.147  0.00  0.00    +0.000 A 
ATOM     25  C   UNL     1      -8.056  -4.234   1.077  0.00  0.00    +0.000 A 
ATOM     26  S   UNL     1      -8.359  -4.941   2.602  0.00  0.00    +0.000 S 
ATOM     27  C   UNL     1      -7.528  -3.694   3.410  0.00  0.00    +0.000 A 
ATOM     28  N   UNL     1      -7.427  -3.680   4.765  0.00  0.00    +0.000 NA
ATOM     29  C   UNL     1      -6.777  -2.667   5.240  0.00  0.00    +0.000 A 
ATOM     30  N   UNL     1      -6.218  -1.674   4.485  0.00  0.00    +0.000 N 
ATOM     31  C   UNL     1      -6.283  -1.652   3.112  0.00  0.00    +0.000 A 
ATOM     32  O   UNL     1      -5.748  -0.764   2.460  0.00  0.00    +0.000 OA
ATOM     33  C   UNL     1      -7.007  -2.767   2.528  0.00  0.00    +0.000 A 
ATOM     34  H   UNL     1      -5.710  -0.915   4.917  0.00  0.00    +0.000 HD
ENDBRANCH  21  24
ENDBRANCH  19  20
ENDBRANCH   4  19
TORSDOF 7
