REMARK  Name = 
REMARK  7 active torsions:
REMARK  status: ('A' for Active; 'I' for Inactive)
REMARK    1  A    between atoms: C_2  and  C_20
REMARK    2  A    between atoms: N_3  and  C_4
REMARK    3  A    between atoms: C_4  and  C_5
REMARK    4  A    between atoms: C_8  and  C_9
REMARK    5  A    between atoms: C_9  and  N_10
REMARK    6  A    between atoms: N_10  and  C_11
REMARK    7  A    between atoms: C_14  and  O_15
REMARK                            x       y       z     vdW  Elec       q    Type
REMARK                         _______ _______ _______ _____ _____    ______ ____
ROOT
ATOM      1  C   UNL     1      12.278   4.030   7.337  0.00  0.00    +0.000 A 
ATOM      2  C   UNL     1      11.167   4.825   7.156  0.00  0.00    +0.000 A 
ATOM      3  N   UNL     1       9.901   4.393   7.319  0.00  0.00    +0.000 NA
ATOM      4  C   UNL     1       9.748   3.107   7.703  0.00  0.00    +0.000 A 
ATOM      5  N   UNL     1      10.766   2.252   7.928  0.00  0.00    +0.000 NA
ATOM      6  C   UNL     1      12.008   2.737   7.744  0.00  0.00    +0.000 A 
ENDROOT
BRANCH   1   7
ATOM      7  C   UNL     1      13.667   4.570   7.243  0.00  0.00    +0.000 C 
BRANCH   7  10
ATOM      8  O   UNL     1      16.101   5.940   7.924  0.00  0.00    +0.000 OA
ATOM      9  C   UNL     1      15.321   5.563   8.790  0.00  0.00    +0.000 C 
ATOM     10  N   UNL     1      14.074   5.031   8.542  0.00  0.00    +0.000 N 
ATOM     11  H   UNL     1      13.613   4.582   9.320  0.00  0.00    +0.000 HD
BRANCH   9  12
ATOM     12  C   UNL     1      15.685   5.362  10.188  0.00  0.00    +0.000 A 
ATOM     13  C   UNL     1      16.914   4.859  10.572  0.00  0.00    +0.000 A 
ATOM     14  S   UNL     1      16.818   4.089  12.105  0.00  0.00    +0.000 S 
ATOM     15  C   UNL     1      15.197   4.576  12.314  0.00  0.00    +0.000 A 
ATOM     16  N   UNL     1      14.416   4.122  13.330  0.00  0.00    +0.000 NA
ATOM     17  C   UNL     1      13.228   4.636  13.358  0.00  0.00    +0.000 A 
ATOM     18  N   UNL     1      12.768   5.604  12.497  0.00  0.00    +0.000 N 
ATOM     19  C   UNL     1      13.521   6.095  11.457  0.00  0.00    +0.000 A 
ATOM     20  O   UNL     1      13.119   6.989  10.722  0.00  0.00    +0.000 OA
ATOM     21  C   UNL     1      14.807   5.444  11.318  0.00  0.00    +0.000 A 
ATOM     22  H   UNL     1      11.857   6.022  12.624  0.00  0.00    +0.000 HD
ENDBRANCH   9  12
ENDBRANCH   7  10
ENDBRANCH   1   7
BRANCH   4  23
ATOM     23  C   UNL     1       8.329   2.571   7.803  0.00  0.00    +0.000 C 
BRANCH  23  24
ATOM     24  N   UNL     1       7.553   2.632   6.544  0.00  0.00    +0.000 NA
ATOM     25  H   UNL     1       7.547   3.615   6.263  0.00  0.00    +0.000 HD
BRANCH  24  26
ATOM     26  C   UNL     1       8.136   1.838   5.449  0.00  0.00    +0.000 C 
ATOM     27  C   UNL     1       8.203   0.338   5.784  0.00  0.00    +0.000 C 
ATOM     28  C   UNL     1       8.663  -0.494   4.592  0.00  0.00    +0.000 C 
ATOM     29  C   UNL     1       7.778  -0.252   3.375  0.00  0.00    +0.000 C 
ATOM     30  C   UNL     1       7.745   1.229   3.009  0.00  0.00    +0.000 C 
ATOM     31  C   UNL     1       7.286   2.083   4.187  0.00  0.00    +0.000 C 
BRANCH  29  32
ATOM     32  O   UNL     1       8.262  -1.010   2.272  0.00  0.00    +0.000 OA
ATOM     33  H   UNL     1       9.158  -0.699   2.062  0.00  0.00    +0.000 HD
ENDBRANCH  29  32
ENDBRANCH  24  26
ENDBRANCH  23  24
ENDBRANCH   4  23
TORSDOF 7
