REMARK  Name = 
REMARK  5 active torsions:
REMARK  status: ('A' for Active; 'I' for Inactive)
REMARK    1  A    between atoms: C_7  and  C_8
REMARK    2  A    between atoms: N_10  and  C_11
REMARK    3  A    between atoms: C_11  and  C_12
REMARK    4  A    between atoms: C_15  and  C_16
REMARK    5  A    between atoms: C_16  and  N_17
REMARK                            x       y       z     vdW  Elec       q    Type
REMARK                         _______ _______ _______ _____ _____    ______ ____
ROOT
ATOM      1  C   UNL     1       8.982   1.131  -1.460  0.00  0.00    +0.000 C 
ATOM      2  O   UNL     1       9.253   0.394  -0.513  0.00  0.00    +0.000 OA
ATOM      3  N   UNL     1       8.512   2.402  -1.256  0.00  0.00    +0.000 N 
ATOM      4  H   UNL     1       8.286   3.004  -2.043  0.00  0.00    +0.000 HD
ENDROOT
BRANCH   1  11
ATOM      5  N   UNL     1       8.617   2.593  -8.014  0.00  0.00    +0.000 N 
ATOM      6  C   UNL     1       8.714   2.118  -6.748  0.00  0.00    +0.000 A 
ATOM      7  N   UNL     1       9.137   0.912  -6.521  0.00  0.00    +0.000 NA
ATOM      8  C   UNL     1       9.226   0.564  -5.209  0.00  0.00    +0.000 A 
ATOM      9  S   UNL     1       9.792  -0.973  -4.753  0.00  0.00    +0.000 S 
ATOM     10  C   UNL     1       9.642  -0.597  -3.097  0.00  0.00    +0.000 A 
ATOM     11  C   UNL     1       9.154   0.682  -2.851  0.00  0.00    +0.000 A 
ATOM     12  C   UNL     1       8.911   1.348  -4.113  0.00  0.00    +0.000 A 
ATOM     13  C   UNL     1       8.417   2.677  -4.411  0.00  0.00    +0.000 A 
ATOM     14  O   UNL     1       8.087   3.499  -3.564  0.00  0.00    +0.000 OA
ATOM     15  N   UNL     1       8.346   2.977  -5.751  0.00  0.00    +0.000 N 
ATOM     16  H   UNL     1       8.671   1.874  -8.729  0.00  0.00    +0.000 HD
ATOM     17  H   UNL     1       7.971   3.341  -8.218  0.00  0.00    +0.000 HD
ATOM     18  H   UNL     1       8.038   3.910  -5.972  0.00  0.00    +0.000 HD
ENDBRANCH   1  11
BRANCH   3  19
ATOM     19  C   UNL     1       8.316   2.931   0.070  0.00  0.00    +0.000 C 
BRANCH  19  20
ATOM     20  C   UNL     1       7.846   4.356   0.038  0.00  0.00    +0.000 A 
ATOM     21  C   UNL     1       8.746   5.422   0.001  0.00  0.00    +0.000 A 
ATOM     22  C   UNL     1       8.272   6.733  -0.017  0.00  0.00    +0.000 A 
ATOM     23  C   UNL     1       6.897   6.952  -0.012  0.00  0.00    +0.000 A 
ATOM     24  N   UNL     1       6.001   5.930  -0.005  0.00  0.00    +0.000 NA
ATOM     25  C   UNL     1       6.492   4.669   0.013  0.00  0.00    +0.000 A 
BRANCH  23  26
ATOM     26  C   UNL     1       6.343   8.366   0.026  0.00  0.00    +0.000 C 
BRANCH  26  27
ATOM     27  N   UNL     1       6.709   9.234  -1.127  0.00  0.00    +0.000 NA
ATOM     28  C   UNL     1       6.145   8.677  -2.371  0.00  0.00    +0.000 C 
ATOM     29  C   UNL     1       6.312   9.609  -3.573  0.00  0.00    +0.000 C 
ATOM     30  C   UNL     1       5.725  10.982  -3.287  0.00  0.00    +0.000 C 
ATOM     31  C   UNL     1       6.373  11.554  -2.035  0.00  0.00    +0.000 C 
ATOM     32  C   UNL     1       6.216  10.597  -0.853  0.00  0.00    +0.000 C 
ENDBRANCH  26  27
ENDBRANCH  23  26
ENDBRANCH  19  20
ENDBRANCH   3  19
TORSDOF 5
