REMARK  Name = 
REMARK  6 active torsions:
REMARK  status: ('A' for Active; 'I' for Inactive)
REMARK    1  A    between atoms: C_1  and  C_2
REMARK    2  A    between atoms: C_3  and  C_4
REMARK    3  A    between atoms: C_7  and  C_8
REMARK    4  A    between atoms: C_8  and  N_9
REMARK    5  A    between atoms: N_9  and  C_10
REMARK    6  A    between atoms: C_13  and  C_14
REMARK                            x       y       z     vdW  Elec       q    Type
REMARK                         _______ _______ _______ _____ _____    ______ ____
ROOT
ATOM      1  N   UNL     1       9.819   1.417   0.902  0.00  0.00    +0.000 N 
ATOM      2  H   UNL     1       9.270   1.376   1.763  0.00  0.00    +0.000 HD
ENDROOT
BRANCH   1   3
ATOM      3  C   UNL     1       9.867   2.755   0.465  0.00  0.00    +0.000 A 
ATOM      4  C   UNL     1       9.918   3.172  -0.863  0.00  0.00    +0.000 A 
ATOM      5  C   UNL     1      10.088   4.528  -1.155  0.00  0.00    +0.000 A 
ATOM      6  C   UNL     1      10.214   5.426  -0.097  0.00  0.00    +0.000 A 
ATOM      7  N   UNL     1      10.150   5.070   1.211  0.00  0.00    +0.000 NA
ATOM      8  C   UNL     1       9.987   3.752   1.444  0.00  0.00    +0.000 A 
BRANCH   6   9
ATOM      9  C   UNL     1      10.456   6.877  -0.361  0.00  0.00    +0.000 C 
ATOM     10  N   UNL     1      10.555   7.669   0.747  0.00  0.00    +0.000 N 
ATOM     11  O   UNL     1      10.569   7.334  -1.501  0.00  0.00    +0.000 OA
ATOM     12  H   UNL     1      10.486   7.246   1.665  0.00  0.00    +0.000 HD
ATOM     13  H   UNL     1      10.757   8.655   0.650  0.00  0.00    +0.000 HD
ENDBRANCH   6   9
ENDBRANCH   1   3
BRANCH   1  14
ATOM     14  C   UNL     1       9.509   0.260   0.031  0.00  0.00    +0.000 C 
ATOM     15  C   UNL     1      10.431  -0.314  -1.025  0.00  0.00    +0.000 C 
ATOM     16  C   UNL     1      10.395  -0.964   0.314  0.00  0.00    +0.000 C 
BRANCH  14  20
ATOM     17  C   UNL     1       5.390  -0.666  -0.413  0.00  0.00    +0.000 A 
ATOM     18  C   UNL     1       6.012   0.236  -1.244  0.00  0.00    +0.000 A 
ATOM     19  N   UNL     1       7.311   0.586  -1.123  0.00  0.00    +0.000 NA
ATOM     20  C   UNL     1       8.003  -0.002  -0.121  0.00  0.00    +0.000 A 
ATOM     21  N   UNL     1       7.452  -0.850   0.772  0.00  0.00    +0.000 NA
ATOM     22  C   UNL     1       6.165  -1.181   0.593  0.00  0.00    +0.000 A 
BRANCH  17  25
ATOM     23  C   UNL     1       1.309  -1.745  -0.808  0.00  0.00    +0.000 C 
ATOM     24  C   UNL     1       2.777  -1.375  -0.672  0.00  0.00    +0.000 C 
ATOM     25  C   UNL     1       4.036  -1.057  -0.555  0.00  0.00    +0.000 C 
ENDBRANCH  17  25
ENDBRANCH  14  20
ENDBRANCH   1  14
TORSDOF 5
