REMARK  Name = 
REMARK  6 active torsions:
REMARK  status: ('A' for Active; 'I' for Inactive)
REMARK    1  A    between atoms: C_2  and  C_25
REMARK    2  A    between atoms: N_3  and  C_4
REMARK    3  A    between atoms: C_4  and  C_5
REMARK    4  A    between atoms: C_8  and  C_9
REMARK    5  A    between atoms: C_9  and  N_10
REMARK    6  A    between atoms: C_11  and  C_13
REMARK                            x       y       z     vdW  Elec       q    Type
REMARK                         _______ _______ _______ _____ _____    ______ ____
ROOT
ATOM      1  C   UNL     1       3.204   2.350   2.914  0.00  0.00    +0.000 A 
ATOM      2  C   UNL     1       3.101   3.741   2.967  0.00  0.00    +0.000 A 
ATOM      3  C   UNL     1       3.923   4.465   3.827  0.00  0.00    +0.000 A 
ATOM      4  C   UNL     1       4.816   3.775   4.642  0.00  0.00    +0.000 A 
ATOM      5  N   UNL     1       4.943   2.423   4.600  0.00  0.00    +0.000 NA
ATOM      6  C   UNL     1       4.142   1.749   3.744  0.00  0.00    +0.000 A 
ENDROOT
BRANCH   1   7
ATOM      7  C   UNL     1       2.337   1.534   2.011  0.00  0.00    +0.000 C 
BRANCH   7  10
ATOM      8  O   UNL     1       0.374  -0.034   0.805  0.00  0.00    +0.000 OA
ATOM      9  C   UNL     1       0.200   0.333   1.964  0.00  0.00    +0.000 C 
ATOM     10  N   UNL     1       1.120   1.102   2.650  0.00  0.00    +0.000 N 
ATOM     11  H   UNL     1       0.883   1.382   3.598  0.00  0.00    +0.000 HD
BRANCH   9  12
ATOM     12  C   UNL     1      -1.037  -0.034   2.719  0.00  0.00    +0.000 A 
ATOM     13  C   UNL     1      -2.002  -0.816   2.094  0.00  0.00    +0.000 A 
ATOM     14  C   UNL     1      -3.148  -1.148   2.810  0.00  0.00    +0.000 A 
ATOM     15  C   UNL     1      -3.289  -0.688   4.115  0.00  0.00    +0.000 A 
ATOM     16  C   UNL     1      -2.273   0.088   4.657  0.00  0.00    +0.000 A 
ATOM     17  N   UNL     1      -1.144   0.431   3.995  0.00  0.00    +0.000 NA
ENDBRANCH   9  12
ENDBRANCH   7  10
ENDBRANCH   1   7
BRANCH   4  18
ATOM     18  C   UNL     1       5.689   4.523   5.619  0.00  0.00    +0.000 C 
BRANCH  18  19
ATOM     19  N   UNL     1       6.961   4.903   5.049  0.00  0.00    +0.000 N 
ATOM     20  C   UNL     1       7.211   6.161   4.574  0.00  0.00    +0.000 C 
ATOM     21  O   UNL     1       6.356   7.043   4.585  0.00  0.00    +0.000 OA
ATOM     22  H   UNL     1       7.592   4.138   4.830  0.00  0.00    +0.000 HD
BRANCH  20  23
ATOM     23  C   UNL     1       8.581   6.430   4.117  0.00  0.00    +0.000 A 
ATOM     24  C   UNL     1       9.045   7.739   4.078  0.00  0.00    +0.000 A 
ATOM     25  S   UNL     1      10.667   7.877   3.569  0.00  0.00    +0.000 S 
ATOM     26  C   UNL     1      10.795   6.197   3.340  0.00  0.00    +0.000 A 
ATOM     27  N   UNL     1      11.947   5.641   2.877  0.00  0.00    +0.000 NA
ATOM     28  C   UNL     1      11.894   4.361   2.714  0.00  0.00    +0.000 A 
ATOM     29  N   UNL     1      10.797   3.586   2.983  0.00  0.00    +0.000 N 
ATOM     30  C   UNL     1       9.633   4.095   3.507  0.00  0.00    +0.000 A 
ATOM     31  O   UNL     1       8.706   3.360   3.828  0.00  0.00    +0.000 OA
ATOM     32  C   UNL     1       9.625   5.536   3.672  0.00  0.00    +0.000 A 
ATOM     33  H   UNL     1      10.825   2.584   2.856  0.00  0.00    +0.000 HD
ENDBRANCH  20  23
ENDBRANCH  18  19
ENDBRANCH   4  18
TORSDOF 6
