REMARK  Name = 
REMARK  8 active torsions:
REMARK  status: ('A' for Active; 'I' for Inactive)
REMARK    1  A    between atoms: C_1  and  C_2
REMARK    2  A    between atoms: C_2  and  N_3
REMARK    3  A    between atoms: C_2  and  C_17
REMARK    4  A    between atoms: C_4  and  C_6
REMARK    5  A    between atoms: N_12  and  C_13
REMARK    6  A    between atoms: C_20  and  C_21
REMARK    7  A    between atoms: C_21  and  O_22
REMARK    8  A    between atoms: C_21  and  C_23
REMARK                            x       y       z     vdW  Elec       q    Type
REMARK                         _______ _______ _______ _____ _____    ______ ____
ROOT
ATOM      1  C   UNL     1       0.946   0.115  -0.080  0.00  0.00    +0.000 C 
ATOM      2  C   UNL     1       2.474   0.101  -0.098  0.00  0.00    +0.000 C 
ENDROOT
BRANCH   2   3
ATOM      3  C   UNL     1       2.969  -1.325   0.111  0.00  0.00    +0.000 A 
ATOM      4  N   UNL     1       3.199  -2.077  -0.984  0.00  0.00    +0.000 NA
ATOM      5  C   UNL     1       3.657  -3.327  -0.768  0.00  0.00    +0.000 A 
ATOM      6  C   UNL     1       3.890  -3.865   0.481  0.00  0.00    +0.000 A 
ATOM      7  C   UNL     1       3.590  -3.022   1.531  0.00  0.00    +0.000 A 
ATOM      8  N   UNL     1       3.137  -1.759   1.378  0.00  0.00    +0.000 NA
BRANCH   6   9
ATOM      9  C   UNL     1       4.390  -5.267   0.669  0.00  0.00    +0.000 C 
BRANCH   9  10
ATOM     10  C   UNL     1       3.273  -6.300   0.714  0.00  0.00    +0.000 A 
ATOM     11  C   UNL     1       2.827  -6.924  -0.451  0.00  0.00    +0.000 A 
ATOM     12  C   UNL     1       1.777  -7.833  -0.365  0.00  0.00    +0.000 A 
ATOM     13  C   UNL     1       1.204  -8.100   0.873  0.00  0.00    +0.000 A 
ATOM     14  C   UNL     1       1.719  -7.456   1.986  0.00  0.00    +0.000 A 
ATOM     15  N   UNL     1       2.740  -6.572   1.939  0.00  0.00    +0.000 NA
ENDBRANCH   9  10
BRANCH   9  16
ATOM     16  O   UNL     1       5.153  -5.330   1.883  0.00  0.00    +0.000 OA
ATOM     17  H   UNL     1       4.619  -5.889   2.485  0.00  0.00    +0.000 HD
ENDBRANCH   9  16
ENDBRANCH   6   9
ENDBRANCH   2   3
BRANCH   2  18
ATOM     18  N   UNL     1       3.008   0.991   0.922  0.00  0.00    +0.000 N 
ATOM     19  C   UNL     1       3.211   2.328   0.738  0.00  0.00    +0.000 C 
ATOM     20  O   UNL     1       3.100   2.874  -0.355  0.00  0.00    +0.000 OA
ATOM     21  H   UNL     1       2.986   0.601   1.860  0.00  0.00    +0.000 HD
BRANCH  19  22
ATOM     22  C   UNL     1       3.625   3.072   1.933  0.00  0.00    +0.000 A 
ATOM     23  C   UNL     1       4.437   4.191   1.826  0.00  0.00    +0.000 A 
ATOM     24  S   UNL     1       4.808   4.902   3.334  0.00  0.00    +0.000 S 
ATOM     25  C   UNL     1       3.865   3.759   4.172  0.00  0.00    +0.000 A 
ATOM     26  N   UNL     1       3.732   3.809   5.522  0.00  0.00    +0.000 NA
ATOM     27  C   UNL     1       2.970   2.889   6.020  0.00  0.00    +0.000 A 
ATOM     28  N   UNL     1       2.321   1.910   5.300  0.00  0.00    +0.000 N 
ATOM     29  C   UNL     1       1.498   0.916   5.955  0.00  0.00    +0.000 C 
ATOM     30  C   UNL     1       2.442   1.825   3.917  0.00  0.00    +0.000 A 
ATOM     31  O   UNL     1       1.888   0.950   3.260  0.00  0.00    +0.000 OA
ATOM     32  C   UNL     1       3.290   2.839   3.319  0.00  0.00    +0.000 A 
ENDBRANCH  19  22
ENDBRANCH   2  18
TORSDOF 6
