REMARK  Name = 
REMARK  11 active torsions:
REMARK  status: ('A' for Active; 'I' for Inactive)
REMARK    1  A    between atoms: C_1  and  O_2
REMARK    2  A    between atoms: O_2  and  C_3
REMARK    3  A    between atoms: C_8  and  C_9
REMARK    4  A    between atoms: C_9  and  N_10
REMARK    5  A    between atoms: N_10  and  C_11
REMARK    6  A    between atoms: C_11  and  C_12
REMARK    7  A    between atoms: C_15  and  C_16
REMARK    8  A    between atoms: C_16  and  N_17
REMARK    9  A    between atoms: C_18  and  C_20
REMARK   10  A    between atoms: C_27  and  O_28
REMARK   11  A    between atoms: O_28  and  C_29
REMARK                            x       y       z     vdW  Elec       q    Type
REMARK                         _______ _______ _______ _____ _____    ______ ____
ROOT
ATOM      1  C   UNL     1       3.116  -4.041  -1.102  0.00  0.00    +0.000 A 
ATOM      2  C   UNL     1       3.354  -5.412  -1.275  0.00  0.00    +0.000 A 
ATOM      3  C   UNL     1       2.595  -6.368  -0.592  0.00  0.00    +0.000 A 
ATOM      4  C   UNL     1       1.579  -5.976   0.287  0.00  0.00    +0.000 A 
ATOM      5  C   UNL     1       1.364  -4.606   0.494  0.00  0.00    +0.000 A 
ATOM      6  C   UNL     1       2.121  -3.649  -0.195  0.00  0.00    +0.000 A 
ENDROOT
BRANCH   1   7
ATOM      7  C   UNL     1       3.925  -3.012  -1.870  0.00  0.00    +0.000 C 
BRANCH   7   8
ATOM      8  N   UNL     1       3.724  -3.151  -3.312  0.00  0.00    +0.000 NA
ATOM      9  H   UNL     1       3.952  -4.102  -3.597  0.00  0.00    +0.000 HD
BRANCH   8  10
ATOM     10  C   UNL     1       4.580  -2.241  -4.082  0.00  0.00    +0.000 C 
BRANCH  10  16
ATOM     11  C   UNL     1       5.341  -2.649  -6.505  0.00  0.00    +0.000 A 
ATOM     12  C   UNL     1       5.025  -2.726  -7.870  0.00  0.00    +0.000 A 
ATOM     13  C   UNL     1       3.716  -2.527  -8.314  0.00  0.00    +0.000 A 
ATOM     14  C   UNL     1       2.706  -2.259  -7.400  0.00  0.00    +0.000 A 
ATOM     15  C   UNL     1       3.006  -2.184  -6.042  0.00  0.00    +0.000 A 
ATOM     16  C   UNL     1       4.320  -2.381  -5.572  0.00  0.00    +0.000 A 
BRANCH  11  18
ATOM     17  C   UNL     1       7.683  -2.726  -6.922  0.00  0.00    +0.000 C 
ATOM     18  O   UNL     1       6.601  -2.862  -6.005  0.00  0.00    +0.000 OA
ENDBRANCH  11  18
ENDBRANCH  10  16
ENDBRANCH   8  10
ENDBRANCH   7   8
ENDBRANCH   1   7
BRANCH   4  19
ATOM     19  C   UNL     1       0.766  -7.005   1.031  0.00  0.00    +0.000 C 
BRANCH  19  20
ATOM     20  N   UNL     1       1.410  -7.373   2.266  0.00  0.00    +0.000 N 
ATOM     21  C   UNL     1       0.875  -8.303   3.117  0.00  0.00    +0.000 C 
ATOM     22  O   UNL     1      -0.148  -8.926   2.847  0.00  0.00    +0.000 OA
ATOM     23  H   UNL     1       2.171  -6.786   2.583  0.00  0.00    +0.000 HD
BRANCH  21  24
ATOM     24  C   UNL     1       1.639  -8.569   4.344  0.00  0.00    +0.000 A 
ATOM     25  C   UNL     1       1.507  -9.798   4.977  0.00  0.00    +0.000 A 
ATOM     26  S   UNL     1       2.523  -9.974   6.332  0.00  0.00    +0.000 S 
ATOM     27  C   UNL     1       3.128  -8.397   6.147  0.00  0.00    +0.000 A 
ATOM     28  N   UNL     1       4.044  -7.929   7.009  0.00  0.00    +0.000 NA
ATOM     29  C   UNL     1       4.403  -6.670   6.748  0.00  0.00    +0.000 A 
ATOM     30  N   UNL     1       3.943  -5.884   5.768  0.00  0.00    +0.000 NA
ATOM     31  C   UNL     1       3.021  -6.395   4.929  0.00  0.00    +0.000 A 
ATOM     32  C   UNL     1       2.571  -7.720   5.069  0.00  0.00    +0.000 A 
BRANCH  31  33
ATOM     33  O   UNL     1       2.512  -5.601   3.922  0.00  0.00    +0.000 OA
ATOM     34  C   UNL     1       3.095  -4.303   3.859  0.00  0.00    +0.000 C 
ENDBRANCH  31  33
ENDBRANCH  21  24
ENDBRANCH  19  20
ENDBRANCH   4  19
TORSDOF 9
