REMARK  Name = 
REMARK  8 active torsions:
REMARK  status: ('A' for Active; 'I' for Inactive)
REMARK    1  A    between atoms: C_2  and  O_3
REMARK    2  A    between atoms: C_2  and  C_20
REMARK    3  A    between atoms: O_3  and  C_4
REMARK    4  A    between atoms: C_4  and  C_5
REMARK    5  A    between atoms: C_8  and  C_9
REMARK    6  A    between atoms: C_9  and  N_10
REMARK    7  A    between atoms: N_10  and  C_11
REMARK    8  A    between atoms: C_11  and  C_12
REMARK                            x       y       z     vdW  Elec       q    Type
REMARK                         _______ _______ _______ _____ _____    ______ ____
ROOT
ATOM      1  C   UNL     1       4.928   2.494   0.387  0.00  0.00    +0.000 A 
ATOM      2  C   UNL     1       4.281   3.550  -0.263  0.00  0.00    +0.000 A 
ATOM      3  C   UNL     1       4.671   4.869  -0.024  0.00  0.00    +0.000 A 
ATOM      4  C   UNL     1       5.702   5.165   0.881  0.00  0.00    +0.000 A 
ATOM      5  C   UNL     1       6.350   4.106   1.526  0.00  0.00    +0.000 A 
ATOM      6  C   UNL     1       5.958   2.787   1.289  0.00  0.00    +0.000 A 
ENDROOT
BRANCH   1   7
ATOM      7  C   UNL     1       4.536   1.067   0.105  0.00  0.00    +0.000 C 
BRANCH   7   8
ATOM      8  O   UNL     1       5.660   0.312  -0.366  0.00  0.00    +0.000 OA
BRANCH   8  10
ATOM      9  O   UNL     1       5.200   0.997  -2.500  0.00  0.00    +0.000 OA
ATOM     10  C   UNL     1       5.911   0.403  -1.697  0.00  0.00    +0.000 C 
BRANCH  10  11
ATOM     11  C   UNL     1       7.074  -0.379  -2.112  0.00  0.00    +0.000 A 
ATOM     12  C   UNL     1       7.127  -0.944  -3.377  0.00  0.00    +0.000 A 
ATOM     13  S   UNL     1       8.541  -1.859  -3.648  0.00  0.00    +0.000 S 
ATOM     14  C   UNL     1       9.160  -1.464  -2.111  0.00  0.00    +0.000 A 
ATOM     15  N   UNL     1      10.389  -1.895  -1.723  0.00  0.00    +0.000 NA
ATOM     16  C   UNL     1      10.755  -1.479  -0.557  0.00  0.00    +0.000 A 
ATOM     17  N   UNL     1       9.996  -0.686   0.261  0.00  0.00    +0.000 N 
ATOM     18  C   UNL     1       8.739  -0.234  -0.078  0.00  0.00    +0.000 A 
ATOM     19  O   UNL     1       8.118   0.490   0.687  0.00  0.00    +0.000 OA
ATOM     20  C   UNL     1       8.286  -0.669  -1.388  0.00  0.00    +0.000 A 
ATOM     21  H   UNL     1      10.343  -0.377   1.156  0.00  0.00    +0.000 HD
ENDBRANCH  10  11
ENDBRANCH   8  10
ENDBRANCH   7   8
ENDBRANCH   1   7
BRANCH   4  22
ATOM     22  C   UNL     1       6.165   6.585   1.117  0.00  0.00    +0.000 C 
BRANCH  22  23
ATOM     23  N   UNL     1       5.055   7.529   1.026  0.00  0.00    +0.000 NA
ATOM     24  H   UNL     1       4.350   7.272   1.715  0.00  0.00    +0.000 HD
BRANCH  23  25
ATOM     25  C   UNL     1       5.478   8.909   1.228  0.00  0.00    +0.000 C 
BRANCH  25  26
ATOM     26  C   UNL     1       4.267   9.847   1.043  0.00  0.00    +0.000 C 
ATOM     27  C   UNL     1       3.659   9.770  -0.370  0.00  0.00    +0.000 C 
ATOM     28  C   UNL     1       4.538  10.453  -1.417  0.00  0.00    +0.000 C 
ATOM     29  N   UNL     1       4.825  11.844  -1.057  0.00  0.00    +0.000 NA
ATOM     30  C   UNL     1       5.493  11.927   0.241  0.00  0.00    +0.000 C 
ATOM     31  C   UNL     1       4.648  11.302   1.352  0.00  0.00    +0.000 C 
ATOM     32  H   UNL     1       3.943  12.354  -1.007  0.00  0.00    +0.000 HD
ENDBRANCH  25  26
ENDBRANCH  23  25
ENDBRANCH  22  23
ENDBRANCH   4  22
TORSDOF 8
