REMARK  Name = 
REMARK  7 active torsions:
REMARK  status: ('A' for Active; 'I' for Inactive)
REMARK    1  A    between atoms: C_1  and  C_2
REMARK    2  A    between atoms: C_2  and  C_3
REMARK    3  A    between atoms: C_2  and  C_14
REMARK    4  A    between atoms: C_4  and  C_5
REMARK    5  A    between atoms: C_8  and  C_9
REMARK    6  A    between atoms: C_18  and  S_19
REMARK    7  A    between atoms: S_19  and  N_20
REMARK                            x       y       z     vdW  Elec       q    Type
REMARK                         _______ _______ _______ _____ _____    ______ ____
ROOT
ATOM      1  C   UNL     1       1.020  -0.010   0.010  0.00  0.00    +0.000 C 
ATOM      2  C   UNL     1       2.551   0.075   0.036  0.00  0.00    +0.000 C 
ENDROOT
BRANCH   2   3
ATOM      3  C   UNL     1       3.010   0.944   1.198  0.00  0.00    +0.000 A 
ATOM      4  C   UNL     1       3.798   0.401   2.225  0.00  0.00    +0.000 A 
ATOM      5  C   UNL     1       4.275   1.208   3.263  0.00  0.00    +0.000 A 
ATOM      6  C   UNL     1       3.995   2.574   3.276  0.00  0.00    +0.000 A 
ATOM      7  C   UNL     1       3.207   3.121   2.262  0.00  0.00    +0.000 A 
ATOM      8  C   UNL     1       2.690   2.311   1.247  0.00  0.00    +0.000 A 
BRANCH   7   9
ATOM      9  S   UNL     1       2.970   4.873   2.172  0.00  0.00    +0.000 S 
ATOM     10  O   UNL     1       4.070   5.515   2.857  0.00  0.00    +0.000 OA
ATOM     11  O   UNL     1       2.581   5.215   0.827  0.00  0.00    +0.000 OA
BRANCH   9  12
ATOM     12  N   UNL     1       1.624   5.059   3.133  0.00  0.00    +0.000 NA
ATOM     13  H   UNL     1       1.785   5.151   4.129  0.00  0.00    +0.000 HD
ATOM     14  H   UNL     1       0.736   4.753   2.752  0.00  0.00    +0.000 HD
ENDBRANCH   9  12
ENDBRANCH   7   9
ENDBRANCH   2   3
BRANCH   2  15
ATOM     15  C   UNL     1       3.081   0.597  -1.284  0.00  0.00    +0.000 C 
ATOM     16  C   UNL     1       3.939  -0.048  -2.096  0.00  0.00    +0.000 C 
BRANCH  16  17
ATOM     17  C   UNL     1       4.398   0.503  -3.386  0.00  0.00    +0.000 A 
ATOM     18  C   UNL     1       4.520   1.881  -3.606  0.00  0.00    +0.000 A 
ATOM     19  C   UNL     1       4.899   2.379  -4.857  0.00  0.00    +0.000 A 
ATOM     20  C   UNL     1       5.200   1.504  -5.904  0.00  0.00    +0.000 A 
ATOM     21  C   UNL     1       5.131   0.125  -5.685  0.00  0.00    +0.000 A 
ATOM     22  C   UNL     1       4.735  -0.371  -4.432  0.00  0.00    +0.000 A 
BRANCH  20  23
ATOM     23  C   UNL     1       5.533   2.098  -7.225  0.00  0.00    +0.000 C 
ATOM     24  N   UNL     1       6.334   1.382  -8.065  0.00  0.00    +0.000 N 
ATOM     25  O   UNL     1       5.122   3.207  -7.549  0.00  0.00    +0.000 OA
ATOM     26  H   UNL     1       6.807   0.530  -7.804  0.00  0.00    +0.000 HD
ATOM     27  H   UNL     1       6.602   1.835  -8.930  0.00  0.00    +0.000 HD
ENDBRANCH  20  23
ENDBRANCH  16  17
ENDBRANCH   2  15
TORSDOF 6
