REMARK  Name = 
REMARK  11 active torsions:
REMARK  status: ('A' for Active; 'I' for Inactive)
REMARK    1  A    between atoms: C_1  and  O_2
REMARK    2  A    between atoms: O_2  and  C_3
REMARK    3  A    between atoms: C_10  and  C_11
REMARK    4  A    between atoms: N_13  and  C_14
REMARK    5  A    between atoms: C_14  and  C_15
REMARK    6  A    between atoms: C_18  and  N_19
REMARK    7  A    between atoms: N_19  and  C_20
REMARK    8  A    between atoms: N_19  and  C_21
REMARK    9  A    between atoms: C_21  and  C_22
REMARK   10  A    between atoms: C_22  and  N_23
REMARK   11  A    between atoms: C_26  and  O_27
REMARK                            x       y       z     vdW  Elec       q    Type
REMARK                         _______ _______ _______ _____ _____    ______ ____
ROOT
ATOM      1  C   UNL     1       1.795   3.368  -0.002  0.00  0.00    +0.000 A 
ATOM      2  C   UNL     1       1.240   2.280  -0.677  0.00  0.00    +0.000 A 
ATOM      3  C   UNL     1       0.096   2.439  -1.478  0.00  0.00    +0.000 A 
ATOM      4  C   UNL     1      -0.545   3.679  -1.643  0.00  0.00    +0.000 A 
ATOM      5  C   UNL     1       0.053   4.762  -0.979  0.00  0.00    +0.000 A 
ATOM      6  C   UNL     1       1.205   4.619  -0.187  0.00  0.00    +0.000 A 
ENDROOT
BRANCH   4   7
ATOM      7  N   UNL     1      -1.663   3.812  -2.468  0.00  0.00    +0.000 N 
ATOM      8  C   UNL     1      -2.673   2.749  -2.484  0.00  0.00    +0.000 C 
BRANCH   7   9
ATOM      9  C   UNL     1      -2.176   5.140  -2.874  0.00  0.00    +0.000 C 
BRANCH   9  10
ATOM     10  C   UNL     1      -1.194   5.878  -3.819  0.00  0.00    +0.000 C 
BRANCH  10  11
ATOM     11  N   UNL     1      -1.650   7.185  -4.356  0.00  0.00    +0.000 NA
ATOM     12  C   UNL     1      -0.573   7.752  -5.191  0.00  0.00    +0.000 C 
ATOM     13  C   UNL     1      -0.996   9.064  -5.849  0.00  0.00    +0.000 C 
ATOM     14  C   UNL     1      -1.488  10.080  -4.826  0.00  0.00    +0.000 C 
ATOM     15  C   UNL     1      -2.519   9.461  -3.891  0.00  0.00    +0.000 C 
ATOM     16  C   UNL     1      -2.046   8.129  -3.302  0.00  0.00    +0.000 C 
BRANCH  14  17
ATOM     17  O   UNL     1      -0.395  10.616  -4.080  0.00  0.00    +0.000 OA
ATOM     18  H   UNL     1       0.045   9.894  -3.602  0.00  0.00    +0.000 HD
ENDBRANCH  14  17
ENDBRANCH  10  11
ENDBRANCH   9  10
ENDBRANCH   7   9
ENDBRANCH   4   7
BRANCH   1  19
ATOM     19  C   UNL     1       2.976   3.199   0.919  0.00  0.00    +0.000 C 
BRANCH  19  22
ATOM     20  C   UNL     1       5.387   3.642   0.956  0.00  0.00    +0.000 C 
ATOM     21  O   UNL     1       5.353   3.842   2.167  0.00  0.00    +0.000 OA
ATOM     22  N   UNL     1       4.239   3.379   0.246  0.00  0.00    +0.000 N 
ATOM     23  H   UNL     1       4.311   3.044  -0.707  0.00  0.00    +0.000 HD
BRANCH  20  31
ATOM     24  C   UNL     1       6.286   2.872  -2.281  0.00  0.00    +0.000 A 
ATOM     25  N   UNL     1       6.884   2.743  -3.484  0.00  0.00    +0.000 NA
ATOM     26  C   UNL     1       8.165   3.104  -3.595  0.00  0.00    +0.000 A 
ATOM     27  N   UNL     1       8.950   3.571  -2.630  0.00  0.00    +0.000 NA
ATOM     28  C   UNL     1       8.317   3.691  -1.451  0.00  0.00    +0.000 A 
ATOM     29  S   UNL     1       9.176   4.247  -0.097  0.00  0.00    +0.000 S 
ATOM     30  C   UNL     1       7.793   4.143   0.883  0.00  0.00    +0.000 A 
ATOM     31  C   UNL     1       6.657   3.708   0.209  0.00  0.00    +0.000 A 
ATOM     32  C   UNL     1       6.985   3.395  -1.178  0.00  0.00    +0.000 A 
BRANCH  24  34
ATOM     33  C   UNL     1       4.421   1.930  -3.351  0.00  0.00    +0.000 C 
ATOM     34  O   UNL     1       4.978   2.450  -2.145  0.00  0.00    +0.000 OA
ENDBRANCH  24  34
ENDBRANCH  20  31
ENDBRANCH  19  22
ENDBRANCH   1  19
TORSDOF 9
