REMARK  Name = 
REMARK  4 active torsions:
REMARK  status: ('A' for Active; 'I' for Inactive)
REMARK    1  A    between atoms: C_2  and  C_4
REMARK    2  A    between atoms: N_8  and  C_9
REMARK    3  A    between atoms: C_9  and  C_10
REMARK    4  A    between atoms: C_15  and  N_16
REMARK                            x       y       z     vdW  Elec       q    Type
REMARK                         _______ _______ _______ _____ _____    ______ ____
ROOT
ATOM      1  C   UNL     1       7.795  -0.648   1.601  0.00  0.00    +0.000 A 
ATOM      2  C   UNL     1       7.237  -1.733   2.268  0.00  0.00    +0.000 A 
ATOM      3  C   UNL     1       6.403  -1.503   3.363  0.00  0.00    +0.000 A 
ATOM      4  C   UNL     1       6.159  -0.202   3.789  0.00  0.00    +0.000 A 
ATOM      5  N   UNL     1       5.286   0.114   4.808  0.00  0.00    +0.000 N 
ATOM      6  N   UNL     1       6.715   0.856   3.163  0.00  0.00    +0.000 NA
ATOM      7  C   UNL     1       7.522   0.617   2.094  0.00  0.00    +0.000 A 
ATOM      8  H   UNL     1       5.371   1.112   4.982  0.00  0.00    +0.000 HD
ENDROOT
BRANCH   1  10
ATOM      9  N   UNL     1       8.463  -1.915  -0.358  0.00  0.00    +0.000 N 
ATOM     10  C   UNL     1       8.651  -0.796   0.407  0.00  0.00    +0.000 C 
ATOM     11  O   UNL     1       9.468   0.059   0.092  0.00  0.00    +0.000 OA
ATOM     12  H   UNL     1       8.978  -1.955  -1.230  0.00  0.00    +0.000 HD
ATOM     13  H   UNL     1       7.644  -2.500  -0.278  0.00  0.00    +0.000 HD
ENDBRANCH   1  10
BRANCH   5  14
ATOM     14  C   UNL     1       5.149  -0.711   5.990  0.00  0.00    +0.000 C 
BRANCH  14  15
ATOM     15  C   UNL     1       6.201  -0.378   7.021  0.00  0.00    +0.000 A 
ATOM     16  C   UNL     1       7.414  -1.073   7.055  0.00  0.00    +0.000 A 
ATOM     17  C   UNL     1       8.376  -0.734   7.997  0.00  0.00    +0.000 A 
ATOM     18  F   UNL     1       9.531  -1.412   8.027  0.00  0.00    +0.000 F 
ATOM     19  C   UNL     1       8.168   0.296   8.910  0.00  0.00    +0.000 A 
ATOM     20  C   UNL     1       6.965   1.012   8.888  0.00  0.00    +0.000 A 
ATOM     21  C   UNL     1       5.984   0.663   7.943  0.00  0.00    +0.000 A 
BRANCH  20  22
ATOM     22  N   UNL     1       6.748   2.092   9.792  0.00  0.00    +0.000 N 
ATOM     23  C   UNL     1       7.641   2.611  10.706  0.00  0.00    +0.000 A 
ATOM     24  C   UNL     1       7.003   3.671  11.307  0.00  0.00    +0.000 A 
ATOM     25  N   UNL     1       5.735   3.809  10.826  0.00  0.00    +0.000 NA
ATOM     26  C   UNL     1       5.606   2.854   9.931  0.00  0.00    +0.000 A 
ENDBRANCH  20  22
ENDBRANCH  14  15
ENDBRANCH   5  14
TORSDOF 4
