REMARK  Name = 
REMARK  4 active torsions:
REMARK  status: ('A' for Active; 'I' for Inactive)
REMARK    1  A    between atoms: C_2  and  C_4
REMARK    2  A    between atoms: N_8  and  C_9
REMARK    3  A    between atoms: C_9  and  C_10
REMARK    4  A    between atoms: C_14  and  C_15
REMARK                            x       y       z     vdW  Elec       q    Type
REMARK                         _______ _______ _______ _____ _____    ______ ____
ROOT
ATOM      1  C   UNL     1       5.230  -5.747   0.476  0.00  0.00    +0.000 C 
ATOM      2  C   UNL     1       5.303  -6.358  -0.918  0.00  0.00    +0.000 C 
ATOM      3  C   UNL     1       4.044  -6.472  -0.125  0.00  0.00    +0.000 C 
ENDROOT
BRANCH   1   8
ATOM      4  C   UNL     1       3.286  -1.536   2.837  0.00  0.00    +0.000 A 
ATOM      5  C   UNL     1       2.586  -2.635   2.347  0.00  0.00    +0.000 A 
ATOM      6  C   UNL     1       3.267  -3.598   1.597  0.00  0.00    +0.000 A 
ATOM      7  C   UNL     1       4.626  -3.439   1.348  0.00  0.00    +0.000 A 
ATOM      8  N   UNL     1       5.354  -4.276   0.497  0.00  0.00    +0.000 N 
ATOM      9  N   UNL     1       5.316  -2.385   1.834  0.00  0.00    +0.000 NA
ATOM     10  C   UNL     1       4.639  -1.460   2.560  0.00  0.00    +0.000 A 
ATOM     11  H   UNL     1       6.313  -3.937   0.572  0.00  0.00    +0.000 HD
BRANCH   4  13
ATOM     12  N   UNL     1       1.471  -0.693   4.224  0.00  0.00    +0.000 N 
ATOM     13  C   UNL     1       2.651  -0.432   3.585  0.00  0.00    +0.000 C 
ATOM     14  O   UNL     1       3.161   0.677   3.637  0.00  0.00    +0.000 OA
ATOM     15  H   UNL     1       1.093   0.055   4.792  0.00  0.00    +0.000 HD
ATOM     16  H   UNL     1       1.139  -1.628   4.401  0.00  0.00    +0.000 HD
ENDBRANCH   4  13
ENDBRANCH   1   8
BRANCH   1  17
ATOM     17  C   UNL     1       5.984  -6.410   1.625  0.00  0.00    +0.000 A 
ATOM     18  C   UNL     1       7.307  -6.857   1.490  0.00  0.00    +0.000 A 
ATOM     19  C   UNL     1       8.038  -7.295   2.594  0.00  0.00    +0.000 A 
ATOM     20  C   UNL     1       7.463  -7.270   3.865  0.00  0.00    +0.000 A 
ATOM     21  C   UNL     1       6.144  -6.831   4.057  0.00  0.00    +0.000 A 
ATOM     22  C   UNL     1       5.416  -6.451   2.915  0.00  0.00    +0.000 A 
BRANCH  21  23
ATOM     23  C   UNL     1       5.567  -6.661   5.406  0.00  0.00    +0.000 A 
ATOM     24  C   UNL     1       6.318  -6.122   6.461  0.00  0.00    +0.000 A 
ATOM     25  C   UNL     1       5.734  -5.893   7.708  0.00  0.00    +0.000 A 
ATOM     26  C   UNL     1       4.397  -6.202   7.869  0.00  0.00    +0.000 A 
ATOM     27  N   UNL     1       3.629  -6.728   6.894  0.00  0.00    +0.000 NA
ATOM     28  C   UNL     1       4.231  -6.947   5.697  0.00  0.00    +0.000 A 
ENDBRANCH  21  23
ENDBRANCH   1  17
TORSDOF 4
