REMARK  Name = 
REMARK  6 active torsions:
REMARK  status: ('A' for Active; 'I' for Inactive)
REMARK    1  A    between atoms: C_2  and  C_4
REMARK    2  A    between atoms: C_7  and  N_8
REMARK    3  A    between atoms: N_8  and  C_9
REMARK    4  A    between atoms: C_9  and  C_10
REMARK    5  A    between atoms: C_12  and  N_13
REMARK    6  A    between atoms: C_16  and  O_17
REMARK                            x       y       z     vdW  Elec       q    Type
REMARK                         _______ _______ _______ _____ _____    ______ ____
ROOT
ATOM      1  C   UNL     1       5.241  -4.046   4.361  0.00  0.00    +0.000 C 
ENDROOT
BRANCH   1   2
ATOM      2  C   UNL     1       6.225  -4.646   5.337  0.00  0.00    +0.000 A 
ATOM      3  C   UNL     1       6.262  -6.003   5.553  0.00  0.00    +0.000 A 
ATOM      4  C   UNL     1       7.081  -6.457   6.557  0.00  0.00    +0.000 A 
ATOM      5  N   UNL     1       7.854  -5.580   7.219  0.00  0.00    +0.000 NA
ATOM      6  N   UNL     1       7.807  -4.287   6.947  0.00  0.00    +0.000 NA
ATOM      7  N   UNL     1       7.006  -3.800   6.036  0.00  0.00    +0.000 NA
BRANCH   4   8
ATOM      8  N   UNL     1       7.118  -7.817   6.866  0.00  0.00    +0.000 N 
ATOM      9  C   UNL     1       8.324  -8.364   7.490  0.00  0.00    +0.000 C 
ATOM     10  C   UNL     1       8.102  -8.730   8.953  0.00  0.00    +0.000 C 
ATOM     11  C   UNL     1       6.840  -9.565   9.152  0.00  0.00    +0.000 C 
ATOM     12  C   UNL     1       5.628  -8.884   8.526  0.00  0.00    +0.000 C 
ATOM     13  C   UNL     1       5.857  -8.535   7.058  0.00  0.00    +0.000 C 
BRANCH  11  14
ATOM     14  O   UNL     1       7.004 -10.883   8.630  0.00  0.00    +0.000 OA
ATOM     15  H   UNL     1       7.166 -10.832   7.673  0.00  0.00    +0.000 HD
ENDBRANCH  11  14
ENDBRANCH   4   8
ENDBRANCH   1   2
BRANCH   1  16
ATOM     16  N   UNL     1       5.719  -4.071   2.981  0.00  0.00    +0.000 N 
ATOM     17  H   UNL     1       6.680  -3.745   2.878  0.00  0.00    +0.000 HD
BRANCH  16  21
ATOM     18  C   UNL     1       3.223  -2.863  -0.221  0.00  0.00    +0.000 A 
ATOM     19  C   UNL     1       2.749  -2.780   1.089  0.00  0.00    +0.000 A 
ATOM     20  C   UNL     1       3.574  -3.151   2.160  0.00  0.00    +0.000 A 
ATOM     21  C   UNL     1       4.892  -3.586   1.957  0.00  0.00    +0.000 A 
ATOM     22  C   UNL     1       5.352  -3.659   0.633  0.00  0.00    +0.000 A 
ATOM     23  C   UNL     1       4.528  -3.308  -0.446  0.00  0.00    +0.000 A 
BRANCH  18  25
ATOM     24  N   UNL     1       1.341  -1.657  -1.199  0.00  0.00    +0.000 N 
ATOM     25  C   UNL     1       2.358  -2.552  -1.389  0.00  0.00    +0.000 C 
ATOM     26  O   UNL     1       2.555  -3.056  -2.487  0.00  0.00    +0.000 OA
ATOM     27  H   UNL     1       0.821  -1.391  -2.027  0.00  0.00    +0.000 HD
ATOM     28  H   UNL     1       1.299  -1.042  -0.401  0.00  0.00    +0.000 HD
ENDBRANCH  18  25
ENDBRANCH  16  21
ENDBRANCH   1  16
TORSDOF 6
