REMARK  Name = 
REMARK  11 active torsions:
REMARK  status: ('A' for Active; 'I' for Inactive)
REMARK    1  A    between atoms: C_1  and  N_2
REMARK    2  A    between atoms: N_2  and  C_3
REMARK    3  A    between atoms: N_2  and  C_4
REMARK    4  A    between atoms: C_4  and  C_5
REMARK    5  A    between atoms: C_9  and  C_10
REMARK    6  A    between atoms: C_10  and  C_11
REMARK    7  A    between atoms: C_10  and  C_12
REMARK    8  A    between atoms: C_10  and  C_13
REMARK    9  A    between atoms: C_13  and  N_14
REMARK   10  A    between atoms: N_14  and  C_15
REMARK   11  A    between atoms: C_18  and  C_19
REMARK                            x       y       z     vdW  Elec       q    Type
REMARK                         _______ _______ _______ _____ _____    ______ ____
ROOT
ATOM      1  C   UNL     1       8.769  -3.152  -2.231  0.00  0.00    +0.000 C 
ENDROOT
BRANCH   1   2
ATOM      2  C   UNL     1       7.267  -3.018  -2.616  0.00  0.00    +0.000 C 
ATOM      3  C   UNL     1       6.577  -4.378  -2.360  0.00  0.00    +0.000 C 
ATOM      4  C   UNL     1       7.149  -2.644  -4.110  0.00  0.00    +0.000 C 
BRANCH   2   9
ATOM      5  C   UNL     1       4.483  -0.793  -1.104  0.00  0.00    +0.000 A 
ATOM      6  C   UNL     1       5.219   0.006  -0.216  0.00  0.00    +0.000 A 
ATOM      7  C   UNL     1       6.584  -0.206  -0.042  0.00  0.00    +0.000 A 
ATOM      8  C   UNL     1       7.244  -1.172  -0.798  0.00  0.00    +0.000 A 
ATOM      9  C   UNL     1       6.563  -1.930  -1.770  0.00  0.00    +0.000 A 
ATOM     10  C   UNL     1       5.179  -1.700  -1.918  0.00  0.00    +0.000 A 
BRANCH   5  11
ATOM     11  C   UNL     1       2.958  -0.743  -1.130  0.00  0.00    +0.000 C 
BRANCH  11  13
ATOM     12  C   UNL     1       2.650  -2.501   0.514  0.00  0.00    +0.000 C 
ATOM     13  N   UNL     1       2.300  -2.039  -0.833  0.00  0.00    +0.000 NA
ATOM     14  C   UNL     1       0.834  -1.951  -0.919  0.00  0.00    +0.000 C 
ENDBRANCH  11  13
ENDBRANCH   5  11
ENDBRANCH   2   9
ENDBRANCH   1   2
BRANCH   1  15
ATOM     15  N   UNL     1       9.494  -4.173  -2.999  0.00  0.00    +0.000 N 
ATOM     16  H   UNL     1       9.362  -4.080  -4.004  0.00  0.00    +0.000 HD
BRANCH  15  17
ATOM     17  C   UNL     1      10.852  -4.300  -2.679  0.00  0.00    +0.000 A 
ATOM     18  C   UNL     1      11.388  -4.091  -1.414  0.00  0.00    +0.000 A 
ATOM     19  N   UNL     1      12.685  -4.253  -1.084  0.00  0.00    +0.000 NA
ATOM     20  C   UNL     1      13.477  -4.693  -2.087  0.00  0.00    +0.000 A 
ATOM     21  N   UNL     1      13.087  -4.955  -3.348  0.00  0.00    +0.000 NA
ATOM     22  C   UNL     1      11.776  -4.768  -3.600  0.00  0.00    +0.000 A 
BRANCH  20  23
ATOM     23  C   UNL     1      14.928  -4.949  -1.741  0.00  0.00    +0.000 C 
ATOM     24  N   UNL     1      15.269  -4.703  -0.424  0.00  0.00    +0.000 N 
ATOM     25  O   UNL     1      15.759  -5.351  -2.531  0.00  0.00    +0.000 OA
ATOM     26  H   UNL     1      14.565  -4.405   0.238  0.00  0.00    +0.000 HD
ATOM     27  H   UNL     1      16.212  -4.905  -0.125  0.00  0.00    +0.000 HD
ENDBRANCH  20  23
ENDBRANCH  15  17
ENDBRANCH   1  15
TORSDOF 7
