REMARK  Name = 
REMARK  7 active torsions:
REMARK  status: ('A' for Active; 'I' for Inactive)
REMARK    1  A    between atoms: N_1  and  C_2
REMARK    2  A    between atoms: C_2  and  C_3
REMARK    3  A    between atoms: C_3  and  C_4
REMARK    4  A    between atoms: C_7  and  C_8
REMARK    5  A    between atoms: C_8  and  N_9
REMARK    6  A    between atoms: C_14  and  C_15
REMARK    7  A    between atoms: C_15  and  O_17
REMARK                            x       y       z     vdW  Elec       q    Type
REMARK                         _______ _______ _______ _____ _____    ______ ____
ROOT
ATOM      1  N   UNL     1       9.315  -1.927   0.581  0.00  0.00    +0.000 N 
ATOM      2  N   UNL     1       9.581  -3.254   0.570  0.00  0.00    +0.000 NA
ATOM      3  C   UNL     1      10.331  -3.438   1.658  0.00  0.00    +0.000 A 
ATOM      4  C   UNL     1      10.553  -2.244   2.376  0.00  0.00    +0.000 A 
ATOM      5  C   UNL     1      11.283  -1.877   3.521  0.00  0.00    +0.000 A 
ATOM      6  C   UNL     1      11.296  -0.534   3.929  0.00  0.00    +0.000 A 
ATOM      7  C   UNL     1      10.580   0.431   3.206  0.00  0.00    +0.000 A 
ATOM      8  C   UNL     1       9.837   0.076   2.069  0.00  0.00    +0.000 A 
ATOM      9  C   UNL     1       9.855  -1.268   1.668  0.00  0.00    +0.000 A 
ENDROOT
BRANCH   6  10
ATOM     10  C   UNL     1      12.165  -0.186   5.087  0.00  0.00    +0.000 C 
ATOM     11  O   UNL     1      13.151  -0.845   5.377  0.00  0.00    +0.000 OA
BRANCH  10  12
ATOM     12  O   UNL     1      11.771   0.884   5.801  0.00  0.00    +0.000 OA
ATOM     13  H   UNL     1      10.898   1.254   5.581  0.00  0.00    +0.000 HD
ENDBRANCH  10  12
ENDBRANCH   6  10
BRANCH   1  14
ATOM     14  C   UNL     1       8.703  -1.320  -0.596  0.00  0.00    +0.000 C 
BRANCH  14  18
ATOM     15  C   UNL     1       4.446  -1.491  -0.482  0.00  0.00    +0.000 A 
ATOM     16  C   UNL     1       5.073  -0.373   0.061  0.00  0.00    +0.000 A 
ATOM     17  C   UNL     1       6.464  -0.291   0.018  0.00  0.00    +0.000 A 
ATOM     18  C   UNL     1       7.203  -1.335  -0.541  0.00  0.00    +0.000 A 
ATOM     19  C   UNL     1       6.490  -2.414  -1.052  0.00  0.00    +0.000 A 
ATOM     20  N   UNL     1       5.140  -2.510  -1.039  0.00  0.00    +0.000 NA
BRANCH  15  21
ATOM     21  C   UNL     1       2.943  -1.612  -0.449  0.00  0.00    +0.000 C 
BRANCH  21  22
ATOM     22  C   UNL     1       2.466  -2.277   0.843  0.00  0.00    +0.000 C 
BRANCH  22  23
ATOM     23  N   UNL     1       1.004  -2.367   0.886  0.00  0.00    +0.000 NA
ATOM     24  H   UNL     1       0.726  -2.834   1.749  0.00  0.00    +0.000 HD
ATOM     25  H   UNL     1       0.686  -2.974   0.129  0.00  0.00    +0.000 HD
ENDBRANCH  22  23
ENDBRANCH  21  22
ENDBRANCH  15  21
ENDBRANCH  14  18
ENDBRANCH   1  14
TORSDOF 7
