REMARK  Name = 
REMARK  11 active torsions:
REMARK  status: ('A' for Active; 'I' for Inactive)
REMARK    1  A    between atoms: N_1  and  C_2
REMARK    2  A    between atoms: C_2  and  C_3
REMARK    3  A    between atoms: C_3  and  N_4
REMARK    4  A    between atoms: N_4  and  C_5
REMARK    5  A    between atoms: C_5  and  C_6
REMARK    6  A    between atoms: C_9  and  C_10
REMARK    7  A    between atoms: C_10  and  C_11
REMARK    8  A    between atoms: C_11  and  C_12
REMARK    9  A    between atoms: C_15  and  C_16
REMARK   10  A    between atoms: C_16  and  N_17
REMARK   11  A    between atoms: C_18  and  C_20
REMARK                            x       y       z     vdW  Elec       q    Type
REMARK                         _______ _______ _______ _____ _____    ______ ____
ROOT
ATOM      1  C   UNL     1      12.744   4.145  -0.881  0.00  0.00    +0.000 A 
ATOM      2  C   UNL     1      13.419   3.573  -1.957  0.00  0.00    +0.000 A 
ATOM      3  C   UNL     1      14.813   3.562  -1.956  0.00  0.00    +0.000 A 
ATOM      4  C   UNL     1      15.507   4.126  -0.886  0.00  0.00    +0.000 A 
ATOM      5  C   UNL     1      14.751   4.704   0.127  0.00  0.00    +0.000 A 
ATOM      6  N   UNL     1      13.398   4.716   0.158  0.00  0.00    +0.000 NA
ENDROOT
BRANCH   1   7
ATOM      7  C   UNL     1      11.236   4.157  -0.835  0.00  0.00    +0.000 C 
BRANCH   7   8
ATOM      8  C   UNL     1      10.651   2.742  -0.826  0.00  0.00    +0.000 C 
BRANCH   8  12
ATOM      9  C   UNL     1       6.327   2.746  -0.645  0.00  0.00    +0.000 A 
ATOM     10  C   UNL     1       6.990   2.786  -1.882  0.00  0.00    +0.000 A 
ATOM     11  C   UNL     1       8.385   2.782  -1.944  0.00  0.00    +0.000 A 
ATOM     12  C   UNL     1       9.146   2.750  -0.768  0.00  0.00    +0.000 A 
ATOM     13  C   UNL     1       8.488   2.735   0.465  0.00  0.00    +0.000 A 
ATOM     14  C   UNL     1       7.093   2.727   0.528  0.00  0.00    +0.000 A 
BRANCH   9  15
ATOM     15  C   UNL     1       4.817   2.740  -0.577  0.00  0.00    +0.000 C 
BRANCH  15  16
ATOM     16  N   UNL     1       4.265   1.561  -1.243  0.00  0.00    +0.000 NA
ATOM     17  H   UNL     1       4.581   1.543  -2.210  0.00  0.00    +0.000 HD
BRANCH  16  18
ATOM     18  C   UNL     1       2.802   1.560  -1.207  0.00  0.00    +0.000 C 
BRANCH  18  19
ATOM     19  C   UNL     1       2.262   0.313  -1.929  0.00  0.00    +0.000 C 
BRANCH  19  20
ATOM     20  N   UNL     1       0.801   0.272  -1.928  0.00  0.00    +0.000 NA
ATOM     21  H   UNL     1       0.494  -0.555  -2.438  0.00  0.00    +0.000 HD
ATOM     22  H   UNL     1       0.433   1.075  -2.436  0.00  0.00    +0.000 HD
ENDBRANCH  19  20
ENDBRANCH  18  19
ENDBRANCH  16  18
ENDBRANCH  15  16
ENDBRANCH   9  15
ENDBRANCH   8  12
ENDBRANCH   7   8
ENDBRANCH   1   7
BRANCH   4  23
ATOM     23  C   UNL     1      17.005   4.163  -0.843  0.00  0.00    +0.000 C 
BRANCH  23  24
ATOM     24  N   UNL     1      17.512   5.354  -1.473  0.00  0.00    +0.000 N 
ATOM     25  C   UNL     1      18.858   5.573  -1.612  0.00  0.00    +0.000 C 
ATOM     26  O   UNL     1      19.693   4.754  -1.240  0.00  0.00    +0.000 OA
ATOM     27  H   UNL     1      16.873   6.139  -1.560  0.00  0.00    +0.000 HD
BRANCH  25  28
ATOM     28  C   UNL     1      19.246   6.817  -2.288  0.00  0.00    +0.000 A 
ATOM     29  C   UNL     1      20.474   6.900  -2.929  0.00  0.00    +0.000 A 
ATOM     30  S   UNL     1      20.741   8.399  -3.701  0.00  0.00    +0.000 S 
ATOM     31  C   UNL     1      19.246   9.004  -3.163  0.00  0.00    +0.000 A 
ATOM     32  N   UNL     1      18.856  10.275  -3.456  0.00  0.00    +0.000 NA
ATOM     33  C   UNL     1      17.714  10.612  -2.961  0.00  0.00    +0.000 A 
ATOM     34  N   UNL     1      16.917   9.791  -2.204  0.00  0.00    +0.000 N 
ATOM     35  C   UNL     1      17.253   8.490  -1.912  0.00  0.00    +0.000 A 
ATOM     36  O   UNL     1      16.495   7.765  -1.282  0.00  0.00    +0.000 OA
ATOM     37  C   UNL     1      18.541   8.069  -2.427  0.00  0.00    +0.000 A 
ATOM     38  H   UNL     1      16.024  10.108  -1.859  0.00  0.00    +0.000 HD
ENDBRANCH  25  28
ENDBRANCH  23  24
ENDBRANCH   4  23
TORSDOF 11
