REMARK  Name = 
REMARK  8 active torsions:
REMARK  status: ('A' for Active; 'I' for Inactive)
REMARK    1  A    between atoms: C_2  and  C_20
REMARK    2  A    between atoms: N_3  and  C_4
REMARK    3  A    between atoms: C_4  and  C_5
REMARK    4  A    between atoms: C_8  and  C_9
REMARK    5  A    between atoms: C_9  and  C_10
REMARK    6  A    between atoms: C_10  and  N_11
REMARK    7  A    between atoms: N_11  and  C_12
REMARK    8  A    between atoms: C_12  and  C_13
REMARK                            x       y       z     vdW  Elec       q    Type
REMARK                         _______ _______ _______ _____ _____    ______ ____
ROOT
ATOM      1  C   UNL     1       2.123  -1.661   1.792  0.00  0.00    +0.000 C 
ENDROOT
BRANCH   1   2
ATOM      2  C   UNL     1       3.059  -2.436   2.679  0.00  0.00    +0.000 A 
ATOM      3  C   UNL     1       3.977  -1.767   3.498  0.00  0.00    +0.000 A 
ATOM      4  C   UNL     1       4.821  -2.480   4.352  0.00  0.00    +0.000 A 
ATOM      5  C   UNL     1       4.771  -3.878   4.396  0.00  0.00    +0.000 A 
ATOM      6  C   UNL     1       3.878  -4.550   3.551  0.00  0.00    +0.000 A 
ATOM      7  C   UNL     1       3.034  -3.836   2.696  0.00  0.00    +0.000 A 
BRANCH   5   8
ATOM      8  C   UNL     1       5.658  -4.647   5.349  0.00  0.00    +0.000 C 
BRANCH   8   9
ATOM      9  C   UNL     1       5.343  -4.396   6.838  0.00  0.00    +0.000 C 
BRANCH   9  10
ATOM     10  N   UNL     1       3.957  -4.663   7.249  0.00  0.00    +0.000 NA
ATOM     11  H   UNL     1       3.333  -4.090   6.678  0.00  0.00    +0.000 HD
BRANCH  10  12
ATOM     12  C   UNL     1       3.595  -6.074   7.104  0.00  0.00    +0.000 C 
BRANCH  12  13
ATOM     13  C   UNL     1       2.122  -6.308   7.464  0.00  0.00    +0.000 C 
ATOM     14  C   UNL     1       1.796  -6.038   8.919  0.00  0.00    +0.000 C 
ATOM     15  C   UNL     1       2.127  -7.350   9.596  0.00  0.00    +0.000 C 
ATOM     16  O   UNL     1       1.936  -8.386   8.624  0.00  0.00    +0.000 OA
ATOM     17  C   UNL     1       1.773  -7.785   7.333  0.00  0.00    +0.000 C 
ENDBRANCH  12  13
ENDBRANCH  10  12
ENDBRANCH   9  10
ENDBRANCH   8   9
ENDBRANCH   5   8
ENDBRANCH   1   2
BRANCH   1  20
ATOM     18  O   UNL     1       0.782  -0.457  -0.289  0.00  0.00    +0.000 OA
ATOM     19  C   UNL     1       1.970  -0.725  -0.450  0.00  0.00    +0.000 C 
ATOM     20  N   UNL     1       2.696  -1.404   0.497  0.00  0.00    +0.000 N 
ATOM     21  H   UNL     1       3.708  -1.434   0.424  0.00  0.00    +0.000 HD
BRANCH  19  22
ATOM     22  C   UNL     1       2.671  -0.355  -1.683  0.00  0.00    +0.000 A 
ATOM     23  C   UNL     1       1.950  -0.160  -2.853  0.00  0.00    +0.000 A 
ATOM     24  S   UNL     1       2.916   0.296  -4.182  0.00  0.00    +0.000 S 
ATOM     25  C   UNL     1       4.326   0.291  -3.229  0.00  0.00    +0.000 A 
ATOM     26  N   UNL     1       5.528   0.649  -3.755  0.00  0.00    +0.000 NA
ATOM     27  C   UNL     1       6.505   0.635  -2.912  0.00  0.00    +0.000 A 
ATOM     28  N   UNL     1       6.392   0.276  -1.591  0.00  0.00    +0.000 N 
ATOM     29  C   UNL     1       5.210  -0.132  -1.026  0.00  0.00    +0.000 A 
ATOM     30  O   UNL     1       5.158  -0.511   0.138  0.00  0.00    +0.000 OA
ATOM     31  C   UNL     1       4.070  -0.095  -1.924  0.00  0.00    +0.000 A 
ATOM     32  H   UNL     1       7.204   0.263  -0.991  0.00  0.00    +0.000 HD
ENDBRANCH  19  22
ENDBRANCH   1  20
TORSDOF 8
