REMARK  Name = 
REMARK  4 active torsions:
REMARK  status: ('A' for Active; 'I' for Inactive)
REMARK    1  A    between atoms: C_2  and  C_4
REMARK    2  A    between atoms: N_8  and  C_9
REMARK    3  A    between atoms: C_9  and  C_10
REMARK    4  A    between atoms: C_14  and  C_15
REMARK                            x       y       z     vdW  Elec       q    Type
REMARK                         _______ _______ _______ _____ _____    ______ ____
ROOT
ATOM      1  C   UNL     1       0.824  -2.396  -8.186  0.00  0.00    +0.000 A 
ATOM      2  C   UNL     1       1.259  -3.443  -7.384  0.00  0.00    +0.000 A 
ATOM      3  C   UNL     1       2.480  -3.326  -6.724  0.00  0.00    +0.000 A 
ATOM      4  C   UNL     1       3.254  -2.179  -6.882  0.00  0.00    +0.000 A 
ATOM      5  N   UNL     1       4.422  -1.968  -6.208  0.00  0.00    +0.000 N 
ATOM      6  N   UNL     1       2.855  -1.175  -7.690  0.00  0.00    +0.000 NA
ATOM      7  C   UNL     1       1.660  -1.301  -8.327  0.00  0.00    +0.000 A 
ATOM      8  H   UNL     1       4.922  -1.145  -6.515  0.00  0.00    +0.000 HD
ENDROOT
BRANCH   1  10
ATOM      9  N   UNL     1      -1.470  -3.165  -8.287  0.00  0.00    +0.000 N 
ATOM     10  C   UNL     1      -0.479  -2.427  -8.878  0.00  0.00    +0.000 C 
ATOM     11  O   UNL     1      -0.675  -1.796  -9.905  0.00  0.00    +0.000 OA
ATOM     12  H   UNL     1      -2.388  -3.109  -8.709  0.00  0.00    +0.000 HD
ATOM     13  H   UNL     1      -1.413  -3.488  -7.334  0.00  0.00    +0.000 HD
ENDBRANCH   1  10
BRANCH   5  14
ATOM     14  C   UNL     1       5.059  -2.894  -5.304  0.00  0.00    +0.000 C 
BRANCH  14  15
ATOM     15  C   UNL     1       5.953  -3.862  -6.035  0.00  0.00    +0.000 A 
ATOM     16  C   UNL     1       7.063  -3.400  -6.757  0.00  0.00    +0.000 A 
ATOM     17  C   UNL     1       7.908  -4.295  -7.411  0.00  0.00    +0.000 A 
ATOM     18  C   UNL     1       7.665  -5.667  -7.339  0.00  0.00    +0.000 A 
ATOM     19  C   UNL     1       6.572  -6.149  -6.614  0.00  0.00    +0.000 A 
ATOM     20  C   UNL     1       5.716  -5.245  -5.973  0.00  0.00    +0.000 A 
BRANCH  19  21
ATOM     21  C   UNL     1       6.356  -7.591  -6.471  0.00  0.00    +0.000 C 
ATOM     22  C   UNL     1       6.868  -8.257  -5.421  0.00  0.00    +0.000 C 
ATOM     23  C   UNL     1       6.650  -9.727  -5.221  0.00  0.00    +0.000 C 
ATOM     24  O   UNL     1       5.603 -10.239  -6.052  0.00  0.00    +0.000 OA
ATOM     25  C   UNL     1       5.751  -9.821  -7.411  0.00  0.00    +0.000 C 
ATOM     26  C   UNL     1       5.563  -8.306  -7.527  0.00  0.00    +0.000 C 
ENDBRANCH  19  21
ENDBRANCH  14  15
ENDBRANCH   5  14
TORSDOF 4
