REMARK  Name = 
REMARK  8 active torsions:
REMARK  status: ('A' for Active; 'I' for Inactive)
REMARK    1  A    between atoms: C_2  and  C_4
REMARK    2  A    between atoms: C_7  and  N_8
REMARK    3  A    between atoms: N_8  and  C_9
REMARK    4  A    between atoms: C_9  and  C_10
REMARK    5  A    between atoms: C_10  and  C_13
REMARK    6  A    between atoms: C_15  and  O_16
REMARK    7  A    between atoms: O_16  and  C_17
REMARK    8  A    between atoms: C_22  and  C_23
REMARK                            x       y       z     vdW  Elec       q    Type
REMARK                         _______ _______ _______ _____ _____    ______ ____
ROOT
ATOM      1  C   UNL     1       5.945  -4.628  -5.378  0.00  0.00    +0.000 C 
ATOM      2  F   UNL     1       5.599  -5.624  -4.513  0.00  0.00    +0.000 F 
ATOM      3  F   UNL     1       5.399  -3.487  -4.854  0.00  0.00    +0.000 F 
ENDROOT
BRANCH   1   4
ATOM      4  C   UNL     1       5.443  -4.905  -6.782  0.00  0.00    +0.000 A 
ATOM      5  C   UNL     1       5.418  -6.222  -7.278  0.00  0.00    +0.000 A 
ATOM      6  C   UNL     1       4.983  -6.481  -8.577  0.00  0.00    +0.000 A 
ATOM      7  C   UNL     1       4.500  -5.437  -9.364  0.00  0.00    +0.000 A 
ATOM      8  C   UNL     1       4.488  -4.123  -8.873  0.00  0.00    +0.000 A 
ATOM      9  C   UNL     1       5.006  -3.856  -7.602  0.00  0.00    +0.000 A 
BRANCH   8  10
ATOM     10  C   UNL     1       3.906  -3.053  -9.720  0.00  0.00    +0.000 C 
ATOM     11  N   UNL     1       3.416  -1.941  -9.080  0.00  0.00    +0.000 N 
ATOM     12  O   UNL     1       3.819  -3.165 -10.936  0.00  0.00    +0.000 OA
ATOM     13  H   UNL     1       3.254  -1.909  -8.084  0.00  0.00    +0.000 HD
ATOM     14  H   UNL     1       2.885  -1.299  -9.654  0.00  0.00    +0.000 HD
ENDBRANCH   8  10
BRANCH   6  15
ATOM     15  O   UNL     1       4.954  -7.733  -9.146  0.00  0.00    +0.000 OA
BRANCH  15  16
ATOM     16  C   UNL     1       5.873  -8.740  -8.653  0.00  0.00    +0.000 C 
ATOM     17  C   UNL     1       7.378  -8.530  -8.921  0.00  0.00    +0.000 C 
ATOM     18  N   UNL     1       7.482  -9.876  -9.498  0.00  0.00    +0.000 NA
ATOM     19  C   UNL     1       6.018 -10.005  -9.526  0.00  0.00    +0.000 C 
ATOM     20  H   UNL     1       7.950 -10.557  -8.900  0.00  0.00    +0.000 HD
ENDBRANCH  15  16
ENDBRANCH   6  15
ENDBRANCH   1   4
BRANCH   1  21
ATOM     21  C   UNL     1       7.482  -4.468  -5.389  0.00  0.00    +0.000 C 
BRANCH  21  22
ATOM     22  N   UNL     1       8.055  -4.202  -4.061  0.00  0.00    +0.000 N 
ATOM     23  H   UNL     1       7.499  -3.580  -3.473  0.00  0.00    +0.000 HD
BRANCH  22  27
ATOM     24  C   UNL     1      12.215  -3.848  -3.492  0.00  0.00    +0.000 A 
ATOM     25  C   UNL     1      11.713  -4.032  -4.780  0.00  0.00    +0.000 A 
ATOM     26  C   UNL     1      10.332  -4.135  -4.982  0.00  0.00    +0.000 A 
ATOM     27  C   UNL     1       9.430  -4.027  -3.917  0.00  0.00    +0.000 A 
ATOM     28  C   UNL     1       9.952  -3.866  -2.627  0.00  0.00    +0.000 A 
ATOM     29  C   UNL     1      11.334  -3.783  -2.411  0.00  0.00    +0.000 A 
BRANCH  24  31
ATOM     30  N   UNL     1      14.453  -3.271  -4.252  0.00  0.00    +0.000 N 
ATOM     31  C   UNL     1      13.675  -3.759  -3.238  0.00  0.00    +0.000 C 
ATOM     32  O   UNL     1      14.164  -4.074  -2.162  0.00  0.00    +0.000 OA
ATOM     33  H   UNL     1      15.430  -3.117  -4.031  0.00  0.00    +0.000 HD
ATOM     34  H   UNL     1      14.065  -2.768  -5.037  0.00  0.00    +0.000 HD
ENDBRANCH  24  31
ENDBRANCH  22  27
ENDBRANCH  21  22
ENDBRANCH   1  21
TORSDOF 8
