REMARK  Name = 
REMARK  4 active torsions:
REMARK  status: ('A' for Active; 'I' for Inactive)
REMARK    1  A    between atoms: C_2  and  C_4
REMARK    2  A    between atoms: N_8  and  C_9
REMARK    3  A    between atoms: C_9  and  C_10
REMARK    4  A    between atoms: C_14  and  C_15
REMARK                            x       y       z     vdW  Elec       q    Type
REMARK                         _______ _______ _______ _____ _____    ______ ____
ROOT
ATOM      1  C   UNL     1       5.078  -3.982  -4.497  0.00  0.00    +0.000 C 
ATOM      2  C   UNL     1       5.247  -3.043  -5.677  0.00  0.00    +0.000 C 
ATOM      3  C   UNL     1       3.899  -3.611  -5.380  0.00  0.00    +0.000 C 
ENDROOT
BRANCH   1   8
ATOM      4  C   UNL     1       3.049  -3.892   0.284  0.00  0.00    +0.000 A 
ATOM      5  C   UNL     1       2.563  -4.444  -0.894  0.00  0.00    +0.000 A 
ATOM      6  C   UNL     1       3.294  -4.289  -2.070  0.00  0.00    +0.000 A 
ATOM      7  C   UNL     1       4.503  -3.609  -2.044  0.00  0.00    +0.000 A 
ATOM      8  N   UNL     1       5.262  -3.358  -3.183  0.00  0.00    +0.000 N 
ATOM      9  N   UNL     1       4.991  -3.080  -0.899  0.00  0.00    +0.000 NA
ATOM     10  C   UNL     1       4.255  -3.209   0.230  0.00  0.00    +0.000 A 
ATOM     11  H   UNL     1       6.180  -3.032  -2.902  0.00  0.00    +0.000 HD
BRANCH   4  13
ATOM     12  N   UNL     1       1.482  -5.043   1.729  0.00  0.00    +0.000 N 
ATOM     13  C   UNL     1       2.317  -3.970   1.566  0.00  0.00    +0.000 C 
ATOM     14  O   UNL     1       2.469  -3.138   2.445  0.00  0.00    +0.000 OA
ATOM     15  H   UNL     1       1.045  -5.139   2.638  0.00  0.00    +0.000 HD
ATOM     16  H   UNL     1       1.523  -5.861   1.141  0.00  0.00    +0.000 HD
ENDBRANCH   4  13
ENDBRANCH   1   8
BRANCH   1  17
ATOM     17  C   UNL     1       5.637  -5.397  -4.563  0.00  0.00    +0.000 A 
ATOM     18  C   UNL     1       7.014  -5.633  -4.460  0.00  0.00    +0.000 A 
ATOM     19  C   UNL     1       7.516  -6.921  -4.297  0.00  0.00    +0.000 A 
ATOM     20  C   UNL     1       6.641  -8.007  -4.228  0.00  0.00    +0.000 A 
ATOM     21  C   UNL     1       5.253  -7.837  -4.355  0.00  0.00    +0.000 A 
ATOM     22  C   UNL     1       4.788  -6.522  -4.560  0.00  0.00    +0.000 A 
BRANCH  21  23
ATOM     23  C   UNL     1       4.312  -8.962  -4.192  0.00  0.00    +0.000 A 
ATOM     24  N   UNL     1       4.809 -10.144  -3.770  0.00  0.00    +0.000 NA
ATOM     25  C   UNL     1       3.916 -11.121  -3.530  0.00  0.00    +0.000 A 
ATOM     26  C   UNL     1       2.562 -10.975  -3.702  0.00  0.00    +0.000 A 
ATOM     27  C   UNL     1       2.153  -9.741  -4.145  0.00  0.00    +0.000 A 
ATOM     28  N   UNL     1       2.997  -8.722  -4.392  0.00  0.00    +0.000 NA
ENDBRANCH  21  23
ENDBRANCH   1  17
TORSDOF 4
