REMARK  Name = 
REMARK  6 active torsions:
REMARK  status: ('A' for Active; 'I' for Inactive)
REMARK    1  A    between atoms: C_2  and  C_25
REMARK    2  A    between atoms: N_3  and  C_4
REMARK    3  A    between atoms: C_4  and  C_5
REMARK    4  A    between atoms: C_8  and  C_9
REMARK    5  A    between atoms: C_9  and  N_10
REMARK    6  A    between atoms: C_11  and  C_13
REMARK                            x       y       z     vdW  Elec       q    Type
REMARK                         _______ _______ _______ _____ _____    ______ ____
ROOT
ATOM      1  C   UNL     1       3.238   3.381  -1.455  0.00  0.00    +0.000 A 
ATOM      2  C   UNL     1       2.810   4.716  -1.417  0.00  0.00    +0.000 A 
ATOM      3  C   UNL     1       3.658   5.750  -1.833  0.00  0.00    +0.000 A 
ATOM      4  C   UNL     1       4.943   5.469  -2.315  0.00  0.00    +0.000 A 
ATOM      5  C   UNL     1       5.372   4.135  -2.345  0.00  0.00    +0.000 A 
ATOM      6  C   UNL     1       4.525   3.102  -1.932  0.00  0.00    +0.000 A 
ENDROOT
BRANCH   1   7
ATOM      7  C   UNL     1       2.320   2.268  -1.019  0.00  0.00    +0.000 C 
BRANCH   7  10
ATOM      8  O   UNL     1       0.344   0.284  -0.848  0.00  0.00    +0.000 OA
ATOM      9  C   UNL     1       0.587   0.794  -1.934  0.00  0.00    +0.000 C 
ATOM     10  N   UNL     1       1.544   1.759  -2.125  0.00  0.00    +0.000 N 
ATOM     11  H   UNL     1       1.620   2.234  -3.013  0.00  0.00    +0.000 HD
BRANCH   9  12
ATOM     12  C   UNL     1      -0.168   0.442  -3.149  0.00  0.00    +0.000 C 
ATOM     13  C   UNL     1       0.232   0.593  -4.520  0.00  0.00    +0.000 C 
ATOM     14  C   UNL     1      -0.911   0.019  -5.249  0.00  0.00    +0.000 C 
ATOM     15  N   UNL     1      -1.846  -0.420  -4.458  0.00  0.00    +0.000 NA
ATOM     16  C   UNL     1      -1.364  -0.165  -3.181  0.00  0.00    +0.000 C 
ENDBRANCH   9  12
ENDBRANCH   7  10
ENDBRANCH   1   7
BRANCH   4  17
ATOM     17  C   UNL     1       5.861   6.576  -2.766  0.00  0.00    +0.000 C 
BRANCH  17  18
ATOM     18  N   UNL     1       6.665   7.076  -1.681  0.00  0.00    +0.000 N 
ATOM     19  C   UNL     1       7.518   8.136  -1.861  0.00  0.00    +0.000 C 
ATOM     20  O   UNL     1       7.595   8.732  -2.934  0.00  0.00    +0.000 OA
ATOM     21  H   UNL     1       6.787   6.469  -0.876  0.00  0.00    +0.000 HD
BRANCH  19  22
ATOM     22  C   UNL     1       8.293   8.568  -0.690  0.00  0.00    +0.000 A 
ATOM     23  C   UNL     1       8.782   9.866  -0.629  0.00  0.00    +0.000 A 
ATOM     24  S   UNL     1       9.611  10.218   0.819  0.00  0.00    +0.000 S 
ATOM     25  C   UNL     1       9.395   8.630   1.394  0.00  0.00    +0.000 A 
ATOM     26  N   UNL     1       9.899   8.248   2.596  0.00  0.00    +0.000 NA
ATOM     27  C   UNL     1       9.690   7.009   2.892  0.00  0.00    +0.000 A 
ATOM     28  N   UNL     1       9.017   6.120   2.095  0.00  0.00    +0.000 N 
ATOM     29  C   UNL     1       8.467   6.468   0.885  0.00  0.00    +0.000 A 
ATOM     30  O   UNL     1       7.837   5.657   0.213  0.00  0.00    +0.000 OA
ATOM     31  C   UNL     1       8.683   7.849   0.499  0.00  0.00    +0.000 A 
ATOM     32  H   UNL     1       8.881   5.163   2.388  0.00  0.00    +0.000 HD
ENDBRANCH  19  22
ENDBRANCH  17  18
ENDBRANCH   4  17
TORSDOF 6
