REMARK  Name = 
REMARK  3 active torsions:
REMARK  status: ('A' for Active; 'I' for Inactive)
REMARK    1  A    between atoms: C_2  and  C_3
REMARK    2  A    between atoms: N_5  and  C_6
REMARK    3  A    between atoms: C_6  and  C_7
REMARK                            x       y       z     vdW  Elec       q    Type
REMARK                         _______ _______ _______ _____ _____    ______ ____
ROOT
ATOM      1  C   UNL     1       3.547   0.005  -0.106  0.00  0.00    +0.000 A 
ATOM      2  C   UNL     1       4.336   1.140  -0.134  0.00  0.00    +0.000 A 
ATOM      3  N   UNL     1       5.650   0.739  -0.066  0.00  0.00    +0.000 N 
ATOM      4  C   UNL     1       5.716  -0.633  -0.059  0.00  0.00    +0.000 A 
ATOM      5  N   UNL     1       6.853  -1.356  -0.037  0.00  0.00    +0.000 NA
ATOM      6  C   UNL     1       6.635  -2.692  -0.027  0.00  0.00    +0.000 A 
ATOM      7  C   UNL     1       5.393  -3.311  -0.029  0.00  0.00    +0.000 A 
ATOM      8  C   UNL     1       4.244  -2.520  -0.047  0.00  0.00    +0.000 A 
ATOM      9  C   UNL     1       4.410  -1.124  -0.069  0.00  0.00    +0.000 A 
ENDROOT
BRANCH   1  11
ATOM     10  N   UNL     1       0.957  -0.030  -0.140  0.00  0.00    +0.000 NA
ATOM     11  C   UNL     1       2.116  -0.011  -0.125  0.00  0.00    +0.000 C 
ENDBRANCH   1  11
BRANCH   3  12
ATOM     12  C   UNL     1       6.805   1.628  -0.032  0.00  0.00    +0.000 C 
BRANCH  12  13
ATOM     13  C   UNL     1       7.173   1.981   1.373  0.00  0.00    +0.000 A 
ATOM     14  C   UNL     1       8.065   1.231   2.114  0.00  0.00    +0.000 A 
ATOM     15  N   UNL     1       8.374   1.490   3.401  0.00  0.00    +0.000 NA
ATOM     16  C   UNL     1       7.746   2.538   3.952  0.00  0.00    +0.000 A 
ATOM     17  N   UNL     1       6.876   3.350   3.332  0.00  0.00    +0.000 NA
ATOM     18  C   UNL     1       6.610   3.047   2.046  0.00  0.00    +0.000 A 
ENDBRANCH  12  13
ENDBRANCH   3  12
TORSDOF 3
