REMARK  Name = 
REMARK  4 active torsions:
REMARK  status: ('A' for Active; 'I' for Inactive)
REMARK    1  A    between atoms: C_2  and  C_4
REMARK    2  A    between atoms: C_7  and  N_8
REMARK    3  A    between atoms: N_8  and  C_9
REMARK    4  A    between atoms: C_9  and  C_10
REMARK                            x       y       z     vdW  Elec       q    Type
REMARK                         _______ _______ _______ _____ _____    ______ ____
ROOT
ATOM      1  C   UNL     1       3.139  -0.248  -1.319  0.00  0.00    +0.000 A 
ATOM      2  C   UNL     1       2.740   0.383  -2.502  0.00  0.00    +0.000 A 
ATOM      3  C   UNL     1       3.501   0.233  -3.668  0.00  0.00    +0.000 A 
ATOM      4  C   UNL     1       4.674  -0.529  -3.666  0.00  0.00    +0.000 A 
ATOM      5  C   UNL     1       5.027  -1.203  -2.491  0.00  0.00    +0.000 A 
ATOM      6  C   UNL     1       4.284  -1.046  -1.319  0.00  0.00    +0.000 A 
ENDROOT
BRANCH   1   8
ATOM      7  N   UNL     1       1.073   0.228  -0.120  0.00  0.00    +0.000 N 
ATOM      8  C   UNL     1       2.406  -0.059  -0.042  0.00  0.00    +0.000 C 
ATOM      9  O   UNL     1       2.960  -0.184   1.043  0.00  0.00    +0.000 OA
ATOM     10  H   UNL     1       0.570   0.250   0.759  0.00  0.00    +0.000 HD
ATOM     11  H   UNL     1       0.537   0.087  -0.964  0.00  0.00    +0.000 HD
ENDBRANCH   1   8
BRANCH   4  12
ATOM     12  N   UNL     1       5.505  -0.679  -4.775  0.00  0.00    +0.000 N 
ATOM     13  H   UNL     1       5.436  -1.613  -5.176  0.00  0.00    +0.000 HD
BRANCH  12  14
ATOM     14  C   UNL     1       5.535   0.367  -5.787  0.00  0.00    +0.000 C 
BRANCH  14  15
ATOM     15  C   UNL     1       6.877   0.357  -6.476  0.00  0.00    +0.000 A 
ATOM     16  C   UNL     1       6.980   0.240  -7.863  0.00  0.00    +0.000 A 
ATOM     17  C   UNL     1       8.241   0.284  -8.440  0.00  0.00    +0.000 A 
ATOM     18  N   UNL     1       9.386   0.432  -7.740  0.00  0.00    +0.000 NA
ATOM     19  C   UNL     1       9.266   0.540  -6.400  0.00  0.00    +0.000 A 
ATOM     20  C   UNL     1       8.054   0.509  -5.733  0.00  0.00    +0.000 A 
ENDBRANCH  14  15
ENDBRANCH  12  14
ENDBRANCH   4  12
TORSDOF 4
