REMARK  Name = 
REMARK  3 active torsions:
REMARK  status: ('A' for Active; 'I' for Inactive)
REMARK    1  A    between atoms: C_2  and  C_4
REMARK    2  A    between atoms: N_8  and  C_9
REMARK    3  A    between atoms: C_9  and  C_10
REMARK                            x       y       z     vdW  Elec       q    Type
REMARK                         _______ _______ _______ _____ _____    ______ ____
ROOT
ATOM      1  C   UNL     1       1.287   6.454   0.513  0.00  0.00    +0.000 A 
ATOM      2  C   UNL     1       1.427   5.093   0.609  0.00  0.00    +0.000 A 
ATOM      3  N   UNL     1       2.621   4.464   0.662  0.00  0.00    +0.000 NA
ATOM      4  C   UNL     1       3.720   5.232   0.579  0.00  0.00    +0.000 A 
ATOM      5  N   UNL     1       4.929   4.557   0.648  0.00  0.00    +0.000 N 
ATOM      6  N   UNL     1       3.679   6.568   0.422  0.00  0.00    +0.000 NA
ATOM      7  C   UNL     1       2.463   7.157   0.402  0.00  0.00    +0.000 A 
ATOM      8  H   UNL     1       4.795   3.559   0.683  0.00  0.00    +0.000 HD
ENDROOT
BRANCH   1  10
ATOM      9  N   UNL     1      -1.033   6.541   1.190  0.00  0.00    +0.000 N 
ATOM     10  C   UNL     1      -0.007   7.143   0.518  0.00  0.00    +0.000 C 
ATOM     11  O   UNL     1      -0.145   8.234  -0.016  0.00  0.00    +0.000 OA
ATOM     12  H   UNL     1      -1.886   7.085   1.284  0.00  0.00    +0.000 HD
ATOM     13  H   UNL     1      -0.895   5.797   1.858  0.00  0.00    +0.000 HD
ENDBRANCH   1  10
BRANCH   5  14
ATOM     14  C   UNL     1       6.184   5.157   0.187  0.00  0.00    +0.000 C 
ATOM     15  C   UNL     1       6.320   5.458  -1.297  0.00  0.00    +0.000 C 
ATOM     16  C   UNL     1       7.096   4.328  -0.706  0.00  0.00    +0.000 C 
BRANCH  14  17
ATOM     17  C   UNL     1       6.839   6.073   1.229  0.00  0.00    +0.000 A 
ATOM     18  C   UNL     1       6.644   7.456   1.173  0.00  0.00    +0.000 A 
ATOM     19  C   UNL     1       7.047   8.265   2.230  0.00  0.00    +0.000 A 
ATOM     20  C   UNL     1       7.663   7.684   3.326  0.00  0.00    +0.000 A 
ATOM     21  C   UNL     1       7.882   6.318   3.296  0.00  0.00    +0.000 A 
ATOM     22  N   UNL     1       7.498   5.510   2.281  0.00  0.00    +0.000 NA
ENDBRANCH  14  17
ENDBRANCH   5  14
TORSDOF 3
