REMARK  Name = 
REMARK  5 active torsions:
REMARK  status: ('A' for Active; 'I' for Inactive)
REMARK    1  A    between atoms: C_1  and  C_2
REMARK    2  A    between atoms: C_5  and  C_6
REMARK    3  A    between atoms: C_10  and  C_11
REMARK    4  A    between atoms: C_11  and  C_12
REMARK    5  A    between atoms: C_12  and  C_13
REMARK                            x       y       z     vdW  Elec       q    Type
REMARK                         _______ _______ _______ _____ _____    ______ ____
ROOT
ATOM      1  C   UNL     1       6.668   0.014   0.456  0.00  0.00    +0.000 A 
ATOM      2  C   UNL     1       7.418   0.313   1.607  0.00  0.00    +0.000 A 
ATOM      3  C   UNL     1       8.810   0.244   1.601  0.00  0.00    +0.000 A 
ATOM      4  C   UNL     1       9.488  -0.123   0.442  0.00  0.00    +0.000 A 
ATOM      5  C   UNL     1       8.787  -0.446  -0.725  0.00  0.00    +0.000 A 
ATOM      6  C   UNL     1       7.381  -0.365  -0.701  0.00  0.00    +0.000 A 
ENDROOT
BRANCH   1  11
ATOM      7  C   UNL     1       1.020   0.710   0.052  0.00  0.00    +0.000 C 
ATOM      8  C   UNL     1       2.486   0.495   0.239  0.00  0.00    +0.000 A 
ATOM      9  C   UNL     1       3.020   0.117   1.459  0.00  0.00    +0.000 A 
ATOM     10  C   UNL     1       4.396  -0.068   1.559  0.00  0.00    +0.000 A 
ATOM     11  C   UNL     1       5.197   0.131   0.441  0.00  0.00    +0.000 A 
ATOM     12  N   UNL     1       4.633   0.479  -0.738  0.00  0.00    +0.000 NA
ATOM     13  N   UNL     1       3.274   0.661  -0.842  0.00  0.00    +0.000 NA
ENDBRANCH   1  11
BRANCH   5  14
ATOM     14  C   UNL     1       9.486  -0.782  -2.027  0.00  0.00    +0.000 C 
BRANCH  14  15
ATOM     15  C   UNL     1      10.863  -1.436  -1.879  0.00  0.00    +0.000 C 
BRANCH  15  16
ATOM     16  C   UNL     1      11.504  -1.705  -3.215  0.00  0.00    +0.000 A 
ATOM     17  C   UNL     1      11.308  -2.919  -3.870  0.00  0.00    +0.000 A 
ATOM     18  C   UNL     1      11.929  -3.127  -5.100  0.00  0.00    +0.000 A 
ATOM     19  C   UNL     1      12.723  -2.122  -5.639  0.00  0.00    +0.000 A 
ATOM     20 CL   UNL     1      13.511  -2.343  -7.148  0.00  0.00    +0.000 Cl
ATOM     21  C   UNL     1      12.862  -0.943  -4.928  0.00  0.00    +0.000 A 
ATOM     22  N   UNL     1      12.269  -0.712  -3.732  0.00  0.00    +0.000 NA
ENDBRANCH  15  16
ENDBRANCH  14  15
ENDBRANCH   5  14
TORSDOF 4
