REMARK  Name = 
REMARK  6 active torsions:
REMARK  status: ('A' for Active; 'I' for Inactive)
REMARK    1  A    between atoms: C_2  and  C_3
REMARK    2  A    between atoms: N_7  and  C_8
REMARK    3  A    between atoms: C_8  and  C_9
REMARK    4  A    between atoms: C_13  and  C_14
REMARK    5  A    between atoms: CA_24  and  C_25
REMARK    6  A    between atoms: C_25  and  O_26
REMARK                            x       y       z     vdW  Elec       q    Type
REMARK                         _______ _______ _______ _____ _____    ______ ____
ROOT
ATOM      1  C   UNL     1       8.718  -0.818  -0.178  0.00  0.00    +0.000 C 
ATOM      2  C   UNL     1       8.972  -1.933  -1.176  0.00  0.00    +0.000 C 
ATOM      3  C   UNL     1       8.659  -2.286   0.239  0.00  0.00    +0.000 C 
ENDROOT
BRANCH   1   8
ATOM      4  C   UNL     1       6.205   2.267  -3.429  0.00  0.00    +0.000 A 
ATOM      5  N   UNL     1       7.537   2.017  -3.373  0.00  0.00    +0.000 NA
ATOM      6  C   UNL     1       7.946   1.235  -2.333  0.00  0.00    +0.000 A 
ATOM      7  C   UNL     1       7.083   0.713  -1.372  0.00  0.00    +0.000 A 
ATOM      8  N   UNL     1       7.470  -0.060  -0.280  0.00  0.00    +0.000 N 
ATOM      9  N   UNL     1       5.758   0.965  -1.457  0.00  0.00    +0.000 NA
ATOM     10  CA  UNL     1       5.320   1.727  -2.500  0.00  0.00    +0.000 A 
ATOM     11  H   UNL     1       6.649  -0.368   0.228  0.00  0.00    +0.000 HD
BRANCH   4  13
ATOM     12  N   UNL     1       5.397   3.785  -5.380  0.00  0.00    +0.000 NA
ATOM     13  C   UNL     1       5.778   3.113  -4.509  0.00  0.00    +0.000 C 
ENDBRANCH   4  13
BRANCH  10  14
ATOM     14  C   UNL     1       3.835   1.973  -2.548  0.00  0.00    +0.000 C 
BRANCH  14  15
ATOM     15  O   UNL     1       3.505   3.097  -1.744  0.00  0.00    +0.000 OA
ATOM     16  H   UNL     1       3.735   2.853  -0.828  0.00  0.00    +0.000 HD
ENDBRANCH  14  15
ENDBRANCH  10  14
ENDBRANCH   1   8
BRANCH   1  17
ATOM     17  C   UNL     1       9.866  -0.064   0.478  0.00  0.00    +0.000 A 
ATOM     18  C   UNL     1       9.879   0.165   1.864  0.00  0.00    +0.000 A 
ATOM     19  C   UNL     1      10.986   0.732   2.491  0.00  0.00    +0.000 A 
ATOM     20  C   UNL     1      12.088   1.126   1.733  0.00  0.00    +0.000 A 
ATOM     21  C   UNL     1      12.102   0.976   0.337  0.00  0.00    +0.000 A 
ATOM     22  C   UNL     1      10.982   0.365  -0.257  0.00  0.00    +0.000 A 
BRANCH  21  23
ATOM     23  C   UNL     1      13.241   1.427  -0.492  0.00  0.00    +0.000 A 
ATOM     24  C   UNL     1      14.565   1.349  -0.028  0.00  0.00    +0.000 A 
ATOM     25  C   UNL     1      15.636   1.786  -0.813  0.00  0.00    +0.000 A 
ATOM     26  C   UNL     1      15.407   2.295  -2.088  0.00  0.00    +0.000 A 
ATOM     27  C   UNL     1      14.108   2.374  -2.576  0.00  0.00    +0.000 A 
ATOM     28  C   UNL     1      13.039   1.952  -1.783  0.00  0.00    +0.000 A 
ENDBRANCH  21  23
ENDBRANCH   1  17
TORSDOF 6
