REMARK  Name = 
REMARK  7 active torsions:
REMARK  status: ('A' for Active; 'I' for Inactive)
REMARK    1  A    between atoms: C_1  and  C_2
REMARK    2  A    between atoms: C_4  and  C_5
REMARK    3  A    between atoms: C_4  and  C_6
REMARK    4  A    between atoms: C_9  and  C_10
REMARK    5  A    between atoms: C_15  and  C_16
REMARK    6  A    between atoms: C_15  and  C_17
REMARK    7  A    between atoms: C_20  and  C_21
REMARK                            x       y       z     vdW  Elec       q    Type
REMARK                         _______ _______ _______ _____ _____    ______ ____
ROOT
ATOM      1  C   UNL     1       0.817  -0.194   0.037  0.00  0.00    +0.000 C 
ATOM      2  C   UNL     1       2.333  -0.104   0.102  0.00  0.00    +0.000 C 
ATOM      3  C   UNL     1       3.082  -1.155   0.945  0.00  0.00    +0.000 C 
ATOM      4  C   UNL     1       4.166  -0.066   1.295  0.00  0.00    +0.000 C 
ATOM      5  C   UNL     1       5.345  -0.132   0.307  0.00  0.00    +0.000 C 
ATOM      6  C   UNL     1       3.009   1.029   0.988  0.00  0.00    +0.000 C 
ATOM      7  C   UNL     1       2.146   1.425   2.203  0.00  0.00    +0.000 C 
ENDROOT
BRANCH   4   8
ATOM      8  C   UNL     1       4.765  -0.130   2.778  0.00  0.00    +0.000 A 
ATOM      9  C   UNL     1       5.287   0.954   3.485  0.00  0.00    +0.000 A 
ATOM     10  C   UNL     1       5.737   0.795   4.792  0.00  0.00    +0.000 A 
ATOM     11  C   UNL     1       5.692  -0.461   5.387  0.00  0.00    +0.000 A 
ATOM     12  C   UNL     1       5.203  -1.503   4.616  0.00  0.00    +0.000 A 
ATOM     13  N   UNL     1       4.744  -1.364   3.343  0.00  0.00    +0.000 NA
BRANCH  11  14
ATOM     14  C   UNL     1       6.154  -0.601   6.790  0.00  0.00    +0.000 C 
ATOM     15  N   UNL     1       6.122  -1.832   7.376  0.00  0.00    +0.000 N 
ATOM     16  O   UNL     1       6.556   0.368   7.425  0.00  0.00    +0.000 OA
ATOM     17  H   UNL     1       5.820  -2.691   6.947  0.00  0.00    +0.000 HD
ATOM     18  H   UNL     1       6.445  -1.877   8.340  0.00  0.00    +0.000 HD
ENDBRANCH  11  14
ENDBRANCH   4   8
BRANCH   6  19
ATOM     19  C   UNL     1       3.406   2.388   0.168  0.00  0.00    +0.000 A 
ATOM     20  C   UNL     1       2.790   2.706  -1.061  0.00  0.00    +0.000 A 
ATOM     21  C   UNL     1       3.120   3.843  -1.806  0.00  0.00    +0.000 A 
ATOM     22  C   UNL     1       4.084   4.736  -1.342  0.00  0.00    +0.000 A 
ATOM     23  C   UNL     1       4.692   4.473  -0.112  0.00  0.00    +0.000 A 
ATOM     24  C   UNL     1       4.351   3.328   0.620  0.00  0.00    +0.000 A 
BRANCH  22  25
ATOM     25  C   UNL     1       4.460   5.957  -2.141  0.00  0.00    +0.000 C 
ATOM     26  F   UNL     1       3.777   6.069  -3.315  0.00  0.00    +0.000 F 
ATOM     27  F   UNL     1       4.230   7.116  -1.464  0.00  0.00    +0.000 F 
ATOM     28  F   UNL     1       5.780   5.976  -2.476  0.00  0.00    +0.000 F 
ENDBRANCH  22  25
ENDBRANCH   6  19
TORSDOF 4
