REMARK  Name = 
REMARK  8 active torsions:
REMARK  status: ('A' for Active; 'I' for Inactive)
REMARK    1  A    between atoms: C_1  and  O_2
REMARK    2  A    between atoms: O_2  and  C_3
REMARK    3  A    between atoms: C_10  and  C_11
REMARK    4  A    between atoms: N_13  and  C_14
REMARK    5  A    between atoms: C_14  and  C_15
REMARK    6  A    between atoms: C_18  and  N_19
REMARK    7  A    between atoms: N_19  and  C_20
REMARK    8  A    between atoms: C_20  and  C_21
REMARK                            x       y       z     vdW  Elec       q    Type
REMARK                         _______ _______ _______ _____ _____    ______ ____
ROOT
ATOM      1  C   UNL     1       2.724   3.185  -0.689  0.00  0.00    +0.000 C 
ENDROOT
BRANCH   1   2
ATOM      2  C   UNL     1       1.486   2.786  -1.447  0.00  0.00    +0.000 A 
ATOM      3  C   UNL     1       1.331   1.492  -1.952  0.00  0.00    +0.000 A 
ATOM      4  C   UNL     1       0.133   1.111  -2.572  0.00  0.00    +0.000 A 
ATOM      5  C   UNL     1      -0.940   2.005  -2.690  0.00  0.00    +0.000 A 
ATOM      6  C   UNL     1      -0.716   3.330  -2.309  0.00  0.00    +0.000 A 
ATOM      7  C   UNL     1       0.470   3.716  -1.678  0.00  0.00    +0.000 A 
BRANCH   5   8
ATOM      8  N   UNL     1      -2.132   1.566  -3.264  0.00  0.00    +0.000 N 
ATOM      9  H   UNL     1      -2.192   0.557  -3.351  0.00  0.00    +0.000 HD
BRANCH   8  10
ATOM     10  C   UNL     1      -3.406   2.221  -2.941  0.00  0.00    +0.000 C 
BRANCH  10  11
ATOM     11  C   UNL     1      -4.392   1.267  -2.229  0.00  0.00    +0.000 C 
ATOM     12  C   UNL     1      -4.848   0.082  -3.096  0.00  0.00    +0.000 C 
ATOM     13  C   UNL     1      -5.735   0.544  -4.249  0.00  0.00    +0.000 C 
ATOM     14  C   UNL     1      -6.896   1.400  -3.745  0.00  0.00    +0.000 C 
ATOM     15  N   UNL     1      -6.438   2.517  -2.915  0.00  0.00    +0.000 NA
ATOM     16  C   UNL     1      -5.640   2.053  -1.777  0.00  0.00    +0.000 C 
ATOM     17  H   UNL     1      -7.250   3.032  -2.572  0.00  0.00    +0.000 HD
ENDBRANCH  10  11
ENDBRANCH   8  10
ENDBRANCH   5   8
ENDBRANCH   1   2
BRANCH   1  20
ATOM     18  C   UNL     1       4.920   4.200  -1.086  0.00  0.00    +0.000 C 
ATOM     19  O   UNL     1       5.201   4.123   0.108  0.00  0.00    +0.000 OA
ATOM     20  N   UNL     1       3.719   3.751  -1.560  0.00  0.00    +0.000 N 
ATOM     21  H   UNL     1       3.485   3.845  -2.539  0.00  0.00    +0.000 HD
BRANCH  18  29
ATOM     22  C   UNL     1       4.827   4.637  -4.495  0.00  0.00    +0.000 A 
ATOM     23  N   UNL     1       5.022   4.976  -5.785  0.00  0.00    +0.000 NA
ATOM     24  C   UNL     1       6.153   5.616  -6.098  0.00  0.00    +0.000 A 
ATOM     25  N   UNL     1       7.137   5.959  -5.274  0.00  0.00    +0.000 NA
ATOM     26  C   UNL     1       6.894   5.615  -3.997  0.00  0.00    +0.000 A 
ATOM     27  S   UNL     1       8.046   5.966  -2.801  0.00  0.00    +0.000 S 
ATOM     28  C   UNL     1       7.066   5.291  -1.589  0.00  0.00    +0.000 A 
ATOM     29  C   UNL     1       5.856   4.792  -2.056  0.00  0.00    +0.000 A 
ATOM     30  C   UNL     1       5.766   4.969  -3.503  0.00  0.00    +0.000 A 
BRANCH  22  32
ATOM     31  C   UNL     1       3.085   3.264  -5.253  0.00  0.00    +0.000 C 
ATOM     32  O   UNL     1       3.660   3.983  -4.165  0.00  0.00    +0.000 OA
ENDBRANCH  22  32
ENDBRANCH  18  29
ENDBRANCH   1  20
TORSDOF 7
