REMARK  Name = 
REMARK  7 active torsions:
REMARK  status: ('A' for Active; 'I' for Inactive)
REMARK    1  A    between atoms: N_1  and  C_2
REMARK    2  A    between atoms: C_2  and  C_3
REMARK    3  A    between atoms: C_10  and  C_11
REMARK    4  A    between atoms: C_11  and  C_12
REMARK    5  A    between atoms: N_18  and  C_19
REMARK    6  A    between atoms: C_19  and  C_20
REMARK    7  A    between atoms: C_20  and  O_21
REMARK                            x       y       z     vdW  Elec       q    Type
REMARK                         _______ _______ _______ _____ _____    ______ ____
ROOT
ATOM      1  C   UNL     1       2.765  -0.888  -0.545  0.00  0.00    +0.000 A 
ATOM      2  C   UNL     1       3.479  -0.184  -1.513  0.00  0.00    +0.000 A 
ATOM      3  N   UNL     1       3.948  -0.696  -2.669  0.00  0.00    +0.000 NA
ATOM      4  C   UNL     1       3.684  -2.002  -2.802  0.00  0.00    +0.000 A 
ATOM      5  C   UNL     1       3.062  -2.861  -1.915  0.00  0.00    +0.000 A 
ATOM      6  C   UNL     1       2.576  -2.280  -0.729  0.00  0.00    +0.000 A 
ATOM      7  N   UNL     1       3.001  -4.141  -2.469  0.00  0.00    +0.000 NA
ATOM      8  C   UNL     1       3.482  -4.045  -3.708  0.00  0.00    +0.000 A 
ATOM      9  N   UNL     1       3.799  -2.721  -3.973  0.00  0.00    +0.000 N 
ENDROOT
BRANCH   1  10
ATOM     10  C   UNL     1       2.137  -0.109   0.579  0.00  0.00    +0.000 C 
BRANCH  10  11
ATOM     11  N   UNL     1       0.839   0.419   0.175  0.00  0.00    +0.000 NA
ATOM     12  H   UNL     1       0.408   0.912   0.955  0.00  0.00    +0.000 HD
ATOM     13  H   UNL     1       0.215  -0.353  -0.059  0.00  0.00    +0.000 HD
ENDBRANCH  10  11
ENDBRANCH   1  10
BRANCH   8  14
ATOM     14  C   UNL     1       3.561  -5.123  -4.788  0.00  0.00    +0.000 C 
BRANCH  14  15
ATOM     15  C   UNL     1       3.429  -6.603  -4.337  0.00  0.00    +0.000 C 
ATOM     16  C   UNL     1       4.685  -7.200  -3.678  0.00  0.00    +0.000 C 
ATOM     17  C   UNL     1       5.762  -7.686  -4.654  0.00  0.00    +0.000 C 
ATOM     18  N   UNL     1       5.270  -8.574  -5.703  0.00  0.00    +0.000 NA
ATOM     19  C   UNL     1       4.121  -8.024  -6.411  0.00  0.00    +0.000 C 
ATOM     20  C   UNL     1       2.995  -7.538  -5.494  0.00  0.00    +0.000 C 
ATOM     21  H   UNL     1       5.040  -9.487  -5.313  0.00  0.00    +0.000 HD
ENDBRANCH  14  15
ENDBRANCH   8  14
BRANCH   9  22
ATOM     22  C   UNL     1       3.978  -2.039  -5.239  0.00  0.00    +0.000 C 
BRANCH  22  23
ATOM     23  C   UNL     1       2.736  -1.233  -5.668  0.00  0.00    +0.000 C 
BRANCH  23  24
ATOM     24  O   UNL     1       2.523  -0.025  -4.942  0.00  0.00    +0.000 OA
ATOM     25  H   UNL     1       2.838  -0.145  -4.022  0.00  0.00    +0.000 HD
ENDBRANCH  23  24
ENDBRANCH  22  23
ENDBRANCH   9  22
TORSDOF 7
