REMARK  Name = 
REMARK  5 active torsions:
REMARK  status: ('A' for Active; 'I' for Inactive)
REMARK    1  A    between atoms: C_2  and  C_20
REMARK    2  A    between atoms: N_3  and  C_4
REMARK    3  A    between atoms: C_4  and  C_5
REMARK    4  A    between atoms: C_8  and  C_9
REMARK    5  A    between atoms: C_9  and  N_10
REMARK                            x       y       z     vdW  Elec       q    Type
REMARK                         _______ _______ _______ _____ _____    ______ ____
ROOT
ATOM      1  C   UNL     1       3.378  -3.487  -2.767  0.00  0.00    +0.000 C 
ENDROOT
BRANCH   1   2
ATOM      2  C   UNL     1       3.205  -3.525  -1.233  0.00  0.00    +0.000 C 
ATOM      3  C   UNL     1       2.657  -4.857  -0.705  0.00  0.00    +0.000 C 
ATOM      4  C   UNL     1       3.660  -6.007  -0.716  0.00  0.00    +0.000 C 
ATOM      5  C   UNL     1       5.048  -5.646  -0.154  0.00  0.00    +0.000 C 
ATOM      6  C   UNL     1       5.559  -4.284  -0.650  0.00  0.00    +0.000 C 
ATOM      7  C   UNL     1       4.510  -3.188  -0.501  0.00  0.00    +0.000 C 
BRANCH   5   8
ATOM      8  C   UNL     1       6.088  -6.733  -0.490  0.00  0.00    +0.000 C 
BRANCH   8   9
ATOM      9  N   UNL     1       5.710  -8.010   0.116  0.00  0.00    +0.000 N 
ATOM     10  C   UNL     1       6.584  -9.067  -0.189  0.00  0.00    +0.000 A 
ATOM     11  C   UNL     1       6.294 -10.327   0.337  0.00  0.00    +0.000 A 
ATOM     12  C   UNL     1       7.120 -11.408   0.030  0.00  0.00    +0.000 A 
ATOM     13  C   UNL     1       8.220 -11.200  -0.787  0.00  0.00    +0.000 A 
ATOM     14 CL   UNL     1       9.257 -12.498  -1.213  0.00  0.00    +0.000 Cl
ATOM     15  C   UNL     1       8.453  -9.919  -1.254  0.00  0.00    +0.000 A 
ATOM     16  N   UNL     1       7.663  -8.856  -0.968  0.00  0.00    +0.000 NA
ATOM     17  H   UNL     1       4.776  -8.302  -0.156  0.00  0.00    +0.000 HD
ENDBRANCH   8   9
ENDBRANCH   5   8
ENDBRANCH   1   2
BRANCH   1  20
ATOM     18  O   UNL     1       0.953  -1.964  -2.669  0.00  0.00    +0.000 OA
ATOM     19  C   UNL     1       1.046  -2.913  -3.433  0.00  0.00    +0.000 C 
ATOM     20  N   UNL     1       2.161  -3.721  -3.525  0.00  0.00    +0.000 N 
ATOM     21  H   UNL     1       2.250  -4.264  -4.371  0.00  0.00    +0.000 HD
BRANCH  19  22
ATOM     22  C   UNL     1      -0.050  -3.323  -4.325  0.00  0.00    +0.000 A 
ATOM     23  C   UNL     1      -0.301  -4.642  -4.673  0.00  0.00    +0.000 A 
ATOM     24  S   UNL     1      -1.692  -4.826  -5.650  0.00  0.00    +0.000 S 
ATOM     25  C   UNL     1      -1.993  -3.147  -5.636  0.00  0.00    +0.000 A 
ATOM     26  N   UNL     1      -3.063  -2.617  -6.286  0.00  0.00    +0.000 NA
ATOM     27  C   UNL     1      -3.168  -1.337  -6.173  0.00  0.00    +0.000 A 
ATOM     28  N   UNL     1      -2.299  -0.536  -5.475  0.00  0.00    +0.000 N 
ATOM     29  C   UNL     1      -1.159  -1.015  -4.874  0.00  0.00    +0.000 A 
ATOM     30  O   UNL     1      -0.318  -0.242  -4.431  0.00  0.00    +0.000 OA
ATOM     31  C   UNL     1      -1.037  -2.460  -4.913  0.00  0.00    +0.000 A 
ATOM     32  H   UNL     1      -2.399   0.468  -5.471  0.00  0.00    +0.000 HD
ENDBRANCH  19  22
ENDBRANCH   1  20
TORSDOF 5
