REMARK  Name = 
REMARK  7 active torsions:
REMARK  status: ('A' for Active; 'I' for Inactive)
REMARK    1  A    between atoms: C_1  and  C_2
REMARK    2  A    between atoms: C_2  and  O_3
REMARK    3  A    between atoms: C_5  and  N_6
REMARK    4  A    between atoms: C_9  and  C_10
REMARK    5  A    between atoms: C_10  and  C_13
REMARK    6  A    between atoms: C_13  and  N_14
REMARK    7  A    between atoms: C_18  and  C_19
REMARK                            x       y       z     vdW  Elec       q    Type
REMARK                         _______ _______ _______ _____ _____    ______ ____
ROOT
ATOM      1  C   UNL     1       6.710  -4.540   1.679  0.00  0.00    +0.000 C 
ATOM      2  F   UNL     1       5.504  -5.124   1.404  0.00  0.00    +0.000 F 
ATOM      3  F   UNL     1       7.205  -4.162   0.455  0.00  0.00    +0.000 F 
ENDROOT
BRANCH   1   7
ATOM      4  N   UNL     1       4.769  -0.075   2.403  0.00  0.00    +0.000 N 
ATOM      5  C   UNL     1       5.558  -1.128   2.915  0.00  0.00    +0.000 A 
ATOM      6  C   UNL     1       5.700  -2.280   2.145  0.00  0.00    +0.000 A 
ATOM      7  C   UNL     1       6.526  -3.328   2.583  0.00  0.00    +0.000 A 
ATOM      8  C   UNL     1       7.146  -3.179   3.828  0.00  0.00    +0.000 A 
ATOM      9  C   UNL     1       6.937  -2.009   4.540  0.00  0.00    +0.000 A 
ATOM     10  N   UNL     1       6.179  -0.985   4.102  0.00  0.00    +0.000 NA
ATOM     11  H   UNL     1       3.803  -0.395   2.365  0.00  0.00    +0.000 HD
BRANCH   4  15
ATOM     12  C   UNL     1       5.876   3.932   0.903  0.00  0.00    +0.000 C 
ATOM     13  C   UNL     1       5.424   3.208   2.162  0.00  0.00    +0.000 C 
ATOM     14  C   UNL     1       6.222   1.918   2.480  0.00  0.00    +0.000 C 
ATOM     15  C   UNL     1       4.884   1.265   2.903  0.00  0.00    +0.000 C 
ATOM     16  C   UNL     1       4.174   2.296   1.994  0.00  0.00    +0.000 C 
BRANCH  13  17
ATOM     17  O   UNL     1       5.333   4.160   3.246  0.00  0.00    +0.000 OA
ATOM     18  H   UNL     1       6.246   4.464   3.393  0.00  0.00    +0.000 HD
ENDBRANCH  13  17
ENDBRANCH   4  15
ENDBRANCH   1   7
BRANCH   1  19
ATOM     19  C   UNL     1       7.666  -5.622   2.242  0.00  0.00    +0.000 C 
BRANCH  19  20
ATOM     20  N   UNL     1       7.843  -6.816   1.379  0.00  0.00    +0.000 N 
ATOM     21  C   UNL     1       8.770  -7.732   1.911  0.00  0.00    +0.000 A 
ATOM     22  C   UNL     1       9.056  -8.928   1.238  0.00  0.00    +0.000 A 
ATOM     23  N   UNL     1       9.936  -9.870   1.684  0.00  0.00    +0.000 NA
ATOM     24  C   UNL     1      10.521  -9.569   2.876  0.00  0.00    +0.000 A 
ATOM     25  C   UNL     1      10.234  -8.405   3.566  0.00  0.00    +0.000 A 
ATOM     26  N   UNL     1       9.359  -7.477   3.102  0.00  0.00    +0.000 NA
ATOM     27  H   UNL     1       8.102  -6.560   0.428  0.00  0.00    +0.000 HD
BRANCH  24  28
ATOM     28  C   UNL     1      11.514 -10.525   3.441  0.00  0.00    +0.000 C 
ATOM     29  N   UNL     1      11.746 -11.658   2.708  0.00  0.00    +0.000 N 
ATOM     30  O   UNL     1      12.096 -10.312   4.495  0.00  0.00    +0.000 OA
ATOM     31  H   UNL     1      11.252 -11.816   1.837  0.00  0.00    +0.000 HD
ATOM     32  H   UNL     1      12.416 -12.332   3.043  0.00  0.00    +0.000 HD
ENDBRANCH  24  28
ENDBRANCH  19  20
ENDBRANCH   1  19
TORSDOF 6
