REMARK  Name = 
REMARK  6 active torsions:
REMARK  status: ('A' for Active; 'I' for Inactive)
REMARK    1  A    between atoms: C_1  and  O_2
REMARK    2  A    between atoms: O_2  and  C_3
REMARK    3  A    between atoms: C_6  and  C_7
REMARK    4  A    between atoms: C_7  and  N_8
REMARK    5  A    between atoms: N_8  and  C_9
REMARK    6  A    between atoms: C_12  and  C_13
REMARK                            x       y       z     vdW  Elec       q    Type
REMARK                         _______ _______ _______ _____ _____    ______ ____
ROOT
ATOM      1  N   UNL     1       5.900   4.988   1.721  0.00  0.00    +0.000 N 
ATOM      2  H   UNL     1       5.245   5.599   1.244  0.00  0.00    +0.000 HD
ENDROOT
BRANCH   1   3
ATOM      3  C   UNL     1       7.090   4.767   1.011  0.00  0.00    +0.000 A 
ATOM      4  C   UNL     1       7.468   5.681   0.018  0.00  0.00    +0.000 A 
ATOM      5  C   UNL     1       8.683   5.542  -0.652  0.00  0.00    +0.000 A 
ATOM      6  C   UNL     1       9.508   4.488  -0.294  0.00  0.00    +0.000 A 
ATOM      7  N   UNL     1       9.200   3.581   0.678  0.00  0.00    +0.000 NA
ATOM      8  C   UNL     1       8.007   3.757   1.300  0.00  0.00    +0.000 A 
BRANCH   6   9
ATOM      9  C   UNL     1      10.827   4.307  -0.980  0.00  0.00    +0.000 C 
ATOM     10  N   UNL     1      11.570   3.246  -0.541  0.00  0.00    +0.000 N 
ATOM     11  O   UNL     1      11.221   5.052  -1.869  0.00  0.00    +0.000 OA
ATOM     12  H   UNL     1      11.203   2.658   0.201  0.00  0.00    +0.000 HD
ATOM     13  H   UNL     1      12.473   3.059  -0.950  0.00  0.00    +0.000 HD
ENDBRANCH   6   9
ENDBRANCH   1   3
BRANCH   1  14
ATOM     14  C   UNL     1       5.332   4.069   2.723  0.00  0.00    +0.000 C 
ATOM     15  C   UNL     1       5.964   3.953   4.097  0.00  0.00    +0.000 C 
ATOM     16  C   UNL     1       4.716   4.755   3.941  0.00  0.00    +0.000 C 
BRANCH  14  20
ATOM     17  C   UNL     1       2.880   0.736   1.295  0.00  0.00    +0.000 A 
ATOM     18  C   UNL     1       4.087   0.487   1.941  0.00  0.00    +0.000 A 
ATOM     19  C   UNL     1       4.899   1.555   2.355  0.00  0.00    +0.000 A 
ATOM     20  C   UNL     1       4.522   2.897   2.160  0.00  0.00    +0.000 A 
ATOM     21  C   UNL     1       3.319   3.118   1.470  0.00  0.00    +0.000 A 
ATOM     22  C   UNL     1       2.511   2.056   1.046  0.00  0.00    +0.000 A 
BRANCH  17  24
ATOM     23  C   UNL     1       2.269  -1.561   1.163  0.00  0.00    +0.000 C 
ATOM     24  O   UNL     1       1.983  -0.201   0.863  0.00  0.00    +0.000 OA
ENDBRANCH  17  24
ENDBRANCH  14  20
ENDBRANCH   1  14
TORSDOF 5
