REMARK  Name = 
REMARK  5 active torsions:
REMARK  status: ('A' for Active; 'I' for Inactive)
REMARK    1  A    between atoms: C_2  and  C_24
REMARK    2  A    between atoms: N_3  and  C_4
REMARK    3  A    between atoms: C_7  and  C_8
REMARK    4  A    between atoms: C_8  and  N_9
REMARK    5  A    between atoms: C_10  and  C_12
REMARK                            x       y       z     vdW  Elec       q    Type
REMARK                         _______ _______ _______ _____ _____    ______ ____
ROOT
ATOM      1  C   UNL     1       2.161   2.384  -0.155  0.00  0.00    +0.000 A 
ATOM      2  C   UNL     1       1.069   2.690   0.659  0.00  0.00    +0.000 A 
ATOM      3  C   UNL     1       0.430   3.929   0.568  0.00  0.00    +0.000 A 
ATOM      4  C   UNL     1       0.870   4.890  -0.346  0.00  0.00    +0.000 A 
ATOM      5  C   UNL     1       2.013   4.616  -1.108  0.00  0.00    +0.000 A 
ATOM      6  C   UNL     1       2.656   3.374  -1.011  0.00  0.00    +0.000 A 
ENDROOT
BRANCH   1   9
ATOM      7  O   UNL     1       1.126  -0.164   0.877  0.00  0.00    +0.000 OA
ATOM      8  C   UNL     1       2.229  -0.050   0.351  0.00  0.00    +0.000 C 
ATOM      9  N   UNL     1       2.783   1.112  -0.165  0.00  0.00    +0.000 N 
ATOM     10  H   UNL     1       3.607   1.022  -0.746  0.00  0.00    +0.000 HD
BRANCH   8  11
ATOM     11  C   UNL     1       3.031  -1.290   0.187  0.00  0.00    +0.000 A 
ATOM     12  C   UNL     1       2.338  -2.488  -0.044  0.00  0.00    +0.000 A 
ATOM     13  C   UNL     1       3.029  -3.693  -0.160  0.00  0.00    +0.000 A 
ATOM     14  C   UNL     1       4.417  -3.706  -0.037  0.00  0.00    +0.000 A 
ATOM     15  C   UNL     1       5.105  -2.514   0.205  0.00  0.00    +0.000 A 
ATOM     16 CL   UNL     1       6.817  -2.545   0.379  0.00  0.00    +0.000 Cl
ATOM     17  C   UNL     1       4.422  -1.302   0.319  0.00  0.00    +0.000 A 
ENDBRANCH   8  11
ENDBRANCH   1   9
BRANCH   4  18
ATOM     18  C   UNL     1       0.139   6.200  -0.477  0.00  0.00    +0.000 C 
BRANCH  18  19
ATOM     19  N   UNL     1       0.652   7.177   0.445  0.00  0.00    +0.000 N 
ATOM     20  C   UNL     1       0.066   8.409   0.576  0.00  0.00    +0.000 C 
ATOM     21  O   UNL     1      -0.948   8.718  -0.045  0.00  0.00    +0.000 OA
ATOM     22  H   UNL     1       1.588   7.024   0.805  0.00  0.00    +0.000 HD
BRANCH  20  23
ATOM     23  C   UNL     1       0.681   9.325   1.543  0.00  0.00    +0.000 A 
ATOM     24  C   UNL     1      -0.073  10.355   2.091  0.00  0.00    +0.000 A 
ATOM     25  S   UNL     1       0.780  11.296   3.229  0.00  0.00    +0.000 S 
ATOM     26  C   UNL     1       2.203  10.394   2.991  0.00  0.00    +0.000 A 
ATOM     27  N   UNL     1       3.345  10.702   3.661  0.00  0.00    +0.000 NA
ATOM     28  C   UNL     1       4.356   9.956   3.362  0.00  0.00    +0.000 A 
ATOM     29  N   UNL     1       4.325   8.923   2.461  0.00  0.00    +0.000 N 
ATOM     30  C   UNL     1       3.185   8.558   1.784  0.00  0.00    +0.000 A 
ATOM     31  O   UNL     1       3.188   7.604   1.013  0.00  0.00    +0.000 OA
ATOM     32  C   UNL     1       2.024   9.375   2.072  0.00  0.00    +0.000 A 
ATOM     33  H   UNL     1       5.149   8.371   2.279  0.00  0.00    +0.000 HD
ENDBRANCH  20  23
ENDBRANCH  18  19
ENDBRANCH   4  18
TORSDOF 5
