REMARK  Name = 
REMARK  5 active torsions:
REMARK  status: ('A' for Active; 'I' for Inactive)
REMARK    1  A    between atoms: C_2  and  C_18
REMARK    2  A    between atoms: N_3  and  C_4
REMARK    3  A    between atoms: C_4  and  C_5
REMARK    4  A    between atoms: C_8  and  C_9
REMARK    5  A    between atoms: C_9  and  C_10
REMARK                            x       y       z     vdW  Elec       q    Type
REMARK                         _______ _______ _______ _____ _____    ______ ____
ROOT
ATOM      1  O   UNL     1       2.103   2.986   0.132  0.00  0.00    +0.000 OA
ATOM      2  C   UNL     1       2.793   1.984  -0.036  0.00  0.00    +0.000 C 
ATOM      3  N   UNL     1       2.903   1.002   0.914  0.00  0.00    +0.000 N 
ATOM      4  H   UNL     1       3.606   0.280   0.801  0.00  0.00    +0.000 HD
ENDROOT
BRANCH   2   5
ATOM      5  C   UNL     1       3.510   1.752  -1.295  0.00  0.00    +0.000 A 
ATOM      6  C   UNL     1       3.084   2.387  -2.455  0.00  0.00    +0.000 A 
ATOM      7  S   UNL     1       4.027   2.013  -3.824  0.00  0.00    +0.000 S 
ATOM      8  C   UNL     1       5.065   1.025  -2.907  0.00  0.00    +0.000 A 
ATOM      9  N   UNL     1       6.140   0.419  -3.480  0.00  0.00    +0.000 NA
ATOM     10  C   UNL     1       6.864  -0.268  -2.663  0.00  0.00    +0.000 A 
ATOM     11  N   UNL     1       6.602  -0.418  -1.324  0.00  0.00    +0.000 N 
ATOM     12  C   UNL     1       5.484   0.106  -0.720  0.00  0.00    +0.000 A 
ATOM     13  O   UNL     1       5.197  -0.171   0.440  0.00  0.00    +0.000 OA
ATOM     14  C   UNL     1       4.672   0.944  -1.583  0.00  0.00    +0.000 A 
ATOM     15  H   UNL     1       7.191  -0.999  -0.745  0.00  0.00    +0.000 HD
ENDBRANCH   2   5
BRANCH   3  16
ATOM     16  C   UNL     1       2.300   1.116   2.217  0.00  0.00    +0.000 C 
BRANCH  16  17
ATOM     17  C   UNL     1       3.259   1.676   3.223  0.00  0.00    +0.000 A 
ATOM     18  C   UNL     1       3.389   3.052   3.416  0.00  0.00    +0.000 A 
ATOM     19  C   UNL     1       4.256   3.535   4.391  0.00  0.00    +0.000 A 
ATOM     20  C   UNL     1       4.992   2.626   5.145  0.00  0.00    +0.000 A 
ATOM     21  N   UNL     1       4.917   1.285   4.949  0.00  0.00    +0.000 NA
ATOM     22  C   UNL     1       4.064   0.846   3.994  0.00  0.00    +0.000 A 
BRANCH  20  23
ATOM     23  C   UNL     1       5.851   3.101   6.293  0.00  0.00    +0.000 C 
BRANCH  23  24
ATOM     24  C   UNL     1       5.071   3.218   7.576  0.00  0.00    +0.000 A 
ATOM     25  C   UNL     1       4.516   2.089   8.177  0.00  0.00    +0.000 A 
ATOM     26  N   UNL     1       3.770   2.145   9.307  0.00  0.00    +0.000 NA
ATOM     27  C   UNL     1       3.596   3.383   9.819  0.00  0.00    +0.000 A 
ATOM     28  C   UNL     1       4.153   4.510   9.240  0.00  0.00    +0.000 A 
ATOM     29  N   UNL     1       4.900   4.457   8.112  0.00  0.00    +0.000 NA
ENDBRANCH  23  24
ENDBRANCH  20  23
ENDBRANCH  16  17
ENDBRANCH   3  16
TORSDOF 5
