REMARK  Name = 
REMARK  7 active torsions:
REMARK  status: ('A' for Active; 'I' for Inactive)
REMARK    1  A    between atoms: C_2  and  C_20
REMARK    2  A    between atoms: N_3  and  C_4
REMARK    3  A    between atoms: C_4  and  C_5
REMARK    4  A    between atoms: C_8  and  C_9
REMARK    5  A    between atoms: C_9  and  N_10
REMARK    6  A    between atoms: N_10  and  C_11
REMARK    7  A    between atoms: C_11  and  C_12
REMARK                            x       y       z     vdW  Elec       q    Type
REMARK                         _______ _______ _______ _____ _____    ______ ____
ROOT
ATOM      1  C   UNL     1       3.809   3.902  -1.636  0.00  0.00    +0.000 C 
ENDROOT
BRANCH   1   2
ATOM      2  C   UNL     1       3.216   3.876  -0.216  0.00  0.00    +0.000 C 
ATOM      3  C   UNL     1       4.251   3.552   0.876  0.00  0.00    +0.000 C 
ATOM      4  C   UNL     1       5.292   4.656   1.058  0.00  0.00    +0.000 C 
ATOM      5  C   UNL     1       4.649   6.025   1.337  0.00  0.00    +0.000 C 
ATOM      6  C   UNL     1       3.527   6.353   0.332  0.00  0.00    +0.000 C 
ATOM      7  C   UNL     1       2.538   5.208   0.123  0.00  0.00    +0.000 C 
BRANCH   5   8
ATOM      8  C   UNL     1       5.730   7.132   1.338  0.00  0.00    +0.000 C 
BRANCH   8   9
ATOM      9  N   UNL     1       5.122   8.423   1.644  0.00  0.00    +0.000 NA
ATOM     10  H   UNL     1       4.700   8.402   2.571  0.00  0.00    +0.000 HD
BRANCH   9  11
ATOM     11  C   UNL     1       6.067   9.532   1.561  0.00  0.00    +0.000 C 
BRANCH  11  12
ATOM     12  C   UNL     1       5.364  10.835   1.836  0.00  0.00    +0.000 A 
ATOM     13  C   UNL     1       4.309  11.278   1.030  0.00  0.00    +0.000 A 
ATOM     14  C   UNL     1       3.663  12.474   1.327  0.00  0.00    +0.000 A 
ATOM     15  C   UNL     1       4.099  13.196   2.425  0.00  0.00    +0.000 A 
ATOM     16  N   UNL     1       5.120  12.812   3.221  0.00  0.00    +0.000 NA
ATOM     17  C   UNL     1       5.726  11.642   2.909  0.00  0.00    +0.000 A 
ENDBRANCH  11  12
ENDBRANCH   9  11
ENDBRANCH   8   9
ENDBRANCH   5   8
ENDBRANCH   1   2
BRANCH   1  20
ATOM     18  O   UNL     1       2.502   1.609  -2.767  0.00  0.00    +0.000 OA
ATOM     19  C   UNL     1       3.711   1.587  -2.570  0.00  0.00    +0.000 C 
ATOM     20  N   UNL     1       4.397   2.638  -2.013  0.00  0.00    +0.000 N 
ATOM     21  H   UNL     1       5.408   2.603  -1.988  0.00  0.00    +0.000 HD
BRANCH  19  22
ATOM     22  C   UNL     1       4.530   0.399  -2.867  0.00  0.00    +0.000 A 
ATOM     23  C   UNL     1       3.944  -0.858  -2.926  0.00  0.00    +0.000 A 
ATOM     24  S   UNL     1       5.058  -2.111  -3.252  0.00  0.00    +0.000 S 
ATOM     25  C   UNL     1       6.352  -1.010  -3.374  0.00  0.00    +0.000 A 
ATOM     26  N   UNL     1       7.611  -1.433  -3.671  0.00  0.00    +0.000 NA
ATOM     27  C   UNL     1       8.483  -0.486  -3.763  0.00  0.00    +0.000 A 
ATOM     28  N   UNL     1       8.218   0.845  -3.575  0.00  0.00    +0.000 N 
ATOM     29  C   UNL     1       6.979   1.307  -3.209  0.00  0.00    +0.000 A 
ATOM     30  O   UNL     1       6.811   2.490  -2.926  0.00  0.00    +0.000 OA
ATOM     31  C   UNL     1       5.945   0.289  -3.137  0.00  0.00    +0.000 A 
ATOM     32  H   UNL     1       8.951   1.534  -3.624  0.00  0.00    +0.000 HD
ENDBRANCH  19  22
ENDBRANCH   1  20
TORSDOF 7
