REMARK  Name = 
REMARK  5 active torsions:
REMARK  status: ('A' for Active; 'I' for Inactive)
REMARK    1  A    between atoms: C_1  and  C_2
REMARK    2  A    between atoms: N_5  and  C_6
REMARK    3  A    between atoms: C_6  and  C_7
REMARK    4  A    between atoms: C_11  and  C_12
REMARK    5  A    between atoms: C_21  and  C_22
REMARK                            x       y       z     vdW  Elec       q    Type
REMARK                         _______ _______ _______ _____ _____    ______ ____
ROOT
ATOM      1  C   UNL     1      -0.083   2.712   4.240  0.00  0.00    +0.000 C 
ATOM      2  C   UNL     1       0.237   2.315   2.828  0.00  0.00    +0.000 A 
ATOM      3  N   UNL     1      -0.776   2.499   1.926  0.00  0.00    +0.000 NA
ATOM      4  C   UNL     1      -0.553   2.258   0.620  0.00  0.00    +0.000 A 
ATOM      5  N   UNL     1      -1.589   2.279  -0.313  0.00  0.00    +0.000 N 
ATOM      6  C   UNL     1       0.709   1.880   0.172  0.00  0.00    +0.000 A 
ATOM      7  C   UNL     1       1.726   1.632   1.091  0.00  0.00    +0.000 A 
ATOM      8  C   UNL     1       1.482   1.801   2.458  0.00  0.00    +0.000 A 
ATOM      9  H   UNL     1      -1.352   2.851  -1.116  0.00  0.00    +0.000 HD
ENDROOT
BRANCH   8  10
ATOM     10  C   UNL     1       2.518   1.417   3.449  0.00  0.00    +0.000 C 
ATOM     11  N   UNL     1       3.363   0.392   3.099  0.00  0.00    +0.000 N 
ATOM     12  O   UNL     1       2.611   1.931   4.557  0.00  0.00    +0.000 OA
ATOM     13  H   UNL     1       3.185  -0.220   2.318  0.00  0.00    +0.000 HD
ATOM     14  H   UNL     1       3.978   0.051   3.829  0.00  0.00    +0.000 HD
ENDBRANCH   8  10
BRANCH   5  15
ATOM     15  C   UNL     1      -2.966   2.493   0.146  0.00  0.00    +0.000 C 
BRANCH  15  16
ATOM     16  C   UNL     1      -3.710   1.176   0.350  0.00  0.00    +0.000 A 
ATOM     17  C   UNL     1      -3.244   0.257   1.284  0.00  0.00    +0.000 A 
ATOM     18  C   UNL     1      -3.860  -0.981   1.379  0.00  0.00    +0.000 A 
ATOM     19  C   UNL     1      -4.972  -1.249   0.592  0.00  0.00    +0.000 A 
ATOM     20  C   UNL     1      -5.478  -0.251  -0.240  0.00  0.00    +0.000 A 
ATOM     21  N   UNL     1      -4.834   0.942  -0.388  0.00  0.00    +0.000 NA
BRANCH  20  22
ATOM     22  C   UNL     1      -6.823  -0.371  -0.860  0.00  0.00    +0.000 A 
ATOM     23  C   UNL     1      -7.620   0.773  -1.048  0.00  0.00    +0.000 A 
ATOM     24  C   UNL     1      -8.952   0.682  -1.468  0.00  0.00    +0.000 A 
ATOM     25  C   UNL     1      -9.518  -0.562  -1.725  0.00  0.00    +0.000 A 
ATOM     26  C   UNL     1      -8.745  -1.710  -1.590  0.00  0.00    +0.000 A 
ATOM     27  C   UNL     1      -7.411  -1.614  -1.172  0.00  0.00    +0.000 A 
ENDBRANCH  20  22
ENDBRANCH  15  16
ENDBRANCH   5  15
TORSDOF 4
