REMARK  Name = 
REMARK  5 active torsions:
REMARK  status: ('A' for Active; 'I' for Inactive)
REMARK    1  A    between atoms: C_2  and  C_4
REMARK    2  A    between atoms: C_7  and  N_8
REMARK    3  A    between atoms: N_8  and  C_9
REMARK    4  A    between atoms: C_9  and  C_10
REMARK    5  A    between atoms: C_14  and  C_15
REMARK                            x       y       z     vdW  Elec       q    Type
REMARK                         _______ _______ _______ _____ _____    ______ ____
ROOT
ATOM      1  C   UNL     1       4.967  -1.263  -5.880  0.00  0.00    +0.000 C 
ATOM      2  C   UNL     1       4.802   0.076  -6.582  0.00  0.00    +0.000 C 
ATOM      3  C   UNL     1       3.599  -0.763  -6.328  0.00  0.00    +0.000 C 
ENDROOT
BRANCH   1   4
ATOM      4  C   UNL     1       5.493  -2.472  -6.645  0.00  0.00    +0.000 A 
ATOM      5  C   UNL     1       4.809  -3.692  -6.652  0.00  0.00    +0.000 A 
ATOM      6  C   UNL     1       5.304  -4.747  -7.400  0.00  0.00    +0.000 A 
ATOM      7  N   UNL     1       6.435  -4.684  -8.132  0.00  0.00    +0.000 NA
ATOM      8  C   UNL     1       7.131  -3.517  -8.113  0.00  0.00    +0.000 A 
ATOM      9  C   UNL     1       6.680  -2.414  -7.385  0.00  0.00    +0.000 A 
BRANCH   8  10
ATOM     10  C   UNL     1       8.385  -3.460  -8.902  0.00  0.00    +0.000 A 
ATOM     11  C   UNL     1       8.830  -4.533  -9.674  0.00  0.00    +0.000 A 
ATOM     12  C   UNL     1      10.023  -4.419 -10.384  0.00  0.00    +0.000 A 
ATOM     13  C   UNL     1      10.751  -3.239 -10.312  0.00  0.00    +0.000 A 
ATOM     14  C   UNL     1      10.250  -2.215  -9.530  0.00  0.00    +0.000 A 
ATOM     15  N   UNL     1       9.095  -2.295  -8.837  0.00  0.00    +0.000 NA
ENDBRANCH   8  10
ENDBRANCH   1   4
BRANCH   1  16
ATOM     16  N   UNL     1       5.294  -1.281  -4.444  0.00  0.00    +0.000 N 
ATOM     17  H   UNL     1       4.542  -1.418  -3.778  0.00  0.00    +0.000 HD
BRANCH  16  21
ATOM     18  C   UNL     1       8.805   0.343  -2.715  0.00  0.00    +0.000 A 
ATOM     19  C   UNL     1       8.561   0.516  -4.077  0.00  0.00    +0.000 A 
ATOM     20  C   UNL     1       7.410  -0.027  -4.655  0.00  0.00    +0.000 A 
ATOM     21  C   UNL     1       6.462  -0.717  -3.892  0.00  0.00    +0.000 A 
ATOM     22  C   UNL     1       6.752  -0.937  -2.538  0.00  0.00    +0.000 A 
ATOM     23  C   UNL     1       7.913  -0.415  -1.951  0.00  0.00    +0.000 A 
BRANCH  18  25
ATOM     24  N   UNL     1      10.515   2.071  -2.618  0.00  0.00    +0.000 N 
ATOM     25  C   UNL     1      10.004   0.929  -2.063  0.00  0.00    +0.000 C 
ATOM     26  O   UNL     1      10.490   0.447  -1.050  0.00  0.00    +0.000 OA
ATOM     27  H   UNL     1      11.261   2.525  -2.107  0.00  0.00    +0.000 HD
ATOM     28  H   UNL     1       9.997   2.627  -3.283  0.00  0.00    +0.000 HD
ENDBRANCH  18  25
ENDBRANCH  16  21
ENDBRANCH   1  16
TORSDOF 5
