REMARK  Name = 
REMARK  5 active torsions:
REMARK  status: ('A' for Active; 'I' for Inactive)
REMARK    1  A    between atoms: C_2  and  C_4
REMARK    2  A    between atoms: N_8  and  C_9
REMARK    3  A    between atoms: C_9  and  C_10
REMARK    4  A    between atoms: C_13  and  O_14
REMARK    5  A    between atoms: O_14  and  C_15
REMARK                            x       y       z     vdW  Elec       q    Type
REMARK                         _______ _______ _______ _____ _____    ______ ____
ROOT
ATOM      1  C   UNL     1       4.754  -2.233   5.519  0.00  0.00    +0.000 C 
ATOM      2  C   UNL     1       4.804  -3.748   5.323  0.00  0.00    +0.000 C 
ATOM      3  C   UNL     1       3.492  -3.079   5.549  0.00  0.00    +0.000 C 
ENDROOT
BRANCH   1   8
ATOM      4  C   UNL     1       3.384   1.903   2.713  0.00  0.00    +0.000 A 
ATOM      5  C   UNL     1       2.560   1.016   3.378  0.00  0.00    +0.000 A 
ATOM      6  C   UNL     1       3.138  -0.106   3.971  0.00  0.00    +0.000 A 
ATOM      7  C   UNL     1       4.507  -0.305   3.873  0.00  0.00    +0.000 A 
ATOM      8  N   UNL     1       5.155  -1.451   4.342  0.00  0.00    +0.000 N 
ATOM      9  N   UNL     1       5.272   0.595   3.211  0.00  0.00    +0.000 NA
ATOM     10  N   UNL     1       4.718   1.712   2.629  0.00  0.00    +0.000 NA
ATOM     11  H   UNL     1       6.153  -1.315   4.202  0.00  0.00    +0.000 HD
BRANCH   4  13
ATOM     12  N   UNL     1       3.717   3.897   1.359  0.00  0.00    +0.000 N 
ATOM     13  C   UNL     1       2.827   3.106   2.043  0.00  0.00    +0.000 C 
ATOM     14  O   UNL     1       1.635   3.387   2.088  0.00  0.00    +0.000 OA
ATOM     15  H   UNL     1       3.378   4.718   0.880  0.00  0.00    +0.000 HD
ATOM     16  H   UNL     1       4.700   3.653   1.309  0.00  0.00    +0.000 HD
ENDBRANCH   4  13
ENDBRANCH   1   8
BRANCH   1  17
ATOM     17  C   UNL     1       5.319  -1.722   6.846  0.00  0.00    +0.000 A 
ATOM     18  C   UNL     1       4.493  -1.191   7.852  0.00  0.00    +0.000 A 
ATOM     19  C   UNL     1       4.990  -0.869   9.121  0.00  0.00    +0.000 A 
ATOM     20  C   UNL     1       6.332  -1.082   9.418  0.00  0.00    +0.000 A 
ATOM     21  C   UNL     1       7.192  -1.497   8.402  0.00  0.00    +0.000 A 
ATOM     22  C   UNL     1       6.690  -1.818   7.137  0.00  0.00    +0.000 A 
BRANCH  20  23
ATOM     23  O   UNL     1       6.918  -0.874  10.628  0.00  0.00    +0.000 OA
BRANCH  23  24
ATOM     24  C   UNL     1       6.177  -1.186  11.803  0.00  0.00    +0.000 C 
ATOM     25  F   UNL     1       4.998  -1.803  11.574  0.00  0.00    +0.000 F 
ATOM     26  F   UNL     1       6.924  -2.005  12.579  0.00  0.00    +0.000 F 
ATOM     27  F   UNL     1       5.944  -0.050  12.496  0.00  0.00    +0.000 F 
ENDBRANCH  23  24
ENDBRANCH  20  23
ENDBRANCH   1  17
TORSDOF 5
