REMARK  Name = 
REMARK  7 active torsions:
REMARK  status: ('A' for Active; 'I' for Inactive)
REMARK    1  A    between atoms: C_2  and  C_4
REMARK    2  A    between atoms: C_7  and  N_8
REMARK    3  A    between atoms: N_8  and  C_9
REMARK    4  A    between atoms: C_9  and  C_10
REMARK    5  A    between atoms: C_10  and  C_13
REMARK    6  A    between atoms: C_17  and  C_18
REMARK    7  A    between atoms: C_22  and  C_23
REMARK                            x       y       z     vdW  Elec       q    Type
REMARK                         _______ _______ _______ _____ _____    ______ ____
ROOT
ATOM      1  C   UNL     1       5.989  -4.547  -5.645  0.00  0.00    +0.000 C 
ATOM      2  F   UNL     1       6.640  -3.356  -5.496  0.00  0.00    +0.000 F 
ATOM      3  F   UNL     1       6.893  -5.502  -5.262  0.00  0.00    +0.000 F 
ENDROOT
BRANCH   1   4
ATOM      4  C   UNL     1       5.509  -4.747  -7.070  0.00  0.00    +0.000 A 
ATOM      5  C   UNL     1       5.445  -6.033  -7.631  0.00  0.00    +0.000 A 
ATOM      6  C   UNL     1       4.954  -6.212  -8.922  0.00  0.00    +0.000 A 
ATOM      7  C   UNL     1       4.494  -5.114  -9.653  0.00  0.00    +0.000 A 
ATOM      8  C   UNL     1       4.516  -3.814  -9.118  0.00  0.00    +0.000 A 
ATOM      9  C   UNL     1       5.061  -3.658  -7.828  0.00  0.00    +0.000 A 
BRANCH   8  10
ATOM     10  C   UNL     1       3.969  -2.660  -9.868  0.00  0.00    +0.000 A 
ATOM     11  C   UNL     1       4.498  -1.367  -9.715  0.00  0.00    +0.000 A 
ATOM     12  C   UNL     1       3.987  -0.278 -10.425  0.00  0.00    +0.000 A 
ATOM     13  C   UNL     1       2.951  -0.464 -11.333  0.00  0.00    +0.000 A 
ATOM     14  C   UNL     1       2.405  -1.735 -11.530  0.00  0.00    +0.000 A 
ATOM     15  C   UNL     1       2.897  -2.812 -10.769  0.00  0.00    +0.000 A 
BRANCH  14  16
ATOM     16  C   UNL     1       1.341  -1.978 -12.570  0.00  0.00    +0.000 C 
ATOM     17  F   UNL     1       1.012  -0.865 -13.283  0.00  0.00    +0.000 F 
ATOM     18  F   UNL     1       1.727  -2.907 -13.490  0.00  0.00    +0.000 F 
ATOM     19  F   UNL     1       0.176  -2.442 -12.039  0.00  0.00    +0.000 F 
ENDBRANCH  14  16
ENDBRANCH   8  10
ENDBRANCH   1   4
BRANCH   1  20
ATOM     20  C   UNL     1       4.788  -4.595  -4.663  0.00  0.00    +0.000 C 
BRANCH  20  21
ATOM     21  N   UNL     1       5.178  -4.468  -3.246  0.00  0.00    +0.000 N 
ATOM     22  H   UNL     1       6.053  -4.935  -3.007  0.00  0.00    +0.000 HD
BRANCH  21  26
ATOM     23  C   UNL     1       2.351  -4.413  -0.113  0.00  0.00    +0.000 A 
ATOM     24  C   UNL     1       1.919  -4.608  -1.426  0.00  0.00    +0.000 A 
ATOM     25  C   UNL     1       2.848  -4.641  -2.472  0.00  0.00    +0.000 A 
ATOM     26  C   UNL     1       4.222  -4.515  -2.234  0.00  0.00    +0.000 A 
ATOM     27  C   UNL     1       4.635  -4.292  -0.912  0.00  0.00    +0.000 A 
ATOM     28  C   UNL     1       3.712  -4.234   0.140  0.00  0.00    +0.000 A 
BRANCH  23  30
ATOM     29  N   UNL     1       0.236  -5.073   0.893  0.00  0.00    +0.000 N 
ATOM     30  C   UNL     1       1.395  -4.357   1.021  0.00  0.00    +0.000 C 
ATOM     31  O   UNL     1       1.642  -3.735   2.046  0.00  0.00    +0.000 OA
ATOM     32  H   UNL     1      -0.350  -5.120   1.716  0.00  0.00    +0.000 HD
ATOM     33  H   UNL     1       0.127  -5.796   0.197  0.00  0.00    +0.000 HD
ENDBRANCH  23  30
ENDBRANCH  21  26
ENDBRANCH  20  21
ENDBRANCH   1  20
TORSDOF 7
