REMARK  Name = 
REMARK  4 active torsions:
REMARK  status: ('A' for Active; 'I' for Inactive)
REMARK    1  A    between atoms: C_2  and  C_4
REMARK    2  A    between atoms: C_7  and  N_8
REMARK    3  A    between atoms: N_8  and  C_9
REMARK    4  A    between atoms: C_9  and  C_10
REMARK                            x       y       z     vdW  Elec       q    Type
REMARK                         _______ _______ _______ _____ _____    ______ ____
ROOT
ATOM      1  N   UNL     1       5.381   4.575   1.124  0.00  0.00    +0.000 N 
ATOM      2  H   UNL     1       6.383   4.416   1.029  0.00  0.00    +0.000 HD
ENDROOT
BRANCH   1   6
ATOM      3  C   UNL     1       3.572   2.803  -2.257  0.00  0.00    +0.000 A 
ATOM      4  C   UNL     1       3.518   4.196  -2.103  0.00  0.00    +0.000 A 
ATOM      5  C   UNL     1       4.084   4.807  -0.976  0.00  0.00    +0.000 A 
ATOM      6  C   UNL     1       4.734   4.043  -0.009  0.00  0.00    +0.000 A 
ATOM      7  C   UNL     1       4.800   2.652  -0.183  0.00  0.00    +0.000 A 
ATOM      8  C   UNL     1       4.201   2.028  -1.277  0.00  0.00    +0.000 A 
BRANCH   3  10
ATOM      9  N   UNL     1       2.816   2.849  -4.569  0.00  0.00    +0.000 N 
ATOM     10  C   UNL     1       2.914   2.126  -3.404  0.00  0.00    +0.000 C 
ATOM     11  O   UNL     1       2.500   0.981  -3.331  0.00  0.00    +0.000 OA
ATOM     12  H   UNL     1       2.419   2.371  -5.365  0.00  0.00    +0.000 HD
ATOM     13  H   UNL     1       3.352   3.687  -4.730  0.00  0.00    +0.000 HD
ENDBRANCH   3  10
ENDBRANCH   1   6
BRANCH   1  14
ATOM     14  C   UNL     1       5.043   5.857   1.777  0.00  0.00    +0.000 C 
ATOM     15  C   UNL     1       4.966   5.739   3.293  0.00  0.00    +0.000 C 
ATOM     16  C   UNL     1       3.740   6.092   2.518  0.00  0.00    +0.000 C 
BRANCH  14  17
ATOM     17  C   UNL     1       5.738   7.060   1.156  0.00  0.00    +0.000 A 
ATOM     18  C   UNL     1       7.139   7.147   1.133  0.00  0.00    +0.000 A 
ATOM     19  C   UNL     1       7.793   8.156   0.425  0.00  0.00    +0.000 A 
ATOM     20  C   UNL     1       7.052   9.119  -0.266  0.00  0.00    +0.000 A 
ATOM     21 CL   UNL     1       7.920  10.300  -1.180  0.00  0.00    +0.000 Cl
ATOM     22  C   UNL     1       5.656   9.083  -0.220  0.00  0.00    +0.000 A 
ATOM     23 CL   UNL     1       4.666  10.221  -1.061  0.00  0.00    +0.000 Cl
ATOM     24  C   UNL     1       5.014   8.067   0.491  0.00  0.00    +0.000 A 
ENDBRANCH  14  17
ENDBRANCH   1  14
TORSDOF 4
