REMARK  Name = 
REMARK  6 active torsions:
REMARK  status: ('A' for Active; 'I' for Inactive)
REMARK    1  A    between atoms: C_2  and  C_25
REMARK    2  A    between atoms: N_3  and  C_4
REMARK    3  A    between atoms: C_4  and  C_5
REMARK    4  A    between atoms: C_8  and  C_9
REMARK    5  A    between atoms: C_9  and  N_10
REMARK    6  A    between atoms: C_11  and  C_13
REMARK                            x       y       z     vdW  Elec       q    Type
REMARK                         _______ _______ _______ _____ _____    ______ ____
ROOT
ATOM      1  C   UNL     1       3.314   2.830  -2.336  0.00  0.00    +0.000 A 
ATOM      2  C   UNL     1       3.029   4.201  -2.391  0.00  0.00    +0.000 A 
ATOM      3  C   UNL     1       3.863   5.076  -3.097  0.00  0.00    +0.000 A 
ATOM      4  C   UNL     1       4.987   4.594  -3.780  0.00  0.00    +0.000 A 
ATOM      5  C   UNL     1       5.275   3.224  -3.719  0.00  0.00    +0.000 A 
ATOM      6  C   UNL     1       4.440   2.349  -3.015  0.00  0.00    +0.000 A 
ENDROOT
BRANCH   1   7
ATOM      7  C   UNL     1       2.401   1.887  -1.595  0.00  0.00    +0.000 C 
BRANCH   7  10
ATOM      8  O   UNL     1       0.416   0.053  -0.868  0.00  0.00    +0.000 OA
ATOM      9  C   UNL     1       0.412   0.503  -2.010  0.00  0.00    +0.000 C 
ATOM     10  N   UNL     1       1.348   1.409  -2.452  0.00  0.00    +0.000 N 
ATOM     11  H   UNL     1       1.230   1.840  -3.355  0.00  0.00    +0.000 HD
BRANCH   9  12
ATOM     12  C   UNL     1      -0.587   0.130  -2.990  0.00  0.00    +0.000 A 
ATOM     13  C   UNL     1      -0.713   0.421  -4.339  0.00  0.00    +0.000 A 
ATOM     14  C   UNL     1      -1.878  -0.220  -4.826  0.00  0.00    +0.000 A 
ATOM     15  C   UNL     1      -2.444  -0.892  -3.769  0.00  0.00    +0.000 A 
ATOM     16  N   UNL     1      -1.660  -0.678  -2.667  0.00  0.00    +0.000 N 
ATOM     17  H   UNL     1      -1.823  -1.052  -1.740  0.00  0.00    +0.000 HD
ENDBRANCH   9  12
ENDBRANCH   7  10
ENDBRANCH   1   7
BRANCH   4  18
ATOM     18  C   UNL     1       5.892   5.530  -4.541  0.00  0.00    +0.000 C 
BRANCH  18  19
ATOM     19  N   UNL     1       6.947   6.042  -3.703  0.00  0.00    +0.000 N 
ATOM     20  C   UNL     1       7.836   6.975  -4.172  0.00  0.00    +0.000 C 
ATOM     21  O   UNL     1       7.748   7.446  -5.303  0.00  0.00    +0.000 OA
ATOM     22  H   UNL     1       7.176   5.508  -2.871  0.00  0.00    +0.000 HD
BRANCH  20  23
ATOM     23  C   UNL     1       8.867   7.435  -3.232  0.00  0.00    +0.000 A 
ATOM     24  C   UNL     1       9.473   8.670  -3.424  0.00  0.00    +0.000 A 
ATOM     25  S   UNL     1      10.604   9.074  -2.213  0.00  0.00    +0.000 S 
ATOM     26  C   UNL     1      10.365   7.589  -1.418  0.00  0.00    +0.000 A 
ATOM     27  N   UNL     1      11.063   7.278  -0.293  0.00  0.00    +0.000 NA
ATOM     28  C   UNL     1      10.807   6.106   0.186  0.00  0.00    +0.000 A 
ATOM     29  N   UNL     1       9.912   5.220  -0.354  0.00  0.00    +0.000 N 
ATOM     30  C   UNL     1       9.164   5.502  -1.472  0.00  0.00    +0.000 A 
ATOM     31  O   UNL     1       8.343   4.702  -1.908  0.00  0.00    +0.000 OA
ATOM     32  C   UNL     1       9.422   6.803  -2.058  0.00  0.00    +0.000 A 
ATOM     33  H   UNL     1       9.753   4.320   0.074  0.00  0.00    +0.000 HD
ENDBRANCH  20  23
ENDBRANCH  18  19
ENDBRANCH   4  18
TORSDOF 6
