REMARK  Name = 
REMARK  8 active torsions:
REMARK  status: ('A' for Active; 'I' for Inactive)
REMARK    1  A    between atoms: C_1  and  C_2
REMARK    2  A    between atoms: C_2  and  C_3
REMARK    3  A    between atoms: C_3  and  N_4
REMARK    4  A    between atoms: C_3  and  C_17
REMARK    5  A    between atoms: C_5  and  C_7
REMARK    6  A    between atoms: C_20  and  C_21
REMARK    7  A    between atoms: C_21  and  O_22
REMARK    8  A    between atoms: O_22  and  C_23
REMARK                            x       y       z     vdW  Elec       q    Type
REMARK                         _______ _______ _______ _____ _____    ______ ____
ROOT
ATOM      1  C   UNL     1       3.074   1.363   0.198  0.00  0.00    +0.000 C 
ENDROOT
BRANCH   1   2
ATOM      2  C   UNL     1       4.595   1.402   0.152  0.00  0.00    +0.000 A 
ATOM      3  C   UNL     1       5.234   1.677  -1.070  0.00  0.00    +0.000 A 
ATOM      4  C   UNL     1       6.626   1.787  -1.151  0.00  0.00    +0.000 A 
ATOM      5  C   UNL     1       7.420   1.602  -0.014  0.00  0.00    +0.000 A 
ATOM      6  C   UNL     1       6.793   1.287   1.198  0.00  0.00    +0.000 A 
ATOM      7  C   UNL     1       5.400   1.169   1.276  0.00  0.00    +0.000 A 
BRANCH   5   8
ATOM      8  C   UNL     1       8.924   1.733  -0.089  0.00  0.00    +0.000 C 
BRANCH   8   9
ATOM      9  O   UNL     1       9.303   3.093   0.137  0.00  0.00    +0.000 OA
BRANCH   9  10
ATOM     10  C   UNL     1      10.676   3.250   0.153  0.00  0.00    +0.000 A 
ATOM     11  C   UNL     1      11.163   4.534   0.341  0.00  0.00    +0.000 A 
ATOM     12  C   UNL     1      12.545   4.719   0.376  0.00  0.00    +0.000 A 
ATOM     13  C   UNL     1      13.382   3.622   0.226  0.00  0.00    +0.000 A 
ATOM     14  C   UNL     1      12.806   2.378   0.040  0.00  0.00    +0.000 A 
ATOM     15  N   UNL     1      11.472   2.169   0.000  0.00  0.00    +0.000 NA
ENDBRANCH   9  10
ENDBRANCH   8   9
ENDBRANCH   5   8
ENDBRANCH   1   2
BRANCH   1  16
ATOM     16  N   UNL     1       2.611   0.023  -0.132  0.00  0.00    +0.000 N 
ATOM     17  C   UNL     1       1.383  -0.187  -0.711  0.00  0.00    +0.000 C 
ATOM     18  O   UNL     1       0.652   0.742  -1.044  0.00  0.00    +0.000 OA
ATOM     19  H   UNL     1       3.105  -0.755   0.293  0.00  0.00    +0.000 HD
BRANCH  17  20
ATOM     20  C   UNL     1       0.999  -1.578  -0.975  0.00  0.00    +0.000 A 
ATOM     21  C   UNL     1       0.082  -1.852  -1.982  0.00  0.00    +0.000 A 
ATOM     22  S   UNL     1      -0.242  -3.513  -2.182  0.00  0.00    +0.000 S 
ATOM     23  C   UNL     1       0.797  -3.923  -0.899  0.00  0.00    +0.000 A 
ATOM     24  N   UNL     1       0.959  -5.220  -0.522  0.00  0.00    +0.000 NA
ATOM     25  C   UNL     1       1.747  -5.386   0.487  0.00  0.00    +0.000 A 
ATOM     26  N   UNL     1       2.392  -4.373   1.149  0.00  0.00    +0.000 N 
ATOM     27  C   UNL     1       2.285  -3.050   0.782  0.00  0.00    +0.000 A 
ATOM     28  O   UNL     1       2.916  -2.172   1.362  0.00  0.00    +0.000 OA
ATOM     29  C   UNL     1       1.398  -2.809  -0.338  0.00  0.00    +0.000 A 
ATOM     30  H   UNL     1       3.001  -4.573   1.928  0.00  0.00    +0.000 HD
ENDBRANCH  17  20
ENDBRANCH   1  16
BRANCH   1  32
ATOM     31  C   UNL     1       2.694   3.300   1.846  0.00  0.00    +0.000 C 
ATOM     32  C   UNL     1       2.425   1.835   1.519  0.00  0.00    +0.000 C 
ENDBRANCH   1  32
TORSDOF 7
