REMARK  Name = 
REMARK  6 active torsions:
REMARK  status: ('A' for Active; 'I' for Inactive)
REMARK    1  A    between atoms: C_2  and  C_3
REMARK    2  A    between atoms: C_5  and  C_6
REMARK    3  A    between atoms: C_6  and  N_7
REMARK    4  A    between atoms: C_8  and  C_10
REMARK    5  A    between atoms: C_22  and  C_23
REMARK    6  A    between atoms: C_23  and  C_24
REMARK                            x       y       z     vdW  Elec       q    Type
REMARK                         _______ _______ _______ _____ _____    ______ ____
ROOT
ATOM      1  C   UNL     1      -2.321   2.607   0.068  0.00  0.00    +0.000 C 
ENDROOT
BRANCH   1   4
ATOM      2  C   UNL     1       0.538   0.102  -0.219  0.00  0.00    +0.000 A 
ATOM      3  C   UNL     1      -0.162   1.314  -0.183  0.00  0.00    +0.000 A 
ATOM      4  C   UNL     1      -1.547   1.326   0.012  0.00  0.00    +0.000 A 
ATOM      5  C   UNL     1      -2.186   0.100   0.115  0.00  0.00    +0.000 A 
ATOM      6  N   UNL     1      -1.540  -1.087   0.100  0.00  0.00    +0.000 NA
ATOM      7  C   UNL     1      -0.184  -1.082  -0.050  0.00  0.00    +0.000 A 
BRANCH   2   9
ATOM      8  N   UNL     1       3.083   0.210  -0.687  0.00  0.00    +0.000 NA
ATOM      9  C   UNL     1       1.951   0.129  -0.450  0.00  0.00    +0.000 C 
ENDBRANCH   2   9
BRANCH   7  10
ATOM     10  C   UNL     1       0.483  -2.434   0.086  0.00  0.00    +0.000 C 
BRANCH  10  11
ATOM     11  C   UNL     1       0.907  -2.714   1.510  0.00  0.00    +0.000 A 
ATOM     12  C   UNL     1      -0.044  -2.828   2.526  0.00  0.00    +0.000 A 
ATOM     13  C   UNL     1       0.386  -2.992   3.839  0.00  0.00    +0.000 A 
ATOM     14  C   UNL     1       1.747  -3.062   4.104  0.00  0.00    +0.000 A 
ATOM     15  C   UNL     1       2.625  -2.972   3.038  0.00  0.00    +0.000 A 
ATOM     16  N   UNL     1       2.238  -2.793   1.755  0.00  0.00    +0.000 NA
ENDBRANCH  10  11
ENDBRANCH   7  10
ENDBRANCH   1   4
BRANCH   1  17
ATOM     17  N   UNL     1      -2.704   3.047  -1.248  0.00  0.00    +0.000 N 
ATOM     18  C   UNL     1      -3.956   2.819  -1.760  0.00  0.00    +0.000 C 
ATOM     19  O   UNL     1      -4.823   2.238  -1.115  0.00  0.00    +0.000 OA
ATOM     20  H   UNL     1      -1.961   3.364  -1.864  0.00  0.00    +0.000 HD
BRANCH  18  21
ATOM     21  C   UNL     1      -4.225   3.361  -3.097  0.00  0.00    +0.000 A 
ATOM     22  C   UNL     1      -5.539   3.585  -3.487  0.00  0.00    +0.000 A 
ATOM     23  S   UNL     1      -5.685   4.247  -5.050  0.00  0.00    +0.000 S 
ATOM     24  C   UNL     1      -4.001   4.216  -5.280  0.00  0.00    +0.000 A 
ATOM     25  N   UNL     1      -3.449   4.633  -6.451  0.00  0.00    +0.000 NA
ATOM     26  C   UNL     1      -2.164   4.527  -6.505  0.00  0.00    +0.000 A 
ATOM     27  N   UNL     1      -1.377   4.048  -5.488  0.00  0.00    +0.000 N 
ATOM     28  C   UNL     1      -1.884   3.669  -4.267  0.00  0.00    +0.000 A 
ATOM     29  O   UNL     1      -1.147   3.340  -3.343  0.00  0.00    +0.000 OA
ATOM     30  C   UNL     1      -3.331   3.733  -4.169  0.00  0.00    +0.000 A 
ATOM     31  H   UNL     1      -0.373   4.012  -5.588  0.00  0.00    +0.000 HD
ENDBRANCH  18  21
ENDBRANCH   1  17
TORSDOF 6
