REMARK  Name = 
REMARK  6 active torsions:
REMARK  status: ('A' for Active; 'I' for Inactive)
REMARK    1  A    between atoms: C_1  and  C_2
REMARK    2  A    between atoms: C_5  and  C_6
REMARK    3  A    between atoms: C_6  and  C_7
REMARK    4  A    between atoms: C_10  and  C_11
REMARK    5  A    between atoms: C_11  and  N_12
REMARK    6  A    between atoms: C_13  and  C_15
REMARK                            x       y       z     vdW  Elec       q    Type
REMARK                         _______ _______ _______ _____ _____    ______ ____
ROOT
ATOM      1  C   UNL     1      -6.207   4.758  -1.552  0.00  0.00    +0.000 C 
ENDROOT
BRANCH   1   5
ATOM      2  C   UNL     1      -4.068   1.253  -0.365  0.00  0.00    +0.000 A 
ATOM      3  C   UNL     1      -3.463   2.167  -1.231  0.00  0.00    +0.000 A 
ATOM      4  C   UNL     1      -4.149   3.317  -1.616  0.00  0.00    +0.000 A 
ATOM      5  C   UNL     1      -5.451   3.509  -1.166  0.00  0.00    +0.000 A 
ATOM      6  N   UNL     1      -6.074   2.621  -0.352  0.00  0.00    +0.000 NA
ATOM      7  C   UNL     1      -5.374   1.526   0.026  0.00  0.00    +0.000 A 
BRANCH   2   8
ATOM      8  C   UNL     1      -3.326   0.046   0.159  0.00  0.00    +0.000 C 
BRANCH   8  13
ATOM      9  C   UNL     1       1.079   0.861   3.961  0.00  0.00    +0.000 C 
ATOM     10  C   UNL     1      -0.238   0.441   3.308  0.00  0.00    +0.000 C 
ATOM     11  C   UNL     1      -1.029   1.675   2.864  0.00  0.00    +0.000 C 
ATOM     12  C   UNL     1      -2.331   1.278   2.173  0.00  0.00    +0.000 C 
ATOM     13  C   UNL     1      -2.042   0.404   0.942  0.00  0.00    +0.000 C 
ATOM     14  C   UNL     1      -1.285  -0.859   1.383  0.00  0.00    +0.000 C 
ATOM     15  C   UNL     1       0.008  -0.508   2.126  0.00  0.00    +0.000 C 
ENDBRANCH   8  13
ENDBRANCH   2   8
ENDBRANCH   1   5
BRANCH   1  16
ATOM     16  N   UNL     1      -6.027   5.832  -0.601  0.00  0.00    +0.000 N 
ATOM     17  C   UNL     1      -5.120   6.842  -0.778  0.00  0.00    +0.000 C 
ATOM     18  O   UNL     1      -4.392   6.902  -1.766  0.00  0.00    +0.000 OA
ATOM     19  H   UNL     1      -6.432   5.672   0.316  0.00  0.00    +0.000 HD
BRANCH  17  20
ATOM     20  C   UNL     1      -5.118   7.902   0.241  0.00  0.00    +0.000 A 
ATOM     21  C   UNL     1      -4.655   9.168  -0.083  0.00  0.00    +0.000 A 
ATOM     22  S   UNL     1      -4.760  10.288   1.200  0.00  0.00    +0.000 S 
ATOM     23  C   UNL     1      -5.389   9.106   2.251  0.00  0.00    +0.000 A 
ATOM     24  N   UNL     1      -5.680   9.402   3.543  0.00  0.00    +0.000 NA
ATOM     25  C   UNL     1      -6.124   8.404   4.234  0.00  0.00    +0.000 A 
ATOM     26  N   UNL     1      -6.312   7.138   3.744  0.00  0.00    +0.000 N 
ATOM     27  C   UNL     1      -6.080   6.806   2.433  0.00  0.00    +0.000 A 
ATOM     28  O   UNL     1      -6.347   5.689   2.004  0.00  0.00    +0.000 OA
ATOM     29  C   UNL     1      -5.544   7.882   1.620  0.00  0.00    +0.000 A 
ATOM     30  H   UNL     1      -6.687   6.405   4.327  0.00  0.00    +0.000 HD
ENDBRANCH  17  20
ENDBRANCH   1  16
TORSDOF 5
