REMARK  Name = 
REMARK  10 active torsions:
REMARK  status: ('A' for Active; 'I' for Inactive)
REMARK    1  A    between atoms: C_1  and  C_2
REMARK    2  A    between atoms: C_2  and  C_3
REMARK    3  A    between atoms: C_2  and  C_4
REMARK    4  A    between atoms: C_2  and  C_5
REMARK    5  A    between atoms: N_7  and  C_8
REMARK    6  A    between atoms: C_8  and  C_9
REMARK    7  A    between atoms: C_12  and  C_13
REMARK    8  A    between atoms: C_13  and  C_14
REMARK    9  A    between atoms: C_14  and  N_15
REMARK   10  A    between atoms: C_21  and  C_22
REMARK                            x       y       z     vdW  Elec       q    Type
REMARK                         _______ _______ _______ _____ _____    ______ ____
ROOT
ATOM      1  C   UNL     1       2.976  -1.270  -0.011  0.00  0.00    +0.000 A 
ATOM      2  C   UNL     1       4.264  -1.694   0.261  0.00  0.00    +0.000 A 
ATOM      3  N   UNL     1       4.296  -3.067   0.308  0.00  0.00    +0.000 N 
ATOM      4  C   UNL     1       3.042  -3.573   0.027  0.00  0.00    +0.000 A 
ATOM      5  C   UNL     1       2.571  -4.885  -0.076  0.00  0.00    +0.000 A 
ATOM      6  N   UNL     1       1.262  -5.117  -0.363  0.00  0.00    +0.000 NA
ATOM      7  C   UNL     1       0.443  -4.047  -0.538  0.00  0.00    +0.000 A 
ATOM      8  C   UNL     1       0.842  -2.727  -0.445  0.00  0.00    +0.000 A 
ATOM      9  C   UNL     1       2.196  -2.473  -0.164  0.00  0.00    +0.000 A 
ENDROOT
BRANCH   7  10
ATOM     10  C   UNL     1      -0.999  -4.326  -0.871  0.00  0.00    +0.000 C 
ATOM     11  N   UNL     1      -1.351  -5.644  -0.961  0.00  0.00    +0.000 N 
ATOM     12  O   UNL     1      -1.823  -3.436  -1.057  0.00  0.00    +0.000 OA
ATOM     13  H   UNL     1      -0.653  -6.364  -0.824  0.00  0.00    +0.000 HD
ATOM     14  H   UNL     1      -2.301  -5.886  -1.205  0.00  0.00    +0.000 HD
ENDBRANCH   7  10
BRANCH   1  16
ATOM     15  C   UNL     1       3.651   1.191   0.040  0.00  0.00    +0.000 C 
ATOM     16  C   UNL     1       2.490   0.179  -0.105  0.00  0.00    +0.000 C 
ATOM     17  C   UNL     1       1.486   0.468   1.030  0.00  0.00    +0.000 C 
ATOM     18  C   UNL     1       1.825   0.454  -1.470  0.00  0.00    +0.000 C 
ENDBRANCH   1  16
BRANCH   3  19
ATOM     19  C   UNL     1       5.492  -3.833   0.669  0.00  0.00    +0.000 C 
BRANCH  19  20
ATOM     20  C   UNL     1       6.260  -4.276  -0.551  0.00  0.00    +0.000 A 
ATOM     21  C   UNL     1       6.826  -3.337  -1.425  0.00  0.00    +0.000 A 
ATOM     22  C   UNL     1       7.389  -3.741  -2.636  0.00  0.00    +0.000 A 
ATOM     23  C   UNL     1       7.413  -5.094  -2.990  0.00  0.00    +0.000 A 
ATOM     24  C   UNL     1       6.961  -6.043  -2.065  0.00  0.00    +0.000 A 
ATOM     25  C   UNL     1       6.388  -5.638  -0.856  0.00  0.00    +0.000 A 
BRANCH  23  26
ATOM     26  C   UNL     1       7.846  -5.508  -4.375  0.00  0.00    +0.000 C 
BRANCH  26  27
ATOM     27  C   UNL     1       9.352  -5.735  -4.511  0.00  0.00    +0.000 C 
BRANCH  27  28
ATOM     28  N   UNL     1       9.693  -6.093  -5.888  0.00  0.00    +0.000 NA
ATOM     29  H   UNL     1       9.242  -6.973  -6.138  0.00  0.00    +0.000 HD
ATOM     30  H   UNL     1      10.696  -6.255  -5.960  0.00  0.00    +0.000 HD
ENDBRANCH  27  28
ENDBRANCH  26  27
ENDBRANCH  23  26
ENDBRANCH  19  20
ENDBRANCH   3  19
TORSDOF 7
