REMARK  Name = 
REMARK  7 active torsions:
REMARK  status: ('A' for Active; 'I' for Inactive)
REMARK    1  A    between atoms: C_2  and  C_3
REMARK    2  A    between atoms: C_5  and  C_6
REMARK    3  A    between atoms: C_6  and  N_7
REMARK    4  A    between atoms: C_8  and  C_10
REMARK    5  A    between atoms: C_22  and  C_23
REMARK    6  A    between atoms: C_23  and  O_24
REMARK    7  A    between atoms: O_24  and  C_25
REMARK                            x       y       z     vdW  Elec       q    Type
REMARK                         _______ _______ _______ _____ _____    ______ ____
ROOT
ATOM      1  C   UNL     1      -0.539   0.003  -0.025  0.00  0.00    +0.000 A 
ATOM      2  C   UNL     1       0.159  -1.220   0.009  0.00  0.00    +0.000 A 
ATOM      3  C   UNL     1       1.559  -1.255   0.062  0.00  0.00    +0.000 A 
ATOM      4  C   UNL     1       2.258  -0.046   0.067  0.00  0.00    +0.000 A 
ATOM      5  C   UNL     1       1.574   1.173   0.037  0.00  0.00    +0.000 A 
ATOM      6  C   UNL     1       0.169   1.220  -0.024  0.00  0.00    +0.000 A 
ENDROOT
BRANCH   1   8
ATOM      7  N   UNL     1      -3.128  -0.156  -0.146  0.00  0.00    +0.000 NA
ATOM      8  C   UNL     1      -1.977  -0.058  -0.079  0.00  0.00    +0.000 C 
ENDBRANCH   1   8
BRANCH   3   9
ATOM      9  C   UNL     1       2.304  -2.563   0.080  0.00  0.00    +0.000 C 
BRANCH   9  10
ATOM     10  N   UNL     1       2.576  -3.034  -1.254  0.00  0.00    +0.000 N 
ATOM     11  C   UNL     1       3.770  -2.818  -1.892  0.00  0.00    +0.000 C 
ATOM     12  O   UNL     1       4.690  -2.191  -1.374  0.00  0.00    +0.000 OA
ATOM     13  H   UNL     1       1.780  -3.358  -1.791  0.00  0.00    +0.000 HD
BRANCH  11  14
ATOM     14  C   UNL     1       3.918  -3.445  -3.212  0.00  0.00    +0.000 A 
ATOM     15  C   UNL     1       5.185  -3.740  -3.698  0.00  0.00    +0.000 A 
ATOM     16  S   UNL     1       5.173  -4.491  -5.230  0.00  0.00    +0.000 S 
ATOM     17  C   UNL     1       3.476  -4.417  -5.314  0.00  0.00    +0.000 A 
ATOM     18  N   UNL     1       2.808  -4.878  -6.405  0.00  0.00    +0.000 NA
ATOM     19  C   UNL     1       1.525  -4.737  -6.346  0.00  0.00    +0.000 A 
ATOM     20  N   UNL     1       0.849  -4.185  -5.289  0.00  0.00    +0.000 N 
ATOM     21  C   UNL     1       1.477  -3.753  -4.146  0.00  0.00    +0.000 A 
ATOM     22  O   UNL     1       0.833  -3.354  -3.180  0.00  0.00    +0.000 OA
ATOM     23  C   UNL     1       2.923  -3.854  -4.177  0.00  0.00    +0.000 A 
ATOM     24  H   UNL     1      -0.159  -4.129  -5.293  0.00  0.00    +0.000 HD
ENDBRANCH  11  14
ENDBRANCH   9  10
ENDBRANCH   3   9
BRANCH   6  25
ATOM     25  C   UNL     1      -0.512   2.576  -0.056  0.00  0.00    +0.000 C 
BRANCH  25  26
ATOM     26  O   UNL     1      -0.762   2.982   1.287  0.00  0.00    +0.000 OA
BRANCH  26  27
ATOM     27  C   UNL     1      -1.345   4.204   1.490  0.00  0.00    +0.000 A 
ATOM     28  C   UNL     1      -1.734   5.119   0.511  0.00  0.00    +0.000 A 
ATOM     29  C   UNL     1      -2.328   6.332   0.881  0.00  0.00    +0.000 A 
ATOM     30  C   UNL     1      -2.538   6.639   2.225  0.00  0.00    +0.000 A 
ATOM     31  C   UNL     1      -2.150   5.731   3.205  0.00  0.00    +0.000 A 
ATOM     32  C   UNL     1      -1.555   4.522   2.836  0.00  0.00    +0.000 A 
ENDBRANCH  26  27
ENDBRANCH  25  26
ENDBRANCH   6  25
TORSDOF 7
