REMARK  Name = 
REMARK  8 active torsions:
REMARK  status: ('A' for Active; 'I' for Inactive)
REMARK    1  A    between atoms: C_2  and  C_20
REMARK    2  A    between atoms: N_3  and  C_4
REMARK    3  A    between atoms: C_4  and  C_5
REMARK    4  A    between atoms: C_8  and  C_9
REMARK    5  A    between atoms: C_9  and  C_10
REMARK    6  A    between atoms: C_10  and  O_11
REMARK    7  A    between atoms: C_10  and  C_12
REMARK    8  A    between atoms: C_12  and  N_13
REMARK                            x       y       z     vdW  Elec       q    Type
REMARK                         _______ _______ _______ _____ _____    ______ ____
ROOT
ATOM      1  C   UNL     1       2.152  -1.436  -1.988  0.00  0.00    +0.000 C 
ENDROOT
BRANCH   1   2
ATOM      2  C   UNL     1       3.089  -2.055  -2.981  0.00  0.00    +0.000 A 
ATOM      3  C   UNL     1       3.971  -1.284  -3.736  0.00  0.00    +0.000 A 
ATOM      4  C   UNL     1       4.815  -1.903  -4.657  0.00  0.00    +0.000 A 
ATOM      5  C   UNL     1       4.777  -3.289  -4.785  0.00  0.00    +0.000 A 
ATOM      6  N   UNL     1       3.943  -4.061  -4.049  0.00  0.00    +0.000 NA
ATOM      7  C   UNL     1       3.128  -3.431  -3.166  0.00  0.00    +0.000 A 
BRANCH   5   8
ATOM      8  C   UNL     1       5.685  -3.997  -5.768  0.00  0.00    +0.000 C 
BRANCH   8   9
ATOM      9  C   UNL     1       5.035  -4.147  -7.149  0.00  0.00    +0.000 C 
BRANCH   9  10
ATOM     10  O   UNL     1       4.810  -2.844  -7.729  0.00  0.00    +0.000 OA
ATOM     11  H   UNL     1       5.671  -2.400  -7.803  0.00  0.00    +0.000 HD
ENDBRANCH   9  10
BRANCH   9  12
ATOM     12  C   UNL     1       5.916  -4.934  -8.152  0.00  0.00    +0.000 C 
BRANCH  12  13
ATOM     13  N   UNL     1       6.323  -6.310  -7.811  0.00  0.00    +0.000 NA
ATOM     14  C   UNL     1       7.153  -6.879  -8.894  0.00  0.00    +0.000 C 
ATOM     15  C   UNL     1       6.152  -7.351  -9.935  0.00  0.00    +0.000 C 
ATOM     16  C   UNL     1       5.015  -7.898  -9.091  0.00  0.00    +0.000 C 
ATOM     17  C   UNL     1       5.193  -7.254  -7.715  0.00  0.00    +0.000 C 
ENDBRANCH  12  13
ENDBRANCH   9  12
ENDBRANCH   8   9
ENDBRANCH   5   8
ENDBRANCH   1   2
BRANCH   1  20
ATOM     18  O   UNL     1       1.923  -3.273   0.124  0.00  0.00    +0.000 OA
ATOM     19  C   UNL     1       2.644  -2.287   0.272  0.00  0.00    +0.000 C 
ATOM     20  N   UNL     1       2.761  -1.317  -0.684  0.00  0.00    +0.000 N 
ATOM     21  H   UNL     1       3.503  -0.632  -0.604  0.00  0.00    +0.000 HD
BRANCH  19  22
ATOM     22  C   UNL     1       3.382  -2.061   1.515  0.00  0.00    +0.000 A 
ATOM     23  C   UNL     1       2.947  -2.635   2.704  0.00  0.00    +0.000 A 
ATOM     24  S   UNL     1       3.935  -2.255   4.041  0.00  0.00    +0.000 S 
ATOM     25  C   UNL     1       4.997  -1.344   3.073  0.00  0.00    +0.000 A 
ATOM     26  N   UNL     1       6.102  -0.752   3.603  0.00  0.00    +0.000 NA
ATOM     27  C   UNL     1       6.840  -0.133   2.742  0.00  0.00    +0.000 A 
ATOM     28  N   UNL     1       6.570  -0.040   1.403  0.00  0.00    +0.000 N 
ATOM     29  C   UNL     1       5.426  -0.552   0.840  0.00  0.00    +0.000 A 
ATOM     30  O   UNL     1       5.144  -0.321  -0.333  0.00  0.00    +0.000 OA
ATOM     31  C   UNL     1       4.590  -1.305   1.752  0.00  0.00    +0.000 A 
ATOM     32  H   UNL     1       7.169   0.491   0.788  0.00  0.00    +0.000 HD
ENDBRANCH  19  22
ENDBRANCH   1  20
TORSDOF 8
