REMARK  Name = 
REMARK  4 active torsions:
REMARK  status: ('A' for Active; 'I' for Inactive)
REMARK    1  A    between atoms: C_1  and  C_2
REMARK    2  A    between atoms: C_2  and  N_3
REMARK    3  A    between atoms: C_2  and  C_13
REMARK    4  A    between atoms: C_7  and  C_8
REMARK                            x       y       z     vdW  Elec       q    Type
REMARK                         _______ _______ _______ _____ _____    ______ ____
ROOT
ATOM      1  N   UNL     1       2.901  -1.416   0.237  0.00  0.00    +0.000 N 
ATOM      2  C   UNL     1       3.046  -1.858   1.560  0.00  0.00    +0.000 A 
ATOM      3  C   UNL     1       3.336  -3.205   1.767  0.00  0.00    +0.000 A 
ATOM      4  C   UNL     1       3.538  -3.685   3.063  0.00  0.00    +0.000 A 
ATOM      5  C   UNL     1       3.451  -2.812   4.146  0.00  0.00    +0.000 A 
ATOM      6  C   UNL     1       3.133  -1.494   3.855  0.00  0.00    +0.000 A 
ATOM      7  N   UNL     1       2.920  -1.008   2.598  0.00  0.00    +0.000 NA
ATOM      8  H   UNL     1       3.759  -1.649  -0.254  0.00  0.00    +0.000 HD
ENDROOT
BRANCH   5   9
ATOM      9  C   UNL     1       3.699  -3.328   5.513  0.00  0.00    +0.000 C 
ATOM     10  N   UNL     1       3.658  -2.463   6.575  0.00  0.00    +0.000 N 
ATOM     11  O   UNL     1       3.955  -4.511   5.705  0.00  0.00    +0.000 OA
ATOM     12  H   UNL     1       3.485  -1.473   6.527  0.00  0.00    +0.000 HD
ATOM     13  H   UNL     1       3.849  -2.864   7.485  0.00  0.00    +0.000 HD
ENDBRANCH   5   9
BRANCH   1  15
ATOM     14  C   UNL     1       1.032   0.172   0.072  0.00  0.00    +0.000 C 
ATOM     15  C   UNL     1       2.554  -0.004   0.048  0.00  0.00    +0.000 C 
BRANCH  15  16
ATOM     16  C   UNL     1       3.083   0.513  -1.291  0.00  0.00    +0.000 A 
ATOM     17  C   UNL     1       3.524   1.847  -1.379  0.00  0.00    +0.000 A 
ATOM     18  C   UNL     1       3.941   2.382  -2.597  0.00  0.00    +0.000 A 
ATOM     19  C   UNL     1       3.924   1.587  -3.734  0.00  0.00    +0.000 A 
ATOM     20  F   UNL     1       4.312   2.105  -4.906  0.00  0.00    +0.000 F 
ATOM     21  C   UNL     1       3.499   0.265  -3.674  0.00  0.00    +0.000 A 
ATOM     22  C   UNL     1       3.070  -0.270  -2.458  0.00  0.00    +0.000 A 
ENDBRANCH  15  16
ENDBRANCH   1  15
TORSDOF 3
