REMARK  Name = 
REMARK  4 active torsions:
REMARK  status: ('A' for Active; 'I' for Inactive)
REMARK    1  A    between atoms: C_2  and  C_4
REMARK    2  A    between atoms: N_8  and  C_9
REMARK    3  A    between atoms: C_9  and  C_10
REMARK    4  A    between atoms: C_13  and  C_14
REMARK                            x       y       z     vdW  Elec       q    Type
REMARK                         _______ _______ _______ _____ _____    ______ ____
ROOT
ATOM      1  C   UNL     1       5.642  -5.466   1.617  0.00  0.00    +0.000 C 
ATOM      2  C   UNL     1       5.630  -6.225   0.297  0.00  0.00    +0.000 C 
ATOM      3  C   UNL     1       4.455  -6.331   1.199  0.00  0.00    +0.000 C 
ATOM      4  F   UNL     1       3.288  -5.677   0.843  0.00  0.00    +0.000 F 
ENDROOT
BRANCH   1   9
ATOM      5  C   UNL     1       8.193  -1.325  -0.191  0.00  0.00    +0.000 A 
ATOM      6  C   UNL     1       8.659  -2.596   0.130  0.00  0.00    +0.000 A 
ATOM      7  C   UNL     1       7.785  -3.517   0.721  0.00  0.00    +0.000 A 
ATOM      8  C   UNL     1       6.460  -3.156   0.966  0.00  0.00    +0.000 A 
ATOM      9  N   UNL     1       5.529  -3.996   1.580  0.00  0.00    +0.000 N 
ATOM     10  N   UNL     1       6.000  -1.926   0.655  0.00  0.00    +0.000 NA
ATOM     11  C   UNL     1       6.868  -1.039   0.098  0.00  0.00    +0.000 A 
ATOM     12  H   UNL     1       4.609  -3.570   1.506  0.00  0.00    +0.000 HD
BRANCH   5  14
ATOM     13  N   UNL     1      10.132  -0.641  -1.499  0.00  0.00    +0.000 N 
ATOM     14  C   UNL     1       9.032  -0.260  -0.781  0.00  0.00    +0.000 C 
ATOM     15  O   UNL     1       8.739   0.923  -0.665  0.00  0.00    +0.000 OA
ATOM     16  H   UNL     1      10.633   0.099  -1.975  0.00  0.00    +0.000 HD
ATOM     17  H   UNL     1      10.272  -1.585  -1.828  0.00  0.00    +0.000 HD
ENDBRANCH   5  14
ENDBRANCH   1   9
BRANCH   1  18
ATOM     18  C   UNL     1       6.370  -6.034   2.838  0.00  0.00    +0.000 A 
ATOM     19  C   UNL     1       5.734  -6.032   4.088  0.00  0.00    +0.000 A 
ATOM     20  C   UNL     1       6.298  -6.712   5.166  0.00  0.00    +0.000 A 
ATOM     21  C   UNL     1       7.510  -7.370   4.986  0.00  0.00    +0.000 A 
ATOM     22  C   UNL     1       8.112  -7.290   3.738  0.00  0.00    +0.000 A 
ATOM     23  N   UNL     1       7.577  -6.636   2.673  0.00  0.00    +0.000 NA
BRANCH  21  24
ATOM     24  C   UNL     1       8.141  -8.208   6.027  0.00  0.00    +0.000 C 
ATOM     25  N   UNL     1       7.804  -7.968   7.329  0.00  0.00    +0.000 N 
ATOM     26  O   UNL     1       8.944  -9.085   5.735  0.00  0.00    +0.000 OA
ATOM     27  H   UNL     1       7.314  -7.140   7.635  0.00  0.00    +0.000 HD
ATOM     28  H   UNL     1       8.290  -8.512   8.031  0.00  0.00    +0.000 HD
ENDBRANCH  21  24
ENDBRANCH   1  18
TORSDOF 4
