REMARK  Name = 
REMARK  8 active torsions:
REMARK  status: ('A' for Active; 'I' for Inactive)
REMARK    1  A    between atoms: N_1  and  C_2
REMARK    2  A    between atoms: C_2  and  C_3
REMARK    3  A    between atoms: C_3  and  N_4
REMARK    4  A    between atoms: N_4  and  C_5
REMARK    5  A    between atoms: C_5  and  C_6
REMARK    6  A    between atoms: C_9  and  C_10
REMARK    7  A    between atoms: C_10  and  N_11
REMARK    8  A    between atoms: C_12  and  C_14
REMARK                            x       y       z     vdW  Elec       q    Type
REMARK                         _______ _______ _______ _____ _____    ______ ____
ROOT
ATOM      1  C   UNL     1      10.657  -2.753   0.037  0.00  0.00    +0.000 C 
ENDROOT
BRANCH   1   5
ATOM      2  C   UNL     1       6.397  -2.868   0.041  0.00  0.00    +0.000 A 
ATOM      3  C   UNL     1       7.062  -2.782   1.260  0.00  0.00    +0.000 A 
ATOM      4  C   UNL     1       8.453  -2.739   1.274  0.00  0.00    +0.000 A 
ATOM      5  C   UNL     1       9.158  -2.798   0.068  0.00  0.00    +0.000 A 
ATOM      6  C   UNL     1       8.413  -2.864  -1.104  0.00  0.00    +0.000 A 
ATOM      7  N   UNL     1       7.059  -2.901  -1.146  0.00  0.00    +0.000 NA
BRANCH   2   8
ATOM      8  C   UNL     1       4.882  -2.810   0.009  0.00  0.00    +0.000 C 
BRANCH   8   9
ATOM      9  N   UNL     1       4.324  -1.539   0.516  0.00  0.00    +0.000 NA
ATOM     10  H   UNL     1       3.315  -1.579   0.352  0.00  0.00    +0.000 HD
BRANCH   9  11
ATOM     11  C   UNL     1       4.812  -0.380  -0.257  0.00  0.00    +0.000 C 
BRANCH  11  12
ATOM     12  C   UNL     1       4.360  -0.382  -1.731  0.00  0.00    +0.000 C 
BRANCH  12  13
ATOM     13  N   UNL     1       2.899  -0.477  -1.832  0.00  0.00    +0.000 NA
ATOM     14  H   UNL     1       2.640  -0.485  -2.818  0.00  0.00    +0.000 HD
ATOM     15  H   UNL     1       2.488   0.368  -1.437  0.00  0.00    +0.000 HD
ENDBRANCH  12  13
ENDBRANCH  11  12
ENDBRANCH   9  11
ENDBRANCH   8   9
ENDBRANCH   2   8
ENDBRANCH   1   5
BRANCH   1  16
ATOM     16  N   UNL     1      11.147  -1.402  -0.056  0.00  0.00    +0.000 N 
ATOM     17  C   UNL     1      12.489  -1.144  -0.195  0.00  0.00    +0.000 C 
ATOM     18  O   UNL     1      13.315  -2.046  -0.304  0.00  0.00    +0.000 OA
ATOM     19  H   UNL     1      10.533  -0.660   0.265  0.00  0.00    +0.000 HD
BRANCH  17  20
ATOM     20  C   UNL     1      12.882   0.268  -0.269  0.00  0.00    +0.000 A 
ATOM     21  C   UNL     1      14.072   0.622  -0.892  0.00  0.00    +0.000 A 
ATOM     22  S   UNL     1      14.355   2.303  -0.923  0.00  0.00    +0.000 S 
ATOM     23  C   UNL     1      12.921   2.616  -0.063  0.00  0.00    +0.000 A 
ATOM     24  N   UNL     1      12.569   3.887   0.272  0.00  0.00    +0.000 NA
ATOM     25  C   UNL     1      11.473   3.977   0.947  0.00  0.00    +0.000 A 
ATOM     26  N   UNL     1      10.690   2.910   1.310  0.00  0.00    +0.000 N 
ATOM     27  C   UNL     1      10.987   1.613   0.968  0.00  0.00    +0.000 A 
ATOM     28  O   UNL     1      10.243   0.687   1.268  0.00  0.00    +0.000 OA
ATOM     29  C   UNL     1      12.224   1.456   0.225  0.00  0.00    +0.000 A 
ATOM     30  H   UNL     1       9.834   3.051   1.827  0.00  0.00    +0.000 HD
ENDBRANCH  17  20
ENDBRANCH   1  16
TORSDOF 8
