REMARK  Name = 
REMARK  5 active torsions:
REMARK  status: ('A' for Active; 'I' for Inactive)
REMARK    1  A    between atoms: C_2  and  C_18
REMARK    2  A    between atoms: N_3  and  C_4
REMARK    3  A    between atoms: C_4  and  C_5
REMARK    4  A    between atoms: C_8  and  C_9
REMARK    5  A    between atoms: C_9  and  N_10
REMARK                            x       y       z     vdW  Elec       q    Type
REMARK                         _______ _______ _______ _____ _____    ______ ____
ROOT
ATOM      1  O   UNL     1       0.498  -3.929  -0.184  0.00  0.00    +0.000 OA
ATOM      2  C   UNL     1       0.596  -3.408  -1.286  0.00  0.00    +0.000 C 
ATOM      3  N   UNL     1       1.587  -2.499  -1.588  0.00  0.00    +0.000 N 
ATOM      4  H   UNL     1       1.686  -2.152  -2.532  0.00  0.00    +0.000 HD
ENDROOT
BRANCH   2   5
ATOM      5  C   UNL     1      -0.300  -3.745  -2.394  0.00  0.00    +0.000 A 
ATOM      6  C   UNL     1       0.125  -3.915  -3.708  0.00  0.00    +0.000 A 
ATOM      7  S   UNL     1      -1.135  -4.398  -4.755  0.00  0.00    +0.000 S 
ATOM      8  C   UNL     1      -2.276  -4.404  -3.494  0.00  0.00    +0.000 A 
ATOM      9  N   UNL     1      -3.573  -4.754  -3.714  0.00  0.00    +0.000 NA
ATOM     10  C   UNL     1      -4.315  -4.728  -2.655  0.00  0.00    +0.000 A 
ATOM     11  N   UNL     1      -3.883  -4.371  -1.404  0.00  0.00    +0.000 N 
ATOM     12  C   UNL     1      -2.604  -3.923  -1.152  0.00  0.00    +0.000 A 
ATOM     13  O   UNL     1      -2.313  -3.433  -0.062  0.00  0.00    +0.000 OA
ATOM     14  C   UNL     1      -1.713  -4.014  -2.292  0.00  0.00    +0.000 A 
ATOM     15  H   UNL     1      -4.528  -4.312  -0.630  0.00  0.00    +0.000 HD
ENDBRANCH   2   5
BRANCH   3  16
ATOM     16  C   UNL     1       2.625  -2.152  -0.627  0.00  0.00    +0.000 C 
BRANCH  16  17
ATOM     17  C   UNL     1       3.769  -3.137  -0.671  0.00  0.00    +0.000 A 
ATOM     18  C   UNL     1       3.706  -4.319   0.059  0.00  0.00    +0.000 A 
ATOM     19  N   UNL     1       4.534  -5.372  -0.168  0.00  0.00    +0.000 NA
ATOM     20  C   UNL     1       5.466  -5.204  -1.145  0.00  0.00    +0.000 A 
ATOM     21  C   UNL     1       5.611  -3.971  -1.776  0.00  0.00    +0.000 A 
ATOM     22  N   UNL     1       4.762  -2.927  -1.576  0.00  0.00    +0.000 NA
BRANCH  20  23
ATOM     23  C   UNL     1       6.124  -6.450  -1.734  0.00  0.00    +0.000 C 
BRANCH  23  24
ATOM     24  N   UNL     1       7.231  -7.074  -0.981  0.00  0.00    +0.000 NA
ATOM     25  C   UNL     1       7.740  -8.289  -1.675  0.00  0.00    +0.000 C 
ATOM     26  C   UNL     1       6.961  -9.615  -1.463  0.00  0.00    +0.000 C 
ATOM     27  O   UNL     1       6.506  -9.821  -0.122  0.00  0.00    +0.000 OA
ATOM     28  C   UNL     1       5.845  -8.655   0.382  0.00  0.00    +0.000 C 
ATOM     29  C   UNL     1       6.836  -7.486   0.384  0.00  0.00    +0.000 C 
ENDBRANCH  23  24
ENDBRANCH  20  23
ENDBRANCH  16  17
ENDBRANCH   3  16
TORSDOF 5
