REMARK  Name = 
REMARK  7 active torsions:
REMARK  status: ('A' for Active; 'I' for Inactive)
REMARK    1  A    between atoms: C_2  and  C_19
REMARK    2  A    between atoms: N_3  and  C_4
REMARK    3  A    between atoms: C_4  and  C_5
REMARK    4  A    between atoms: C_8  and  C_9
REMARK    5  A    between atoms: C_9  and  N_10
REMARK    6  A    between atoms: N_10  and  C_11
REMARK    7  A    between atoms: C_11  and  C_12
REMARK                            x       y       z     vdW  Elec       q    Type
REMARK                         _______ _______ _______ _____ _____    ______ ____
ROOT
ATOM      1  C   UNL     1      -1.332  13.809  -6.965  0.00  0.00    +0.000 C 
ENDROOT
BRANCH   1   2
ATOM      2  C   UNL     1      -0.321  12.702  -7.114  0.00  0.00    +0.000 A 
ATOM      3  C   UNL     1       0.719  12.573  -6.187  0.00  0.00    +0.000 A 
ATOM      4  C   UNL     1       1.657  11.547  -6.311  0.00  0.00    +0.000 A 
ATOM      5  C   UNL     1       1.582  10.628  -7.368  0.00  0.00    +0.000 A 
ATOM      6  C   UNL     1       0.562  10.780  -8.316  0.00  0.00    +0.000 A 
ATOM      7  C   UNL     1      -0.379  11.810  -8.194  0.00  0.00    +0.000 A 
BRANCH   5   8
ATOM      8  C   UNL     1       2.600   9.516  -7.485  0.00  0.00    +0.000 C 
BRANCH   8   9
ATOM      9  N   UNL     1       2.610   8.681  -6.282  0.00  0.00    +0.000 NA
ATOM     10  H   UNL     1       1.665   8.332  -6.118  0.00  0.00    +0.000 HD
BRANCH   9  11
ATOM     11  C   UNL     1       3.533   7.545  -6.416  0.00  0.00    +0.000 C 
BRANCH  11  12
ATOM     12  C   UNL     1       3.470   6.635  -5.159  0.00  0.00    +0.000 C 
ATOM     13  C   UNL     1       4.459   5.482  -5.203  0.00  0.00    +0.000 C 
ATOM     14  C   UNL     1       5.740   6.089  -4.666  0.00  0.00    +0.000 C 
ATOM     15  C   UNL     1       5.277   7.188  -3.721  0.00  0.00    +0.000 C 
ATOM     16  N   UNL     1       3.834   7.348  -3.923  0.00  0.00    +0.000 NA
ATOM     17  H   UNL     1       3.594   8.337  -4.040  0.00  0.00    +0.000 HD
ENDBRANCH  11  12
ENDBRANCH   9  11
ENDBRANCH   8   9
ENDBRANCH   5   8
ENDBRANCH   1   2
BRANCH   1  20
ATOM     18  O   UNL     1       0.047  16.024  -5.893  0.00  0.00    +0.000 OA
ATOM     19  C   UNL     1      -0.194  15.994  -7.096  0.00  0.00    +0.000 C 
ATOM     20  N   UNL     1      -0.920  14.988  -7.680  0.00  0.00    +0.000 N 
ATOM     21  H   UNL     1      -0.928  14.912  -8.691  0.00  0.00    +0.000 HD
BRANCH  19  22
ATOM     22  C   UNL     1       0.229  17.081  -7.989  0.00  0.00    +0.000 A 
ATOM     23  C   UNL     1       0.507  18.336  -7.466  0.00  0.00    +0.000 A 
ATOM     24  S   UNL     1       0.942  19.488  -8.647  0.00  0.00    +0.000 S 
ATOM     25  C   UNL     1       0.826  18.334  -9.893  0.00  0.00    +0.000 A 
ATOM     26  N   UNL     1       1.099  18.671 -11.184  0.00  0.00    +0.000 NA
ATOM     27  C   UNL     1       1.018  17.687 -12.018  0.00  0.00    +0.000 A 
ATOM     28  N   UNL     1       0.681  16.403 -11.681  0.00  0.00    +0.000 N 
ATOM     29  C   UNL     1       0.323  16.036 -10.406  0.00  0.00    +0.000 A 
ATOM     30  O   UNL     1      -0.101  14.910 -10.168  0.00  0.00    +0.000 OA
ATOM     31  C   UNL     1       0.439  17.094  -9.418  0.00  0.00    +0.000 A 
ATOM     32  H   UNL     1       0.608  15.685 -12.386  0.00  0.00    +0.000 HD
ENDBRANCH  19  22
ENDBRANCH   1  20
TORSDOF 7
