REMARK  Name = 
REMARK  5 active torsions:
REMARK  status: ('A' for Active; 'I' for Inactive)
REMARK    1  A    between atoms: C_2  and  C_4
REMARK    2  A    between atoms: C_7  and  O_8
REMARK    3  A    between atoms: O_8  and  C_9
REMARK    4  A    between atoms: C_9  and  C_10
REMARK    5  A    between atoms: C_14  and  C_15
REMARK                            x       y       z     vdW  Elec       q    Type
REMARK                         _______ _______ _______ _____ _____    ______ ____
ROOT
ATOM      1  C   UNL     1       5.009   2.230   5.583  0.00  0.00    +0.000 C 
ENDROOT
BRANCH   1   2
ATOM      2  C   UNL     1       5.956   2.951   6.498  0.00  0.00    +0.000 A 
ATOM      3  C   UNL     1       6.875   2.254   7.270  0.00  0.00    +0.000 A 
ATOM      4  N   UNL     1       7.705   2.834   8.158  0.00  0.00    +0.000 NA
ATOM      5  C   UNL     1       7.615   4.181   8.282  0.00  0.00    +0.000 A 
ATOM      6  C   UNL     1       6.736   5.002   7.570  0.00  0.00    +0.000 A 
ATOM      7  C   UNL     1       5.902   4.342   6.655  0.00  0.00    +0.000 A 
BRANCH   6   8
ATOM      8  C   UNL     1       6.657   6.461   7.792  0.00  0.00    +0.000 A 
ATOM      9  C   UNL     1       6.333   7.350   6.749  0.00  0.00    +0.000 A 
ATOM     10  C   UNL     1       6.210   8.727   6.969  0.00  0.00    +0.000 A 
ATOM     11  C   UNL     1       6.420   9.246   8.242  0.00  0.00    +0.000 A 
ATOM     12  C   UNL     1       6.759   8.387   9.276  0.00  0.00    +0.000 A 
ATOM     13  F   UNL     1       6.966   8.882  10.504  0.00  0.00    +0.000 F 
ATOM     14  C   UNL     1       6.878   7.016   9.066  0.00  0.00    +0.000 A 
ENDBRANCH   6   8
ENDBRANCH   1   2
BRANCH   1  15
ATOM     15  O   UNL     1       5.198   2.677   4.242  0.00  0.00    +0.000 OA
BRANCH  15  19
ATOM     16  C   UNL     1       2.937   0.991   1.163  0.00  0.00    +0.000 A 
ATOM     17  C   UNL     1       2.702   0.566   2.475  0.00  0.00    +0.000 A 
ATOM     18  C   UNL     1       3.435   1.112   3.533  0.00  0.00    +0.000 A 
ATOM     19  C   UNL     1       4.410   2.084   3.291  0.00  0.00    +0.000 A 
ATOM     20  C   UNL     1       4.641   2.508   1.980  0.00  0.00    +0.000 A 
ATOM     21  C   UNL     1       3.913   1.961   0.918  0.00  0.00    +0.000 A 
BRANCH  16  23
ATOM     22  N   UNL     1       0.954  -0.096   0.259  0.00  0.00    +0.000 N 
ATOM     23  C   UNL     1       2.205   0.399   0.013  0.00  0.00    +0.000 C 
ATOM     24  O   UNL     1       2.688   0.370  -1.110  0.00  0.00    +0.000 OA
ATOM     25  H   UNL     1       0.436  -0.426  -0.546  0.00  0.00    +0.000 HD
ATOM     26  H   UNL     1       0.432   0.131   1.092  0.00  0.00    +0.000 HD
ENDBRANCH  16  23
ENDBRANCH  15  19
ENDBRANCH   1  15
TORSDOF 5
