REMARK  Name = 
REMARK  5 active torsions:
REMARK  status: ('A' for Active; 'I' for Inactive)
REMARK    1  A    between atoms: C_2  and  C_4
REMARK    2  A    between atoms: C_7  and  N_8
REMARK    3  A    between atoms: N_8  and  C_9
REMARK    4  A    between atoms: C_9  and  C_10
REMARK    5  A    between atoms: C_14  and  C_15
REMARK                            x       y       z     vdW  Elec       q    Type
REMARK                         _______ _______ _______ _____ _____    ______ ____
ROOT
ATOM      1  C   UNL     1       5.350   3.183  -5.077  0.00  0.00    +0.000 C 
ENDROOT
BRANCH   1   2
ATOM      2  C   UNL     1       6.304   3.448  -6.211  0.00  0.00    +0.000 A 
ATOM      3  C   UNL     1       6.988   2.423  -6.845  0.00  0.00    +0.000 A 
ATOM      4  N   UNL     1       7.886   2.620  -7.833  0.00  0.00    +0.000 NA
ATOM      5  C   UNL     1       8.107   3.905  -8.214  0.00  0.00    +0.000 A 
ATOM      6  C   UNL     1       7.482   5.029  -7.670  0.00  0.00    +0.000 A 
ATOM      7  C   UNL     1       6.574   4.760  -6.635  0.00  0.00    +0.000 A 
BRANCH   6   8
ATOM      8  C   UNL     1       7.726   6.404  -8.159  0.00  0.00    +0.000 A 
ATOM      9  C   UNL     1       8.028   6.666  -9.501  0.00  0.00    +0.000 A 
ATOM     10  C   UNL     1       8.194   7.979  -9.914  0.00  0.00    +0.000 A 
ATOM     11  N   UNL     1       8.077   9.048  -9.100  0.00  0.00    +0.000 NA
ATOM     12  C   UNL     1       7.790   8.802  -7.814  0.00  0.00    +0.000 A 
ATOM     13  N   UNL     1       7.602   9.913  -6.995  0.00  0.00    +0.000 N 
ATOM     14  C   UNL     1       7.619   7.519  -7.311  0.00  0.00    +0.000 A 
ATOM     15  H   UNL     1       7.818  10.733  -7.556  0.00  0.00    +0.000 HD
ATOM     16  H   UNL     1       8.162   9.865  -6.154  0.00  0.00    +0.000 HD
ENDBRANCH   6   8
ENDBRANCH   1   2
BRANCH   1  17
ATOM     17  N   UNL     1       4.100   3.875  -5.340  0.00  0.00    +0.000 N 
ATOM     18  H   UNL     1       3.552   3.469  -6.092  0.00  0.00    +0.000 HD
BRANCH  17  22
ATOM     19  C   UNL     1       1.337   5.040  -2.482  0.00  0.00    +0.000 A 
ATOM     20  C   UNL     1       1.010   4.479  -3.707  0.00  0.00    +0.000 A 
ATOM     21  N   UNL     1       1.928   4.068  -4.623  0.00  0.00    +0.000 NA
ATOM     22  C   UNL     1       3.237   4.201  -4.313  0.00  0.00    +0.000 A 
ATOM     23  C   UNL     1       3.634   4.731  -3.079  0.00  0.00    +0.000 A 
ATOM     24  F   UNL     1       4.926   4.895  -2.764  0.00  0.00    +0.000 F 
ATOM     25  C   UNL     1       2.684   5.148  -2.154  0.00  0.00    +0.000 A 
BRANCH  19  27
ATOM     26  N   UNL     1       0.556   6.514  -0.720  0.00  0.00    +0.000 N 
ATOM     27  C   UNL     1       0.260   5.493  -1.582  0.00  0.00    +0.000 C 
ATOM     28  O   UNL     1      -0.857   5.001  -1.628  0.00  0.00    +0.000 OA
ATOM     29  H   UNL     1      -0.215   6.885  -0.179  0.00  0.00    +0.000 HD
ATOM     30  H   UNL     1       1.372   7.102  -0.823  0.00  0.00    +0.000 HD
ENDBRANCH  19  27
ENDBRANCH  17  22
ENDBRANCH   1  17
TORSDOF 5
