REMARK  Name = 
REMARK  6 active torsions:
REMARK  status: ('A' for Active; 'I' for Inactive)
REMARK    1  A    between atoms: C_1  and  C_2
REMARK    2  A    between atoms: C_10  and  C_11
REMARK    3  A    between atoms: C_11  and  O_12
REMARK    4  A    between atoms: O_12  and  C_13
REMARK    5  A    between atoms: C_16  and  C_17
REMARK    6  A    between atoms: C_24  and  C_25
REMARK                            x       y       z     vdW  Elec       q    Type
REMARK                         _______ _______ _______ _____ _____    ______ ____
ROOT
ATOM      1  C   UNL     1       1.588   0.953   0.419  0.00  0.00    +0.000 C 
ATOM      2  C   UNL     1       2.951   0.472  -0.080  0.00  0.00    +0.000 C 
ATOM      3  C   UNL     1       3.400   1.199  -1.368  0.00  0.00    +0.000 C 
ATOM      4  N   UNL     1       2.627   0.714  -2.510  0.00  0.00    +0.000 N 
ATOM      5  C   UNL     1       1.978   1.527  -3.404  0.00  0.00    +0.000 A 
ATOM      6  C   UNL     1       2.463   2.800  -3.709  0.00  0.00    +0.000 A 
ATOM      7  C   UNL     1       1.791   3.610  -4.622  0.00  0.00    +0.000 A 
ATOM      8  C   UNL     1       0.625   3.141  -5.197  0.00  0.00    +0.000 A 
ATOM      9  F   UNL     1      -0.050   3.920  -6.053  0.00  0.00    +0.000 F 
ATOM     10  C   UNL     1       0.162   1.882  -4.850  0.00  0.00    +0.000 A 
ATOM     11  N   UNL     1       0.838   1.073  -3.981  0.00  0.00    +0.000 NA
ATOM     12  C   UNL     1       2.598  -0.742  -2.670  0.00  0.00    +0.000 C 
ATOM     13  C   UNL     1       2.185  -1.420  -1.348  0.00  0.00    +0.000 C 
ATOM     14  C   UNL     1       2.375  -2.930  -1.437  0.00  0.00    +0.000 C 
ATOM     15  O   UNL     1       2.980  -0.959  -0.236  0.00  0.00    +0.000 OA
ENDROOT
BRANCH  10  16
ATOM     16  C   UNL     1      -1.157   1.393  -5.406  0.00  0.00    +0.000 C 
BRANCH  16  17
ATOM     17  O   UNL     1      -0.959   0.756  -6.670  0.00  0.00    +0.000 OA
BRANCH  17  18
ATOM     18  C   UNL     1      -2.073   0.294  -7.315  0.00  0.00    +0.000 A 
ATOM     19  C   UNL     1      -3.389   0.370  -6.864  0.00  0.00    +0.000 A 
ATOM     20  C   UNL     1      -4.421  -0.146  -7.653  0.00  0.00    +0.000 A 
ATOM     21  C   UNL     1      -4.100  -0.727  -8.874  0.00  0.00    +0.000 A 
ATOM     22  N   UNL     1      -2.828  -0.825  -9.349  0.00  0.00    +0.000 NA
ATOM     23  C   UNL     1      -1.857  -0.311  -8.552  0.00  0.00    +0.000 A 
BRANCH  21  24
ATOM     24  C   UNL     1      -5.189  -1.285  -9.739  0.00  0.00    +0.000 C 
ATOM     25  N   UNL     1      -4.776  -1.836 -10.924  0.00  0.00    +0.000 N 
ATOM     26  O   UNL     1      -6.371  -1.249  -9.420  0.00  0.00    +0.000 OA
ATOM     27  H   UNL     1      -3.789  -1.844 -11.156  0.00  0.00    +0.000 HD
ATOM     28  H   UNL     1      -5.456  -2.230 -11.559  0.00  0.00    +0.000 HD
ENDBRANCH  21  24
ENDBRANCH  17  18
ENDBRANCH  16  17
ENDBRANCH  10  16
TORSDOF 4
