REMARK  Name = 
REMARK  5 active torsions:
REMARK  status: ('A' for Active; 'I' for Inactive)
REMARK    1  A    between atoms: C_1  and  C_2
REMARK    2  A    between atoms: C_2  and  N_3
REMARK    3  A    between atoms: C_2  and  C_13
REMARK    4  A    between atoms: N_3  and  C_4
REMARK    5  A    between atoms: C_7  and  C_8
REMARK                            x       y       z     vdW  Elec       q    Type
REMARK                         _______ _______ _______ _____ _____    ______ ____
ROOT
ATOM      1  C   UNL     1       2.508  -1.604  -2.009  0.00  0.00    +0.000 A 
ATOM      2  C   UNL     1       2.345  -1.713  -3.393  0.00  0.00    +0.000 A 
ATOM      3  C   UNL     1       2.012  -2.934  -3.975  0.00  0.00    +0.000 A 
ATOM      4  C   UNL     1       1.884  -4.038  -3.145  0.00  0.00    +0.000 A 
ATOM      5  N   UNL     1       2.093  -4.004  -1.801  0.00  0.00    +0.000 NA
ATOM      6  C   UNL     1       2.407  -2.791  -1.279  0.00  0.00    +0.000 A 
ENDROOT
BRANCH   4   7
ATOM      7  C   UNL     1       1.480  -5.359  -3.726  0.00  0.00    +0.000 C 
ATOM      8  N   UNL     1       1.374  -6.383  -2.823  0.00  0.00    +0.000 N 
ATOM      9  O   UNL     1       1.249  -5.520  -4.915  0.00  0.00    +0.000 OA
ATOM     10  H   UNL     1       1.555  -6.202  -1.842  0.00  0.00    +0.000 HD
ATOM     11  H   UNL     1       1.080  -7.296  -3.135  0.00  0.00    +0.000 HD
ENDBRANCH   4   7
BRANCH   1  12
ATOM     12  N   UNL     1       2.838  -0.349  -1.486  0.00  0.00    +0.000 N 
ATOM     13  H   UNL     1       3.808  -0.149  -1.727  0.00  0.00    +0.000 HD
BRANCH  12  15
ATOM     14  C   UNL     1       1.004  -0.058   0.128  0.00  0.00    +0.000 C 
ATOM     15  C   UNL     1       2.525  -0.015  -0.087  0.00  0.00    +0.000 C 
BRANCH  15  16
ATOM     16  C   UNL     1       3.089   1.392   0.283  0.00  0.00    +0.000 C 
ATOM     17  C   UNL     1       2.496   2.534  -0.567  0.00  0.00    +0.000 C 
ATOM     18  C   UNL     1       3.091   3.893  -0.206  0.00  0.00    +0.000 C 
ATOM     19  C   UNL     1       4.612   3.879  -0.287  0.00  0.00    +0.000 C 
ATOM     20  C   UNL     1       5.194   2.794   0.611  0.00  0.00    +0.000 C 
ATOM     21  C   UNL     1       4.631   1.420   0.257  0.00  0.00    +0.000 C 
ENDBRANCH  15  16
ENDBRANCH  12  15
ENDBRANCH   1  12
TORSDOF 4
