REMARK  Name = 
REMARK  5 active torsions:
REMARK  status: ('A' for Active; 'I' for Inactive)
REMARK    1  A    between atoms: C_2  and  C_3
REMARK    2  A    between atoms: C_6  and  C_7
REMARK    3  A    between atoms: C_7  and  C_8
REMARK    4  A    between atoms: C_12  and  C_13
REMARK    5  A    between atoms: C_17  and  C_18
REMARK                            x       y       z     vdW  Elec       q    Type
REMARK                         _______ _______ _______ _____ _____    ______ ____
ROOT
ATOM      1  C   UNL     1       3.988   1.418   0.771  0.00  0.00    +0.000 A 
ATOM      2  C   UNL     1       3.995   2.568  -0.031  0.00  0.00    +0.000 A 
ATOM      3  C   UNL     1       3.855   3.834   0.532  0.00  0.00    +0.000 A 
ATOM      4  C   UNL     1       3.725   3.973   1.914  0.00  0.00    +0.000 A 
ATOM      5  C   UNL     1       3.792   2.860   2.766  0.00  0.00    +0.000 A 
ATOM      6  C   UNL     1       3.968   1.598   2.168  0.00  0.00    +0.000 A 
ENDROOT
BRANCH   5   7
ATOM      7  C   UNL     1       3.607   2.986   4.227  0.00  0.00    +0.000 A 
ATOM      8  C   UNL     1       2.674   3.882   4.772  0.00  0.00    +0.000 A 
ATOM      9  C   UNL     1       2.516   3.961   6.149  0.00  0.00    +0.000 A 
ATOM     10  N   UNL     1       3.209   3.212   7.028  0.00  0.00    +0.000 NA
ATOM     11  C   UNL     1       4.102   2.337   6.490  0.00  0.00    +0.000 A 
ATOM     12  C   UNL     1       4.330   2.194   5.127  0.00  0.00    +0.000 A 
BRANCH  11  13
ATOM     13  C   UNL     1       4.875   1.493   7.455  0.00  0.00    +0.000 C 
ATOM     14  N   UNL     1       4.615   1.730   8.777  0.00  0.00    +0.000 N 
ATOM     15  O   UNL     1       5.685   0.648   7.096  0.00  0.00    +0.000 OA
ATOM     16  H   UNL     1       3.941   2.443   9.033  0.00  0.00    +0.000 HD
ATOM     17  H   UNL     1       5.114   1.212   9.485  0.00  0.00    +0.000 HD
ENDBRANCH  11  13
ENDBRANCH   5   7
BRANCH   1  18
ATOM     18  C   UNL     1       3.781   0.030   0.157  0.00  0.00    +0.000 C 
ATOM     19  C   UNL     1       2.667  -0.832   0.763  0.00  0.00    +0.000 C 
ATOM     20  C   UNL     1       2.426  -0.152  -0.542  0.00  0.00    +0.000 C 
BRANCH  18  24
ATOM     21  C   UNL     1       7.096  -2.173  -1.637  0.00  0.00    +0.000 A 
ATOM     22  C   UNL     1       6.814  -2.314  -0.275  0.00  0.00    +0.000 A 
ATOM     23  C   UNL     1       5.773  -1.579   0.309  0.00  0.00    +0.000 A 
ATOM     24  C   UNL     1       4.983  -0.696  -0.448  0.00  0.00    +0.000 A 
ATOM     25  C   UNL     1       5.309  -0.553  -1.812  0.00  0.00    +0.000 A 
ATOM     26  C   UNL     1       6.345  -1.283  -2.400  0.00  0.00    +0.000 A 
BRANCH  21  28
ATOM     27  N   UNL     1       8.961  -3.589  -2.756  0.00  0.00    +0.000 NA
ATOM     28  C   UNL     1       8.133  -2.955  -2.250  0.00  0.00    +0.000 C 
ENDBRANCH  21  28
ENDBRANCH  18  24
ENDBRANCH   1  18
TORSDOF 5
