REMARK  Name = 
REMARK  5 active torsions:
REMARK  status: ('A' for Active; 'I' for Inactive)
REMARK    1  A    between atoms: N_1  and  C_2
REMARK    2  A    between atoms: C_2  and  C_3
REMARK    3  A    between atoms: C_6  and  C_7
REMARK    4  A    between atoms: C_7  and  O_8
REMARK    5  A    between atoms: O_8  and  C_9
REMARK                            x       y       z     vdW  Elec       q    Type
REMARK                         _______ _______ _______ _____ _____    ______ ____
ROOT
ATOM      1  C   UNL     1       2.931   1.327  -0.162  0.00  0.00    +0.000 A 
ATOM      2  C   UNL     1       2.148   2.421   0.210  0.00  0.00    +0.000 A 
ATOM      3  C   UNL     1       2.622   3.716   0.008  0.00  0.00    +0.000 A 
ATOM      4  C   UNL     1       3.874   3.891  -0.577  0.00  0.00    +0.000 A 
ATOM      5  N   UNL     1       4.655   2.844  -0.944  0.00  0.00    +0.000 NA
ATOM      6  C   UNL     1       4.173   1.599  -0.721  0.00  0.00    +0.000 A 
ENDROOT
BRANCH   1   7
ATOM      7  C   UNL     1       2.475  -0.086   0.062  0.00  0.00    +0.000 C 
BRANCH   7   8
ATOM      8  N   UNL     1       1.218  -0.369  -0.622  0.00  0.00    +0.000 NA
ATOM      9  H   UNL     1       0.983  -1.350  -0.492  0.00  0.00    +0.000 HD
ATOM     10  H   UNL     1       1.348  -0.237  -1.624  0.00  0.00    +0.000 HD
ENDBRANCH   7   8
ENDBRANCH   1   7
BRANCH   4  11
ATOM     11  C   UNL     1       4.404   5.281  -0.841  0.00  0.00    +0.000 C 
BRANCH  11  12
ATOM     12  O   UNL     1       5.092   5.769   0.313  0.00  0.00    +0.000 OA
BRANCH  12  13
ATOM     13  C   UNL     1       5.611   7.033   0.224  0.00  0.00    +0.000 A 
ATOM     14  C   UNL     1       5.543   7.869  -0.896  0.00  0.00    +0.000 A 
ATOM     15  C   UNL     1       6.091   9.155  -0.856  0.00  0.00    +0.000 A 
ATOM     16  C   UNL     1       6.714   9.610   0.302  0.00  0.00    +0.000 A 
ATOM     17  C   UNL     1       6.791   8.773   1.409  0.00  0.00    +0.000 A 
ATOM     18  F   UNL     1       7.392   9.209   2.523  0.00  0.00    +0.000 F 
ATOM     19  C   UNL     1       6.248   7.492   1.378  0.00  0.00    +0.000 A 
ENDBRANCH  12  13
ENDBRANCH  11  12
ENDBRANCH   4  11
TORSDOF 5
