REMARK  Name = 
REMARK  5 active torsions:
REMARK  status: ('A' for Active; 'I' for Inactive)
REMARK    1  A    between atoms: C_2  and  C_4
REMARK    2  A    between atoms: C_7  and  O_8
REMARK    3  A    between atoms: O_8  and  C_9
REMARK    4  A    between atoms: C_9  and  C_10
REMARK    5  A    between atoms: C_14  and  C_15
REMARK                            x       y       z     vdW  Elec       q    Type
REMARK                         _______ _______ _______ _____ _____    ______ ____
ROOT
ATOM      1  C   UNL     1       5.038  -5.172  -2.997  0.00  0.00    +0.000 C 
ENDROOT
BRANCH   1   2
ATOM      2  C   UNL     1       6.026  -6.312  -3.113  0.00  0.00    +0.000 A 
ATOM      3  C   UNL     1       7.393  -6.042  -3.231  0.00  0.00    +0.000 A 
ATOM      4  C   UNL     1       8.312  -7.086  -3.290  0.00  0.00    +0.000 A 
ATOM      5  C   UNL     1       7.874  -8.411  -3.213  0.00  0.00    +0.000 A 
ATOM      6  C   UNL     1       6.513  -8.724  -3.054  0.00  0.00    +0.000 A 
ATOM      7  C   UNL     1       5.606  -7.649  -3.008  0.00  0.00    +0.000 A 
BRANCH   6   8
ATOM      8  C   UNL     1       6.047 -10.121  -2.900  0.00  0.00    +0.000 A 
ATOM      9  C   UNL     1       4.810 -10.548  -3.405  0.00  0.00    +0.000 A 
ATOM     10  C   UNL     1       4.397 -11.856  -3.190  0.00  0.00    +0.000 A 
ATOM     11  N   UNL     1       5.124 -12.773  -2.526  0.00  0.00    +0.000 NA
ATOM     12  C   UNL     1       6.315 -12.356  -2.055  0.00  0.00    +0.000 A 
ATOM     13  F   UNL     1       7.061 -13.247  -1.387  0.00  0.00    +0.000 F 
ATOM     14  C   UNL     1       6.808 -11.072  -2.209  0.00  0.00    +0.000 A 
ENDBRANCH   6   8
ENDBRANCH   1   2
BRANCH   1  15
ATOM     15  O   UNL     1       3.793  -5.528  -3.608  0.00  0.00    +0.000 OA
BRANCH  15  19
ATOM     16  C   UNL     1       0.925  -2.594  -3.278  0.00  0.00    +0.000 A 
ATOM     17  C   UNL     1       0.610  -3.802  -3.906  0.00  0.00    +0.000 A 
ATOM     18  C   UNL     1       1.592  -4.788  -4.014  0.00  0.00    +0.000 A 
ATOM     19  C   UNL     1       2.850  -4.529  -3.488  0.00  0.00    +0.000 A 
ATOM     20  N   UNL     1       3.183  -3.370  -2.883  0.00  0.00    +0.000 NA
ATOM     21  C   UNL     1       2.217  -2.424  -2.801  0.00  0.00    +0.000 A 
BRANCH  16  23
ATOM     22  N   UNL     1      -1.361  -1.801  -3.058  0.00  0.00    +0.000 N 
ATOM     23  C   UNL     1      -0.034  -1.482  -3.117  0.00  0.00    +0.000 C 
ATOM     24  O   UNL     1       0.347  -0.327  -2.995  0.00  0.00    +0.000 OA
ATOM     25  H   UNL     1      -1.989  -1.040  -2.829  0.00  0.00    +0.000 HD
ATOM     26  H   UNL     1      -1.692  -2.741  -2.896  0.00  0.00    +0.000 HD
ENDBRANCH  16  23
ENDBRANCH  15  19
ENDBRANCH   1  15
TORSDOF 5
