REMARK  Name = 
REMARK  8 active torsions:
REMARK  status: ('A' for Active; 'I' for Inactive)
REMARK    1  A    between atoms: C_1  and  C_2
REMARK    2  A    between atoms: C_2  and  C_3
REMARK    3  A    between atoms: C_2  and  C_4
REMARK    4  A    between atoms: C_2  and  C_5
REMARK    5  A    between atoms: N_16  and  C_17
REMARK    6  A    between atoms: C_17  and  C_18
REMARK    7  A    between atoms: C_21  and  C_22
REMARK    8  A    between atoms: C_22  and  N_23
REMARK                            x       y       z     vdW  Elec       q    Type
REMARK                         _______ _______ _______ _____ _____    ______ ____
ROOT
ATOM      1  C   UNL     1       4.062  -0.483   1.366  0.00  0.00    +0.000 A 
ATOM      2  N   UNL     1       4.014  -1.045   0.170  0.00  0.00    +0.000 NA
ATOM      3  C   UNL     1       3.787  -2.340   0.395  0.00  0.00    +0.000 A 
ATOM      4  C   UNL     1       3.333  -3.202  -0.630  0.00  0.00    +0.000 C 
ATOM      5  C   UNL     1       2.035  -3.557  -0.477  0.00  0.00    +0.000 C 
ATOM      6  C   UNL     1       1.792  -4.726   0.425  0.00  0.00    +0.000 C 
ATOM      7  N   UNL     1       0.367  -4.816   0.589  0.00  0.00    +0.000 N 
ATOM      8  O   UNL     1       2.102  -5.730  -0.158  0.00  0.00    +0.000 OA
ATOM      9  C   UNL     1       2.537  -4.668   1.818  0.00  0.00    +0.000 C 
ATOM     10  N   UNL     1       3.336  -3.791   2.406  0.00  0.00    +0.000 NA
ATOM     11  C   UNL     1       3.716  -2.652   1.739  0.00  0.00    +0.000 A 
ATOM     12  N   UNL     1       4.201  -1.483   2.332  0.00  0.00    +0.000 N 
ATOM     13  H   UNL     1       0.143  -5.728   0.966  0.00  0.00    +0.000 HD
ATOM     14  H   UNL     1      -0.075  -4.793  -0.325  0.00  0.00    +0.000 HD
ENDROOT
BRANCH   1  16
ATOM     15  C   UNL     1       2.479   1.305   0.771  0.00  0.00    +0.000 C 
ATOM     16  C   UNL     1       3.854   1.018   1.448  0.00  0.00    +0.000 C 
ATOM     17  C   UNL     1       4.960   1.678   0.597  0.00  0.00    +0.000 C 
ATOM     18  C   UNL     1       3.816   1.685   2.822  0.00  0.00    +0.000 C 
ENDBRANCH   1  16
BRANCH  12  19
ATOM     19  C   UNL     1       4.904  -1.426   3.622  0.00  0.00    +0.000 C 
BRANCH  19  20
ATOM     20  C   UNL     1       6.421  -1.265   3.484  0.00  0.00    +0.000 A 
ATOM     21  C   UNL     1       7.152  -0.498   4.406  0.00  0.00    +0.000 A 
ATOM     22  C   UNL     1       8.514  -0.210   4.190  0.00  0.00    +0.000 A 
ATOM     23  C   UNL     1       9.179  -0.693   3.060  0.00  0.00    +0.000 A 
ATOM     24  C   UNL     1       8.497  -1.596   2.235  0.00  0.00    +0.000 A 
ATOM     25  C   UNL     1       7.143  -1.888   2.457  0.00  0.00    +0.000 A 
BRANCH  23  26
ATOM     26  C   UNL     1      10.519  -0.129   2.640  0.00  0.00    +0.000 C 
BRANCH  26  27
ATOM     27  N   UNL     1      11.557  -1.132   2.428  0.00  0.00    +0.000 NA
ATOM     28  H   UNL     1      11.823  -1.523   3.330  0.00  0.00    +0.000 HD
ATOM     29  H   UNL     1      12.390  -0.670   2.063  0.00  0.00    +0.000 HD
ENDBRANCH  26  27
ENDBRANCH  23  26
ENDBRANCH  19  20
ENDBRANCH  12  19
TORSDOF 5
