REMARK  Name = 
REMARK  6 active torsions:
REMARK  status: ('A' for Active; 'I' for Inactive)
REMARK    1  A    between atoms: C_1  and  C_2
REMARK    2  A    between atoms: C_4  and  N_5
REMARK    3  A    between atoms: C_4  and  C_15
REMARK    4  A    between atoms: N_5  and  C_6
REMARK    5  A    between atoms: C_9  and  C_10
REMARK    6  A    between atoms: C_18  and  O_19
REMARK                            x       y       z     vdW  Elec       q    Type
REMARK                         _______ _______ _______ _____ _____    ______ ____
ROOT
ATOM      1  N   UNL     1       2.202  -1.195  -2.267  0.00  0.00    +0.000 N 
ATOM      2  H   UNL     1       1.695  -2.075  -2.273  0.00  0.00    +0.000 HD
ENDROOT
BRANCH   1   3
ATOM      3  C   UNL     1       2.519  -0.768  -3.574  0.00  0.00    +0.000 A 
ATOM      4  C   UNL     1       3.831  -0.678  -4.039  0.00  0.00    +0.000 A 
ATOM      5  C   UNL     1       4.108  -0.257  -5.343  0.00  0.00    +0.000 A 
ATOM      6  C   UNL     1       3.067   0.075  -6.211  0.00  0.00    +0.000 A 
ATOM      7  C   UNL     1       1.751  -0.027  -5.771  0.00  0.00    +0.000 A 
ATOM      8  C   UNL     1       1.480  -0.443  -4.457  0.00  0.00    +0.000 A 
BRANCH   6   9
ATOM      9  C   UNL     1       3.433   0.574  -7.567  0.00  0.00    +0.000 C 
ATOM     10  N   UNL     1       2.538   0.368  -8.579  0.00  0.00    +0.000 N 
ATOM     11  O   UNL     1       4.494   1.137  -7.774  0.00  0.00    +0.000 OA
ATOM     12  H   UNL     1       1.667  -0.128  -8.483  0.00  0.00    +0.000 HD
ATOM     13  H   UNL     1       2.804   0.708  -9.494  0.00  0.00    +0.000 HD
ENDBRANCH   6   9
ENDBRANCH   1   3
BRANCH   1  17
ATOM     14  C   UNL     1       2.773  -0.273   1.506  0.00  0.00    +0.000 C 
ATOM     15  C   UNL     1       2.461  -0.179   0.055  0.00  0.00    +0.000 C 
ATOM     16  C   UNL     1       3.454   0.512  -0.824  0.00  0.00    +0.000 C 
ATOM     17  C   UNL     1       3.108  -0.949  -1.109  0.00  0.00    +0.000 C 
BRANCH  17  18
ATOM     18  C   UNL     1       4.167  -2.040  -0.857  0.00  0.00    +0.000 A 
ATOM     19  C   UNL     1       3.870  -3.378  -0.538  0.00  0.00    +0.000 A 
ATOM     20  C   UNL     1       4.891  -4.320  -0.325  0.00  0.00    +0.000 A 
ATOM     21  C   UNL     1       6.205  -3.905  -0.452  0.00  0.00    +0.000 A 
ATOM     22  N   UNL     1       6.550  -2.663  -0.800  0.00  0.00    +0.000 NA
ATOM     23  C   UNL     1       5.536  -1.782  -0.994  0.00  0.00    +0.000 A 
BRANCH  21  24
ATOM     24  O   UNL     1       7.258  -4.735  -0.214  0.00  0.00    +0.000 OA
ATOM     25  H   UNL     1       6.923  -5.566   0.150  0.00  0.00    +0.000 HD
ENDBRANCH  21  24
ENDBRANCH  17  18
ENDBRANCH   1  17
TORSDOF 5
