REMARK  Name = 
REMARK  5 active torsions:
REMARK  status: ('A' for Active; 'I' for Inactive)
REMARK    1  A    between atoms: N_1  and  C_2
REMARK    2  A    between atoms: C_2  and  C_3
REMARK    3  A    between atoms: C_3  and  C_4
REMARK    4  A    between atoms: C_7  and  C_8
REMARK    5  A    between atoms: C_8  and  C_9
REMARK                            x       y       z     vdW  Elec       q    Type
REMARK                         _______ _______ _______ _____ _____    ______ ____
ROOT
ATOM      1  C   UNL     1       4.488   0.144  -1.379  0.00  0.00    +0.000 A 
ATOM      2  C   UNL     1       5.239   1.321  -1.463  0.00  0.00    +0.000 A 
ATOM      3  C   UNL     1       6.637   1.273  -1.481  0.00  0.00    +0.000 A 
ATOM      4  C   UNL     1       7.315   0.047  -1.402  0.00  0.00    +0.000 A 
ATOM      5  C   UNL     1       6.553  -1.115  -1.273  0.00  0.00    +0.000 A 
ATOM      6  F   UNL     1       7.161  -2.301  -1.096  0.00  0.00    +0.000 F 
ATOM      7  C   UNL     1       5.158  -1.080  -1.266  0.00  0.00    +0.000 A 
ENDROOT
BRANCH   1   8
ATOM      8  C   UNL     1       2.980   0.197  -1.361  0.00  0.00    +0.000 C 
BRANCH   8   9
ATOM      9  C   UNL     1       2.442   0.264   0.072  0.00  0.00    +0.000 C 
BRANCH   9  10
ATOM     10  N   UNL     1       0.982   0.306   0.092  0.00  0.00    +0.000 NA
ATOM     11  H   UNL     1       0.663   0.317   1.060  0.00  0.00    +0.000 HD
ATOM     12  H   UNL     1       0.609  -0.549  -0.319  0.00  0.00    +0.000 HD
ENDBRANCH   9  10
ENDBRANCH   8   9
ENDBRANCH   1   8
BRANCH   4  13
ATOM     13  C   UNL     1       8.819   0.008  -1.418  0.00  0.00    +0.000 C 
BRANCH  13  14
ATOM     14  C   UNL     1       9.269  -0.093  -2.844  0.00  0.00    +0.000 A 
ATOM     15  C   UNL     1       9.487   0.955  -3.721  0.00  0.00    +0.000 A 
ATOM     16  N   UNL     1      10.010   0.455  -4.885  0.00  0.00    +0.000 N 
ATOM     17  C   UNL     1      10.163  -0.906  -4.787  0.00  0.00    +0.000 A 
ATOM     18  C   UNL     1      10.701  -1.819  -5.688  0.00  0.00    +0.000 A 
ATOM     19  N   UNL     1      10.758  -3.126  -5.343  0.00  0.00    +0.000 NA
ATOM     20  C   UNL     1      10.279  -3.505  -4.141  0.00  0.00    +0.000 A 
ATOM     21  C   UNL     1       9.725  -2.647  -3.201  0.00  0.00    +0.000 A 
ATOM     22  C   UNL     1       9.679  -1.286  -3.537  0.00  0.00    +0.000 A 
ATOM     23  H   UNL     1      10.285   1.009  -5.686  0.00  0.00    +0.000 HD
ENDBRANCH  13  14
ENDBRANCH   4  13
TORSDOF 5
