REMARK  Name = 
REMARK  5 active torsions:
REMARK  status: ('A' for Active; 'I' for Inactive)
REMARK    1  A    between atoms: C_2  and  C_4
REMARK    2  A    between atoms: C_7  and  N_8
REMARK    3  A    between atoms: N_8  and  C_9
REMARK    4  A    between atoms: C_9  and  C_10
REMARK    5  A    between atoms: C_14  and  C_15
REMARK                            x       y       z     vdW  Elec       q    Type
REMARK                         _______ _______ _______ _____ _____    ______ ____
ROOT
ATOM      1  N   UNL     1       3.904   4.315  -4.825  0.00  0.00    +0.000 N 
ATOM      2  H   UNL     1       3.689   4.061  -5.786  0.00  0.00    +0.000 HD
ENDROOT
BRANCH   1   6
ATOM      3  C   UNL     1       0.717   3.244  -2.455  0.00  0.00    +0.000 A 
ATOM      4  C   UNL     1       2.004   2.852  -2.121  0.00  0.00    +0.000 A 
ATOM      5  N   UNL     1       3.092   3.180  -2.875  0.00  0.00    +0.000 NA
ATOM      6  C   UNL     1       2.856   3.910  -3.985  0.00  0.00    +0.000 A 
ATOM      7  C   UNL     1       1.546   4.313  -4.292  0.00  0.00    +0.000 A 
ATOM      8  N   UNL     1       0.449   3.991  -3.559  0.00  0.00    +0.000 NA
BRANCH   3  10
ATOM      9  N   UNL     1      -1.668   3.242  -2.045  0.00  0.00    +0.000 N 
ATOM     10  C   UNL     1      -0.435   2.839  -1.605  0.00  0.00    +0.000 C 
ATOM     11  O   UNL     1      -0.295   2.182  -0.582  0.00  0.00    +0.000 OA
ATOM     12  H   UNL     1      -2.495   2.989  -1.522  0.00  0.00    +0.000 HD
ATOM     13  H   UNL     1      -1.752   3.771  -2.906  0.00  0.00    +0.000 HD
ENDBRANCH   3  10
ENDBRANCH   1   6
BRANCH   1  14
ATOM     14  C   UNL     1       5.233   3.853  -4.439  0.00  0.00    +0.000 C 
BRANCH  14  15
ATOM     15  C   UNL     1       6.240   4.359  -5.443  0.00  0.00    +0.000 A 
ATOM     16  C   UNL     1       7.081   3.486  -6.118  0.00  0.00    +0.000 A 
ATOM     17  N   UNL     1       8.010   3.880  -7.015  0.00  0.00    +0.000 NA
ATOM     18  C   UNL     1       8.107   5.212  -7.252  0.00  0.00    +0.000 A 
ATOM     19  C   UNL     1       7.320   6.199  -6.653  0.00  0.00    +0.000 A 
ATOM     20  C   UNL     1       6.376   5.729  -5.724  0.00  0.00    +0.000 A 
BRANCH  19  21
ATOM     21  C   UNL     1       7.466   7.631  -6.982  0.00  0.00    +0.000 A 
ATOM     22  C   UNL     1       7.236   8.647  -6.042  0.00  0.00    +0.000 A 
ATOM     23  C   UNL     1       7.376   9.992  -6.391  0.00  0.00    +0.000 A 
ATOM     24  C   UNL     1       7.755  10.299  -7.684  0.00  0.00    +0.000 A 
ATOM     25  N   UNL     1       7.991   9.369  -8.628  0.00  0.00    +0.000 NA
ATOM     26  C   UNL     1       7.837   8.072  -8.258  0.00  0.00    +0.000 A 
ENDBRANCH  19  21
ENDBRANCH  14  15
ENDBRANCH   1  14
TORSDOF 5
