REMARK  Name = 
REMARK  11 active torsions:
REMARK  status: ('A' for Active; 'I' for Inactive)
REMARK    1  A    between atoms: C_1  and  C_2
REMARK    2  A    between atoms: C_2  and  N_3
REMARK    3  A    between atoms: C_2  and  C_22
REMARK    4  A    between atoms: N_3  and  C_4
REMARK    5  A    between atoms: C_4  and  C_5
REMARK    6  A    between atoms: C_8  and  C_9
REMARK    7  A    between atoms: C_9  and  N_10
REMARK    8  A    between atoms: N_10  and  CA_11
REMARK    9  A    between atoms: CA_11  and  C_12
REMARK   10  A    between atoms: CA_11  and  C_14
REMARK   11  A    between atoms: C_12  and  O_13
REMARK                            x       y       z     vdW  Elec       q    Type
REMARK                         _______ _______ _______ _____ _____    ______ ____
ROOT
ATOM      1  C   UNL     1       2.993   1.616   3.182  0.00  0.00    +0.000 A 
ATOM      2  C   UNL     1       3.096   2.908   3.712  0.00  0.00    +0.000 A 
ATOM      3  C   UNL     1       3.471   3.102   5.044  0.00  0.00    +0.000 A 
ATOM      4  C   UNL     1       3.735   2.008   5.883  0.00  0.00    +0.000 A 
ATOM      5  C   UNL     1       3.616   0.715   5.358  0.00  0.00    +0.000 A 
ATOM      6  C   UNL     1       3.253   0.523   4.023  0.00  0.00    +0.000 A 
ENDROOT
BRANCH   1   7
ATOM      7  C   UNL     1       2.556   1.385   1.753  0.00  0.00    +0.000 C 
BRANCH   7   8
ATOM      8  N   UNL     1       3.455   2.015   0.784  0.00  0.00    +0.000 NA
ATOM      9  H   UNL     1       3.493   3.013   0.983  0.00  0.00    +0.000 HD
BRANCH   8  11
ATOM     10  C   UNL     1       2.941   0.379  -1.037  0.00  0.00    +0.000 C 
ATOM     11  C   UNL     1       2.988   1.849  -0.600  0.00  0.00    +0.000 C 
BRANCH  11  12
ATOM     12  C   UNL     1       3.934   2.641  -1.485  0.00  0.00    +0.000 A 
ATOM     13  C   UNL     1       5.289   2.371  -1.611  0.00  0.00    +0.000 A 
ATOM     14  S   UNL     1       6.084   3.386  -2.728  0.00  0.00    +0.000 S 
ATOM     15  C   UNL     1       4.648   4.239  -3.061  0.00  0.00    +0.000 A 
ATOM     16  N   UNL     1       4.631   5.263  -3.960  0.00  0.00    +0.000 NA
ATOM     17  C   UNL     1       3.478   5.820  -4.105  0.00  0.00    +0.000 A 
ATOM     18  N   UNL     1       2.336   5.454  -3.431  0.00  0.00    +0.000 N 
ATOM     19  C   UNL     1       2.306   4.429  -2.511  0.00  0.00    +0.000 A 
ATOM     20  O   UNL     1       1.272   4.146  -1.914  0.00  0.00    +0.000 OA
ATOM     21  C   UNL     1       3.579   3.763  -2.326  0.00  0.00    +0.000 A 
ATOM     22  H   UNL     1       1.469   5.944  -3.582  0.00  0.00    +0.000 HD
ENDBRANCH  11  12
ENDBRANCH   8  11
ENDBRANCH   7   8
ENDBRANCH   1   7
BRANCH   4  23
ATOM     23  C   UNL     1       4.180   2.219   7.313  0.00  0.00    +0.000 C 
BRANCH  23  24
ATOM     24  N   UNL     1       3.185   2.988   8.054  0.00  0.00    +0.000 NA
ATOM     25  H   UNL     1       2.306   2.467   8.021  0.00  0.00    +0.000 HD
BRANCH  24  26
ATOM     26  CA  UNL     1       3.529   3.200   9.478  0.00  0.00    +0.000 C 
BRANCH  26  27
ATOM     27  C   UNL     1       2.388   3.916  10.216  0.00  0.00    +0.000 A 
ATOM     28  C   UNL     1       1.544   4.817   9.562  0.00  0.00    +0.000 A 
ATOM     29  C   UNL     1       0.523   5.432  10.281  0.00  0.00    +0.000 A 
ATOM     30  C   UNL     1       0.377   5.153  11.634  0.00  0.00    +0.000 A 
ATOM     31  C   UNL     1       1.269   4.272  12.218  0.00  0.00    +0.000 A 
ATOM     32  N   UNL     1       2.272   3.660  11.547  0.00  0.00    +0.000 NA
ENDBRANCH  26  27
BRANCH  26  33
ATOM     33  C   UNL     1       4.839   4.001   9.709  0.00  0.00    +0.000 C 
BRANCH  33  34
ATOM     34  O   UNL     1       5.199   4.111  11.090  0.00  0.00    +0.000 OA
ATOM     35  H   UNL     1       4.380   4.310  11.588  0.00  0.00    +0.000 HD
ENDBRANCH  33  34
ENDBRANCH  26  33
ENDBRANCH  24  26
ENDBRANCH  23  24
ENDBRANCH   4  23
TORSDOF 10
