REMARK  Name = 
REMARK  6 active torsions:
REMARK  status: ('A' for Active; 'I' for Inactive)
REMARK    1  A    between atoms: C_2  and  C_4
REMARK    2  A    between atoms: N_8  and  C_9
REMARK    3  A    between atoms: C_9  and  C_10
REMARK    4  A    between atoms: C_10  and  C_11
REMARK    5  A    between atoms: C_15  and  O_16
REMARK    6  A    between atoms: O_16  and  C_17
REMARK                            x       y       z     vdW  Elec       q    Type
REMARK                         _______ _______ _______ _____ _____    ______ ____
ROOT
ATOM      1  C   UNL     1       5.153  -5.773   0.899  0.00  0.00    +0.000 C 
ENDROOT
BRANCH   1   6
ATOM      2  C   UNL     1       3.066  -1.155   0.490  0.00  0.00    +0.000 A 
ATOM      3  C   UNL     1       2.450  -2.401   0.517  0.00  0.00    +0.000 A 
ATOM      4  C   UNL     1       3.208  -3.529   0.835  0.00  0.00    +0.000 A 
ATOM      5  C   UNL     1       4.569  -3.399   1.096  0.00  0.00    +0.000 A 
ATOM      6  N   UNL     1       5.367  -4.460   1.498  0.00  0.00    +0.000 N 
ATOM      7  N   UNL     1       5.185  -2.198   1.039  0.00  0.00    +0.000 NA
ATOM      8  C   UNL     1       4.429  -1.108   0.737  0.00  0.00    +0.000 A 
ATOM      9  H   UNL     1       6.327  -4.120   1.486  0.00  0.00    +0.000 HD
BRANCH   2  11
ATOM     10  N   UNL     1       0.999   0.119   0.520  0.00  0.00    +0.000 N 
ATOM     11  C   UNL     1       2.333   0.098   0.214  0.00  0.00    +0.000 C 
ATOM     12  O   UNL     1       2.896   1.088  -0.232  0.00  0.00    +0.000 OA
ATOM     13  H   UNL     1       0.529   1.013   0.433  0.00  0.00    +0.000 HD
ATOM     14  H   UNL     1       0.566  -0.574   1.115  0.00  0.00    +0.000 HD
ENDBRANCH   2  11
ENDBRANCH   1   6
BRANCH   1  15
ATOM     15  C   UNL     1       6.202  -6.769   1.409  0.00  0.00    +0.000 C 
BRANCH  15  16
ATOM     16  C   UNL     1       5.993  -8.162   0.859  0.00  0.00    +0.000 A 
ATOM     17  C   UNL     1       6.573  -8.537  -0.359  0.00  0.00    +0.000 A 
ATOM     18  C   UNL     1       6.392  -9.829  -0.858  0.00  0.00    +0.000 A 
ATOM     19  C   UNL     1       5.621 -10.758  -0.156  0.00  0.00    +0.000 A 
ATOM     20  C   UNL     1       5.021 -10.391   1.046  0.00  0.00    +0.000 A 
ATOM     21  C   UNL     1       5.212  -9.100   1.552  0.00  0.00    +0.000 A 
BRANCH  20  22
ATOM     22  O   UNL     1       4.261 -11.228   1.825  0.00  0.00    +0.000 OA
BRANCH  22  23
ATOM     23  C   UNL     1       3.625 -12.371   1.204  0.00  0.00    +0.000 C 
ATOM     24  C   UNL     1       2.457 -12.100   0.232  0.00  0.00    +0.000 C 
ATOM     25  N   UNL     1       1.642 -13.118   0.919  0.00  0.00    +0.000 NA
ATOM     26  C   UNL     1       2.563 -13.082   2.069  0.00  0.00    +0.000 C 
ATOM     27  H   UNL     1       1.615 -14.019   0.442  0.00  0.00    +0.000 HD
ENDBRANCH  22  23
ENDBRANCH  20  22
ENDBRANCH  15  16
ENDBRANCH   1  15
TORSDOF 6
