REMARK  Name = 
REMARK  4 active torsions:
REMARK  status: ('A' for Active; 'I' for Inactive)
REMARK    1  A    between atoms: C_2  and  C_4
REMARK    2  A    between atoms: C_7  and  S_8
REMARK    3  A    between atoms: S_8  and  C_9
REMARK    4  A    between atoms: C_9  and  C_10
REMARK                            x       y       z     vdW  Elec       q    Type
REMARK                         _______ _______ _______ _____ _____    ______ ____
ROOT
ATOM      1  C   UNL     1       3.311   1.092   0.575  0.00  0.00    +0.000 A 
ATOM      2  C   UNL     1       2.583   2.092   1.207  0.00  0.00    +0.000 A 
ATOM      3  C   UNL     1       3.243   3.266   1.577  0.00  0.00    +0.000 A 
ATOM      4  C   UNL     1       4.605   3.414   1.314  0.00  0.00    +0.000 A 
ATOM      5  C   UNL     1       5.240   2.352   0.664  0.00  0.00    +0.000 A 
ATOM      6  N   UNL     1       4.638   1.192   0.294  0.00  0.00    +0.000 NA
ENDROOT
BRANCH   1   8
ATOM      7  N   UNL     1       3.431  -1.121  -0.411  0.00  0.00    +0.000 N 
ATOM      8  C   UNL     1       2.627  -0.176   0.164  0.00  0.00    +0.000 C 
ATOM      9  O   UNL     1       1.428  -0.363   0.332  0.00  0.00    +0.000 OA
ATOM     10  H   UNL     1       3.037  -2.001  -0.708  0.00  0.00    +0.000 HD
ATOM     11  H   UNL     1       4.421  -0.932  -0.532  0.00  0.00    +0.000 HD
ENDBRANCH   1   8
BRANCH   4  12
ATOM     12  S   UNL     1       5.548   4.883   1.678  0.00  0.00    +0.000 S 
BRANCH  12  13
ATOM     13  C   UNL     1       4.753   5.513   3.197  0.00  0.00    +0.000 C 
BRANCH  13  14
ATOM     14  C   UNL     1       5.461   6.745   3.713  0.00  0.00    +0.000 A 
ATOM     15  C   UNL     1       5.088   8.020   3.257  0.00  0.00    +0.000 A 
ATOM     16  C   UNL     1       5.746   9.162   3.723  0.00  0.00    +0.000 A 
ATOM     17  C   UNL     1       6.782   9.036   4.645  0.00  0.00    +0.000 A 
ATOM     18 CL   UNL     1       7.591  10.442   5.219  0.00  0.00    +0.000 Cl
ATOM     19  C   UNL     1       7.169   7.778   5.102  0.00  0.00    +0.000 A 
ATOM     20  C   UNL     1       6.513   6.636   4.635  0.00  0.00    +0.000 A 
ENDBRANCH  13  14
ENDBRANCH  12  13
ENDBRANCH   4  12
TORSDOF 4
