REMARK  Name = 
REMARK  5 active torsions:
REMARK  status: ('A' for Active; 'I' for Inactive)
REMARK    1  A    between atoms: N_1  and  C_2
REMARK    2  A    between atoms: C_2  and  C_3
REMARK    3  A    between atoms: C_6  and  C_7
REMARK    4  A    between atoms: C_7  and  N_8
REMARK    5  A    between atoms: C_13  and  C_14
REMARK                            x       y       z     vdW  Elec       q    Type
REMARK                         _______ _______ _______ _____ _____    ______ ____
ROOT
ATOM      1  N   UNL     1       5.892   4.536   1.403  0.00  0.00    +0.000 N 
ATOM      2  C   UNL     1       6.602   5.564   0.830  0.00  0.00    +0.000 A 
ATOM      3  C   UNL     1       7.918   5.432   1.202  0.00  0.00    +0.000 A 
ATOM      4  C   UNL     1       7.994   4.374   2.143  0.00  0.00    +0.000 A 
ATOM      5  C   UNL     1       9.051   3.835   2.904  0.00  0.00    +0.000 A 
ATOM      6  C   UNL     1       8.786   2.807   3.816  0.00  0.00    +0.000 A 
ATOM      7  C   UNL     1       7.497   2.279   3.928  0.00  0.00    +0.000 A 
ATOM      8  C   UNL     1       6.443   2.775   3.157  0.00  0.00    +0.000 A 
ATOM      9  C   UNL     1       6.707   3.836   2.276  0.00  0.00    +0.000 A 
ENDROOT
BRANCH   6  10
ATOM     10  C   UNL     1       9.856   2.242   4.678  0.00  0.00    +0.000 C 
ATOM     11  N   UNL     1      10.901   3.064   5.004  0.00  0.00    +0.000 N 
ATOM     12  O   UNL     1       9.797   1.101   5.111  0.00  0.00    +0.000 OA
ATOM     13  H   UNL     1      10.895   4.061   4.834  0.00  0.00    +0.000 HD
ATOM     14  H   UNL     1      11.570   2.703   5.674  0.00  0.00    +0.000 HD
ENDBRANCH   6  10
BRANCH   1  15
ATOM     15  C   UNL     1       4.488   4.254   1.122  0.00  0.00    +0.000 C 
BRANCH  15  19
ATOM     16  C   UNL     1       2.895   1.226  -0.734  0.00  0.00    +0.000 C 
ATOM     17  C   UNL     1       4.391   1.393  -0.407  0.00  0.00    +0.000 C 
ATOM     18  C   UNL     1       4.966   2.725  -0.892  0.00  0.00    +0.000 C 
ATOM     19  C   UNL     1       4.193   3.947  -0.367  0.00  0.00    +0.000 C 
ATOM     20  C   UNL     1       2.682   3.787  -0.620  0.00  0.00    +0.000 C 
ATOM     21  C   UNL     1       2.115   2.434  -0.191  0.00  0.00    +0.000 C 
BRANCH  16  22
ATOM     22  C   UNL     1       2.699   0.934  -2.241  0.00  0.00    +0.000 C 
BRANCH  22  23
ATOM     23  N   UNL     1       1.304   0.726  -2.623  0.00  0.00    +0.000 NA
ATOM     24  H   UNL     1       1.260   0.495  -3.621  0.00  0.00    +0.000 HD
ATOM     25  H   UNL     1       0.781   1.591  -2.514  0.00  0.00    +0.000 HD
ENDBRANCH  22  23
ENDBRANCH  16  22
ENDBRANCH  15  19
ENDBRANCH   1  15
TORSDOF 5
