REMARK  Name = 
REMARK  4 active torsions:
REMARK  status: ('A' for Active; 'I' for Inactive)
REMARK    1  A    between atoms: C_2  and  C_4
REMARK    2  A    between atoms: C_7  and  N_8
REMARK    3  A    between atoms: N_8  and  C_9
REMARK    4  A    between atoms: C_9  and  C_10
REMARK                            x       y       z     vdW  Elec       q    Type
REMARK                         _______ _______ _______ _____ _____    ______ ____
ROOT
ATOM      1  C   UNL     1       7.552  -1.773  -1.879  0.00  0.00    +0.000 A 
ATOM      2  C   UNL     1       6.500  -1.387  -1.040  0.00  0.00    +0.000 A 
ATOM      3  C   UNL     1       5.714  -2.355  -0.400  0.00  0.00    +0.000 A 
ATOM      4  C   UNL     1       5.951  -3.724  -0.583  0.00  0.00    +0.000 A 
ATOM      5  C   UNL     1       7.028  -4.095  -1.394  0.00  0.00    +0.000 A 
ATOM      6  C   UNL     1       7.807  -3.133  -2.040  0.00  0.00    +0.000 A 
ATOM      7  F   UNL     1       8.802  -3.563  -2.833  0.00  0.00    +0.000 F 
ENDROOT
BRANCH   1   9
ATOM      8  N   UNL     1       9.357  -1.088  -3.388  0.00  0.00    +0.000 N 
ATOM      9  C   UNL     1       8.341  -0.713  -2.560  0.00  0.00    +0.000 C 
ATOM     10  O   UNL     1       8.087   0.475  -2.394  0.00  0.00    +0.000 OA
ATOM     11  H   UNL     1       9.887  -0.362  -3.852  0.00  0.00    +0.000 HD
ATOM     12  H   UNL     1       9.604  -2.055  -3.561  0.00  0.00    +0.000 HD
ENDBRANCH   1   9
BRANCH   4  13
ATOM     13  N   UNL     1       5.103  -4.662   0.034  0.00  0.00    +0.000 N 
ATOM     14  H   UNL     1       4.369  -4.264   0.610  0.00  0.00    +0.000 HD
BRANCH  13  15
ATOM     15  C   UNL     1       4.912  -6.048  -0.438  0.00  0.00    +0.000 C 
ATOM     16  C   UNL     1       4.822  -6.344  -1.929  0.00  0.00    +0.000 C 
ATOM     17  C   UNL     1       3.581  -6.397  -1.108  0.00  0.00    +0.000 C 
BRANCH  15  18
ATOM     18  C   UNL     1       5.404  -7.122   0.530  0.00  0.00    +0.000 A 
ATOM     19  C   UNL     1       4.659  -7.453   1.679  0.00  0.00    +0.000 A 
ATOM     20  C   UNL     1       4.997  -8.544   2.483  0.00  0.00    +0.000 A 
ATOM     21  C   UNL     1       6.106  -9.322   2.163  0.00  0.00    +0.000 A 
ATOM     22  C   UNL     1       6.894  -8.983   1.068  0.00  0.00    +0.000 A 
ATOM     23  C   UNL     1       6.553  -7.887   0.269  0.00  0.00    +0.000 A 
ENDBRANCH  15  18
ENDBRANCH  13  15
ENDBRANCH   4  13
TORSDOF 4
