REMARK  Name = 
REMARK  8 active torsions:
REMARK  status: ('A' for Active; 'I' for Inactive)
REMARK    1  A    between atoms: N_1  and  C_2
REMARK    2  A    between atoms: C_2  and  C_3
REMARK    3  A    between atoms: C_3  and  N_4
REMARK    4  A    between atoms: C_3  and  C_17
REMARK    5  A    between atoms: C_5  and  C_7
REMARK    6  A    between atoms: C_20  and  O_21
REMARK    7  A    between atoms: O_21  and  C_22
REMARK    8  A    between atoms: C_22  and  C_23
REMARK                            x       y       z     vdW  Elec       q    Type
REMARK                         _______ _______ _______ _____ _____    ______ ____
ROOT
ATOM      1  C   UNL     1       2.823  -0.014  -1.421  0.00  0.00    +0.000 C 
ENDROOT
BRANCH   1   2
ATOM      2  C   UNL     1       4.347   0.042  -1.442  0.00  0.00    +0.000 A 
ATOM      3  C   UNL     1       5.085  -0.935  -2.124  0.00  0.00    +0.000 A 
ATOM      4  C   UNL     1       6.476  -0.836  -2.215  0.00  0.00    +0.000 A 
ATOM      5  C   UNL     1       7.145   0.247  -1.644  0.00  0.00    +0.000 A 
ATOM      6  C   UNL     1       6.426   1.192  -0.914  0.00  0.00    +0.000 A 
ATOM      7  C   UNL     1       5.038   1.097  -0.825  0.00  0.00    +0.000 A 
BRANCH   5   8
ATOM      8  O   UNL     1       8.496   0.301  -1.867  0.00  0.00    +0.000 OA
BRANCH   8   9
ATOM      9  C   UNL     1       9.060   1.618  -1.787  0.00  0.00    +0.000 C 
BRANCH   9  10
ATOM     10  C   UNL     1      10.368   1.707  -2.532  0.00  0.00    +0.000 A 
ATOM     11  C   UNL     1      11.267   0.646  -2.550  0.00  0.00    +0.000 A 
ATOM     12  C   UNL     1      12.469   0.797  -3.229  0.00  0.00    +0.000 A 
ATOM     13  C   UNL     1      12.756   2.000  -3.863  0.00  0.00    +0.000 A 
ATOM     14  C   UNL     1      11.820   3.012  -3.787  0.00  0.00    +0.000 A 
ATOM     15  N   UNL     1      10.644   2.899  -3.131  0.00  0.00    +0.000 NA
ENDBRANCH   9  10
ENDBRANCH   8   9
ENDBRANCH   5   8
ENDBRANCH   1   2
BRANCH   1  16
ATOM     16  N   UNL     1       2.317   1.128  -2.173  0.00  0.00    +0.000 N 
ATOM     17  C   UNL     1       1.117   1.139  -2.827  0.00  0.00    +0.000 C 
ATOM     18  O   UNL     1       0.329   0.202  -2.772  0.00  0.00    +0.000 OA
ATOM     19  H   UNL     1       2.973   1.884  -2.339  0.00  0.00    +0.000 HD
BRANCH  17  20
ATOM     20  C   UNL     1       0.800   2.370  -3.567  0.00  0.00    +0.000 A 
ATOM     21  C   UNL     1      -0.521   2.705  -3.823  0.00  0.00    +0.000 A 
ATOM     22  S   UNL     1      -0.703   4.167  -4.684  0.00  0.00    +0.000 S 
ATOM     23  C   UNL     1       0.983   4.379  -4.789  0.00  0.00    +0.000 A 
ATOM     24  N   UNL     1       1.515   5.438  -5.451  0.00  0.00    +0.000 NA
ATOM     25  C   UNL     1       2.808   5.450  -5.498  0.00  0.00    +0.000 A 
ATOM     26  N   UNL     1       3.613   4.503  -4.921  0.00  0.00    +0.000 N 
ATOM     27  C   UNL     1       3.121   3.468  -4.167  0.00  0.00    +0.000 A 
ATOM     28  O   UNL     1       3.868   2.739  -3.526  0.00  0.00    +0.000 OA
ATOM     29  C   UNL     1       1.674   3.371  -4.138  0.00  0.00    +0.000 A 
ATOM     30  H   UNL     1       4.618   4.591  -4.953  0.00  0.00    +0.000 HD
ENDBRANCH  17  20
ENDBRANCH   1  16
BRANCH   1  31
ATOM     31  C   UNL     1       2.259  -0.026   0.030  0.00  0.00    +0.000 C 
BRANCH  31  32
ATOM     32  N   UNL     1       2.745  -1.138   0.860  0.00  0.00    +0.000 NA
ATOM     33  H   UNL     1       2.515  -0.951   1.835  0.00  0.00    +0.000 HD
ATOM     34  H   UNL     1       3.764  -1.180   0.811  0.00  0.00    +0.000 HD
ENDBRANCH  31  32
ENDBRANCH   1  31
TORSDOF 8
