REMARK  Name = 
REMARK  5 active torsions:
REMARK  status: ('A' for Active; 'I' for Inactive)
REMARK    1  A    between atoms: N_1  and  C_2
REMARK    2  A    between atoms: C_2  and  C_3
REMARK    3  A    between atoms: C_6  and  O_7
REMARK    4  A    between atoms: O_7  and  C_8
REMARK    5  A    between atoms: C_8  and  C_9
REMARK                            x       y       z     vdW  Elec       q    Type
REMARK                         _______ _______ _______ _____ _____    ______ ____
ROOT
ATOM      1  C   UNL     1       2.876  -1.175   0.542  0.00  0.00    +0.000 A 
ATOM      2  C   UNL     1       3.441  -1.199   1.827  0.00  0.00    +0.000 A 
ATOM      3  C   UNL     1       3.724  -2.414   2.453  0.00  0.00    +0.000 A 
ATOM      4  C   UNL     1       3.431  -3.619   1.814  0.00  0.00    +0.000 A 
ATOM      5  C   UNL     1       2.928  -3.603   0.513  0.00  0.00    +0.000 A 
ATOM      6  C   UNL     1       2.640  -2.390  -0.114  0.00  0.00    +0.000 A 
ENDROOT
BRANCH   1   7
ATOM      7  C   UNL     1       2.495   0.127  -0.117  0.00  0.00    +0.000 C 
BRANCH   7   8
ATOM      8  N   UNL     1       3.649   0.993  -0.308  0.00  0.00    +0.000 NA
ATOM      9  H   UNL     1       3.377   1.778  -0.897  0.00  0.00    +0.000 HD
ATOM     10  H   UNL     1       4.361   0.479  -0.826  0.00  0.00    +0.000 HD
ENDBRANCH   7   8
ENDBRANCH   1   7
BRANCH   4  11
ATOM     11  O   UNL     1       3.661  -4.753   2.547  0.00  0.00    +0.000 OA
BRANCH  11  12
ATOM     12  C   UNL     1       2.904  -5.896   2.133  0.00  0.00    +0.000 C 
BRANCH  12  13
ATOM     13  C   UNL     1       2.777  -6.888   3.264  0.00  0.00    +0.000 A 
ATOM     14  C   UNL     1       2.240  -6.487   4.487  0.00  0.00    +0.000 A 
ATOM     15  C   UNL     1       2.063  -7.437   5.488  0.00  0.00    +0.000 A 
ATOM     16  C   UNL     1       2.426  -8.755   5.244  0.00  0.00    +0.000 A 
ATOM     17  C   UNL     1       2.948  -9.073   4.002  0.00  0.00    +0.000 A 
ATOM     18  N   UNL     1       3.123  -8.176   3.008  0.00  0.00    +0.000 NA
ENDBRANCH  12  13
ENDBRANCH  11  12
ENDBRANCH   4  11
TORSDOF 5
