REMARK  Name = 
REMARK  7 active torsions:
REMARK  status: ('A' for Active; 'I' for Inactive)
REMARK    1  A    between atoms: C_1  and  C_2
REMARK    2  A    between atoms: C_5  and  C_6
REMARK    3  A    between atoms: C_10  and  C_11
REMARK    4  A    between atoms: C_11  and  C_12
REMARK    5  A    between atoms: C_11  and  C_13
REMARK    6  A    between atoms: C_13  and  N_14
REMARK    7  A    between atoms: C_18  and  C_19
REMARK                            x       y       z     vdW  Elec       q    Type
REMARK                         _______ _______ _______ _____ _____    ______ ____
ROOT
ATOM      1  C   UNL     1       6.072   1.675   1.619  0.00  0.00    +0.000 C 
ATOM      2  C   UNL     1       5.985   1.205   3.081  0.00  0.00    +0.000 C 
ENDROOT
BRANCH   1   7
ATOM      3  C   UNL     1       5.299  -0.998  -1.079  0.00  0.00    +0.000 A 
ATOM      4  C   UNL     1       3.914  -1.133  -0.894  0.00  0.00    +0.000 A 
ATOM      5  C   UNL     1       3.236  -0.374   0.063  0.00  0.00    +0.000 A 
ATOM      6  C   UNL     1       3.930   0.539   0.858  0.00  0.00    +0.000 A 
ATOM      7  C   UNL     1       5.316   0.700   0.718  0.00  0.00    +0.000 A 
ATOM      8  C   UNL     1       5.968  -0.071  -0.257  0.00  0.00    +0.000 A 
BRANCH   3  13
ATOM      9  C   UNL     1       8.270  -4.247  -4.665  0.00  0.00    +0.000 C 
ATOM     10  C   UNL     1       7.475  -3.367  -3.765  0.00  0.00    +0.000 A 
ATOM     11  C   UNL     1       6.106  -3.461  -3.636  0.00  0.00    +0.000 A 
ATOM     12  N   UNL     1       5.371  -2.699  -2.803  0.00  0.00    +0.000 NA
ATOM     13  C   UNL     1       6.049  -1.800  -2.064  0.00  0.00    +0.000 A 
ATOM     14  N   UNL     1       7.384  -1.617  -2.132  0.00  0.00    +0.000 NA
ATOM     15  C   UNL     1       8.066  -2.404  -2.980  0.00  0.00    +0.000 A 
ENDBRANCH   3  13
ENDBRANCH   1   7
BRANCH   1  16
ATOM     16  C   UNL     1       7.569   1.898   1.278  0.00  0.00    +0.000 C 
BRANCH  16  17
ATOM     17  N   UNL     1       7.750   2.492  -0.055  0.00  0.00    +0.000 N 
ATOM     18  C   UNL     1       9.093   2.646  -0.430  0.00  0.00    +0.000 A 
ATOM     19  C   UNL     1       9.424   3.159  -1.694  0.00  0.00    +0.000 A 
ATOM     20  N   UNL     1      10.699   3.359  -2.132  0.00  0.00    +0.000 NA
ATOM     21  C   UNL     1      11.657   2.989  -1.240  0.00  0.00    +0.000 A 
ATOM     22  C   UNL     1      11.351   2.448  -0.003  0.00  0.00    +0.000 A 
ATOM     23  N   UNL     1      10.075   2.269   0.418  0.00  0.00    +0.000 NA
ATOM     24  H   UNL     1       7.242   3.363  -0.172  0.00  0.00    +0.000 HD
BRANCH  21  25
ATOM     25  C   UNL     1      13.085   3.200  -1.602  0.00  0.00    +0.000 C 
ATOM     26  N   UNL     1      13.320   3.752  -2.831  0.00  0.00    +0.000 N 
ATOM     27  O   UNL     1      14.001   2.909  -0.845  0.00  0.00    +0.000 OA
ATOM     28  H   UNL     1      12.543   4.001  -3.437  0.00  0.00    +0.000 HD
ATOM     29  H   UNL     1      14.269   3.941  -3.113  0.00  0.00    +0.000 HD
ENDBRANCH  21  25
ENDBRANCH  16  17
ENDBRANCH   1  16
TORSDOF 5
