REMARK  Name = 
REMARK  5 active torsions:
REMARK  status: ('A' for Active; 'I' for Inactive)
REMARK    1  A    between atoms: C_2  and  C_3
REMARK    2  A    between atoms: N_7  and  C_8
REMARK    3  A    between atoms: C_8  and  C_9
REMARK    4  A    between atoms: C_13  and  C_14
REMARK    5  A    between atoms: C_24  and  N_25
REMARK                            x       y       z     vdW  Elec       q    Type
REMARK                         _______ _______ _______ _____ _____    ______ ____
ROOT
ATOM      1  C   UNL     1       8.724  -0.968  -0.003  0.00  0.00    +0.000 C 
ATOM      2  C   UNL     1       9.135  -2.050  -0.994  0.00  0.00    +0.000 C 
ATOM      3  C   UNL     1       8.718  -2.430   0.388  0.00  0.00    +0.000 C 
ENDROOT
BRANCH   1   8
ATOM      4  C   UNL     1       4.305   1.099   1.645  0.00  0.00    +0.000 A 
ATOM      5  N   UNL     1       4.858  -0.059   2.100  0.00  0.00    +0.000 NA
ATOM      6  C   UNL     1       5.970  -0.463   1.434  0.00  0.00    +0.000 A 
ATOM      7  C   UNL     1       6.518   0.245   0.371  0.00  0.00    +0.000 A 
ATOM      8  N   UNL     1       7.539  -0.222  -0.452  0.00  0.00    +0.000 N 
ATOM      9  N   UNL     1       5.976   1.422  -0.026  0.00  0.00    +0.000 NA
ATOM     10  C   UNL     1       4.871   1.855   0.616  0.00  0.00    +0.000 A 
ATOM     11  H   UNL     1       7.740   0.546  -1.093  0.00  0.00    +0.000 HD
BRANCH  10  12
ATOM     12  N   UNL     1       4.326   3.030   0.103  0.00  0.00    +0.000 N 
ATOM     13  H   UNL     1       4.971   3.396  -0.592  0.00  0.00    +0.000 HD
ATOM     14  H   UNL     1       4.090   3.725   0.807  0.00  0.00    +0.000 HD
ENDBRANCH  10  12
BRANCH   4  16
ATOM     15  N   UNL     1       2.091   1.859   2.768  0.00  0.00    +0.000 NA
ATOM     16  C   UNL     1       3.082   1.500   2.269  0.00  0.00    +0.000 C 
ENDBRANCH   4  16
ENDBRANCH   1   8
BRANCH   1  17
ATOM     17  C   UNL     1       9.791  -0.056   0.589  0.00  0.00    +0.000 A 
ATOM     18  C   UNL     1       9.979   0.064   1.975  0.00  0.00    +0.000 A 
ATOM     19  C   UNL     1      10.841   1.024   2.505  0.00  0.00    +0.000 A 
ATOM     20  C   UNL     1      11.516   1.902   1.657  0.00  0.00    +0.000 A 
ATOM     21  C   UNL     1      11.364   1.823   0.263  0.00  0.00    +0.000 A 
ATOM     22  C   UNL     1      10.531   0.808  -0.242  0.00  0.00    +0.000 A 
BRANCH  21  23
ATOM     23  C   UNL     1      11.986   2.801  -0.650  0.00  0.00    +0.000 A 
ATOM     24  C   UNL     1      12.090   4.155  -0.327  0.00  0.00    +0.000 A 
ATOM     25  C   UNL     1      12.653   5.037  -1.246  0.00  0.00    +0.000 A 
ATOM     26  C   UNL     1      13.097   4.551  -2.467  0.00  0.00    +0.000 A 
ATOM     27  C   UNL     1      12.948   3.199  -2.722  0.00  0.00    +0.000 A 
ATOM     28  N   UNL     1      12.402   2.322  -1.850  0.00  0.00    +0.000 NA
ENDBRANCH  21  23
ENDBRANCH   1  17
TORSDOF 5
