REMARK  Name = 
REMARK  10 active torsions:
REMARK  status: ('A' for Active; 'I' for Inactive)
REMARK    1  A    between atoms: C_1  and  C_2
REMARK    2  A    between atoms: C_2  and  C_3
REMARK    3  A    between atoms: C_3  and  N_4
REMARK    4  A    between atoms: C_3  and  C_20
REMARK    5  A    between atoms: N_4  and  C_5
REMARK    6  A    between atoms: C_5  and  C_6
REMARK    7  A    between atoms: C_9  and  C_10
REMARK    8  A    between atoms: C_10  and  N_11
REMARK    9  A    between atoms: N_11  and  C_12
REMARK   10  A    between atoms: C_12  and  C_13
REMARK                            x       y       z     vdW  Elec       q    Type
REMARK                         _______ _______ _______ _____ _____    ______ ____
ROOT
ATOM      1  C   UNL     1      -6.460   3.160   2.739  0.00  0.00    +0.000 C 
ENDROOT
BRANCH   1   2
ATOM      2  C   UNL     1      -5.800   2.636   3.982  0.00  0.00    +0.000 A 
ATOM      3  C   UNL     1      -4.666   1.827   3.923  0.00  0.00    +0.000 A 
ATOM      4  C   UNL     1      -4.122   1.319   5.099  0.00  0.00    +0.000 A 
ATOM      5  C   UNL     1      -4.733   1.631   6.312  0.00  0.00    +0.000 A 
ATOM      6  N   UNL     1      -5.840   2.412   6.395  0.00  0.00    +0.000 NA
ATOM      7  C   UNL     1      -6.342   2.894   5.237  0.00  0.00    +0.000 A 
BRANCH   5   8
ATOM      8  C   UNL     1      -4.214   1.030   7.604  0.00  0.00    +0.000 C 
BRANCH   8   9
ATOM      9  N   UNL     1      -5.217   0.235   8.335  0.00  0.00    +0.000 NA
ATOM     10  H   UNL     1      -6.014   0.859   8.495  0.00  0.00    +0.000 HD
BRANCH   9  11
ATOM     11  C   UNL     1      -5.695  -0.908   7.539  0.00  0.00    +0.000 C 
BRANCH  11  12
ATOM     12  C   UNL     1      -6.734  -1.733   8.339  0.00  0.00    +0.000 C 
ATOM     13  C   UNL     1      -7.221  -2.955   7.580  0.00  0.00    +0.000 C 
ATOM     14  C   UNL     1      -6.140  -3.986   7.841  0.00  0.00    +0.000 C 
ATOM     15  C   UNL     1      -5.561  -3.600   9.197  0.00  0.00    +0.000 C 
ATOM     16  N   UNL     1      -6.158  -2.314   9.564  0.00  0.00    +0.000 NA
ATOM     17  H   UNL     1      -5.443  -1.669   9.912  0.00  0.00    +0.000 HD
ENDBRANCH  11  12
ENDBRANCH   9  11
ENDBRANCH   8   9
ENDBRANCH   5   8
ENDBRANCH   1   2
BRANCH   1  18
ATOM     18  N   UNL     1      -6.544   4.618   2.755  0.00  0.00    +0.000 NA
ATOM     19  H   UNL     1      -5.598   4.994   2.847  0.00  0.00    +0.000 HD
BRANCH  18  20
ATOM     20  C   UNL     1      -7.143   5.180   1.532  0.00  0.00    +0.000 C 
BRANCH  20  21
ATOM     21  C   UNL     1      -7.128   6.690   1.713  0.00  0.00    +0.000 A 
ATOM     22  C   UNL     1      -7.728   7.353   2.775  0.00  0.00    +0.000 A 
ATOM     23  S   UNL     1      -7.566   9.049   2.698  0.00  0.00    +0.000 S 
ATOM     24  C   UNL     1      -6.673   8.957   1.253  0.00  0.00    +0.000 A 
ATOM     25  N   UNL     1      -6.205  10.080   0.642  0.00  0.00    +0.000 NA
ATOM     26  C   UNL     1      -5.542   9.857  -0.443  0.00  0.00    +0.000 A 
ATOM     27  N   UNL     1      -5.311   8.616  -0.981  0.00  0.00    +0.000 N 
ATOM     28  C   UNL     1      -5.779   7.451  -0.413  0.00  0.00    +0.000 A 
ATOM     29  O   UNL     1      -5.582   6.361  -0.936  0.00  0.00    +0.000 OA
ATOM     30  C   UNL     1      -6.513   7.652   0.826  0.00  0.00    +0.000 A 
ATOM     31  H   UNL     1      -4.797   8.513  -1.839  0.00  0.00    +0.000 HD
ENDBRANCH  20  21
BRANCH  20  33
ATOM     32  C   UNL     1      -9.209   5.183   0.011  0.00  0.00    +0.000 C 
ATOM     33  C   UNL     1      -8.571   4.646   1.284  0.00  0.00    +0.000 C 
ENDBRANCH  20  33
ENDBRANCH  18  20
ENDBRANCH   1  18
TORSDOF 9
