REMARK  Name = 
REMARK  10 active torsions:
REMARK  status: ('A' for Active; 'I' for Inactive)
REMARK    1  A    between atoms: C_1  and  C_2
REMARK    2  A    between atoms: C_2  and  N_3
REMARK    3  A    between atoms: C_2  and  C_20
REMARK    4  A    between atoms: N_3  and  C_4
REMARK    5  A    between atoms: C_4  and  C_5
REMARK    6  A    between atoms: C_8  and  C_9
REMARK    7  A    between atoms: C_9  and  O_10
REMARK    8  A    between atoms: C_9  and  C_11
REMARK    9  A    between atoms: C_11  and  N_12
REMARK   10  A    between atoms: N_12  and  C_13
REMARK                            x       y       z     vdW  Elec       q    Type
REMARK                         _______ _______ _______ _____ _____    ______ ____
ROOT
ATOM      1  C   UNL     1     -11.841   4.152  -1.590  0.00  0.00    +0.000 A 
ATOM      2  C   UNL     1     -10.532   3.794  -1.254  0.00  0.00    +0.000 A 
ATOM      3  C   UNL     1     -10.186   2.452  -1.163  0.00  0.00    +0.000 A 
ATOM      4  C   UNL     1     -11.158   1.490  -1.412  0.00  0.00    +0.000 A 
ATOM      5  N   UNL     1     -12.439   1.806  -1.744  0.00  0.00    +0.000 NA
ATOM      6  C   UNL     1     -12.742   3.119  -1.832  0.00  0.00    +0.000 A 
ENDROOT
BRANCH   1   7
ATOM      7  C   UNL     1     -12.296   5.580  -1.583  0.00  0.00    +0.000 C 
BRANCH   7   8
ATOM      8  N   UNL     1     -11.598   6.429  -2.550  0.00  0.00    +0.000 NA
ATOM      9  H   UNL     1     -11.655   5.990  -3.470  0.00  0.00    +0.000 HD
BRANCH   8  11
ATOM     10  C   UNL     1     -12.328   8.489  -1.300  0.00  0.00    +0.000 C 
ATOM     11  C   UNL     1     -12.233   7.758  -2.649  0.00  0.00    +0.000 C 
BRANCH  11  12
ATOM     12  C   UNL     1     -11.441   8.607  -3.625  0.00  0.00    +0.000 A 
ATOM     13  C   UNL     1     -10.068   8.802  -3.563  0.00  0.00    +0.000 A 
ATOM     14  S   UNL     1      -9.499   9.964  -4.678  0.00  0.00    +0.000 S 
ATOM     15  C   UNL     1     -11.068  10.246  -5.276  0.00  0.00    +0.000 A 
ATOM     16  N   UNL     1     -11.305  11.202  -6.215  0.00  0.00    +0.000 NA
ATOM     17  C   UNL     1     -12.546  11.313  -6.558  0.00  0.00    +0.000 A 
ATOM     18  N   UNL     1     -13.566  10.535  -6.071  0.00  0.00    +0.000 N 
ATOM     19  C   UNL     1     -13.370   9.527  -5.155  0.00  0.00    +0.000 A 
ATOM     20  O   UNL     1     -14.290   8.797  -4.800  0.00  0.00    +0.000 OA
ATOM     21  C   UNL     1     -12.001   9.415  -4.683  0.00  0.00    +0.000 A 
ATOM     22  H   UNL     1     -14.509  10.645  -6.415  0.00  0.00    +0.000 HD
ENDBRANCH  11  12
ENDBRANCH   8  11
ENDBRANCH   7   8
ENDBRANCH   1   7
BRANCH   4  23
ATOM     23  C   UNL     1     -10.833   0.014  -1.316  0.00  0.00    +0.000 C 
BRANCH  23  24
ATOM     24  O   UNL     1     -12.000  -0.700  -0.874  0.00  0.00    +0.000 OA
ATOM     25  H   UNL     1     -12.747  -0.101  -1.093  0.00  0.00    +0.000 HD
ENDBRANCH  23  24
BRANCH  23  26
ATOM     26  C   UNL     1     -10.410  -0.565  -2.682  0.00  0.00    +0.000 C 
BRANCH  26  27
ATOM     27  N   UNL     1      -9.141  -0.031  -3.188  0.00  0.00    +0.000 NA
ATOM     28  H   UNL     1      -8.389  -0.198  -2.529  0.00  0.00    +0.000 HD
BRANCH  27  29
ATOM     29  C   UNL     1      -8.781  -0.546  -4.494  0.00  0.00    +0.000 C 
ATOM     30  C   UNL     1      -7.539   0.139  -5.053  0.00  0.00    +0.000 C 
ATOM     31  C   UNL     1      -6.389  -0.515  -4.302  0.00  0.00    +0.000 C 
ATOM     32  C   UNL     1      -6.922  -1.889  -3.924  0.00  0.00    +0.000 C 
ATOM     33  N   UNL     1      -8.316  -1.910  -4.357  0.00  0.00    +0.000 NA
ATOM     34  H   UNL     1      -8.903  -2.454  -3.735  0.00  0.00    +0.000 HD
ENDBRANCH  27  29
ENDBRANCH  26  27
ENDBRANCH  23  26
ENDBRANCH   4  23
TORSDOF 9
