REMARK  Name = 
REMARK  4 active torsions:
REMARK  status: ('A' for Active; 'I' for Inactive)
REMARK    1  A    between atoms: C_2  and  C_3
REMARK    2  A    between atoms: N_7  and  C_8
REMARK    3  A    between atoms: C_8  and  C_9
REMARK    4  A    between atoms: C_13  and  N_14
REMARK                            x       y       z     vdW  Elec       q    Type
REMARK                         _______ _______ _______ _____ _____    ______ ____
ROOT
ATOM      1  C   UNL     1      -5.866   1.088  -0.191  0.00  0.00    +0.000 A 
ATOM      2  C   UNL     1      -6.734   2.174  -0.227  0.00  0.00    +0.000 A 
ATOM      3  N   UNL     1      -8.075   2.071  -0.289  0.00  0.00    +0.000 NA
ATOM      4  C   UNL     1      -8.577   0.813  -0.344  0.00  0.00    +0.000 A 
ATOM      5  C   UNL     1      -7.826  -0.367  -0.345  0.00  0.00    +0.000 A 
ATOM      6  C   UNL     1      -6.443  -0.190  -0.247  0.00  0.00    +0.000 A 
ENDROOT
BRANCH   5   7
ATOM      7  N   UNL     1      -8.413  -1.605  -0.514  0.00  0.00    +0.000 N 
ATOM      8  C   UNL     1      -7.665  -2.758  -1.039  0.00  0.00    +0.000 C 
ATOM      9  C   UNL     1      -8.638  -3.654  -1.827  0.00  0.00    +0.000 C 
ATOM     10  O   UNL     1      -9.769  -4.052  -1.031  0.00  0.00    +0.000 OA
ATOM     11  C   UNL     1     -10.483  -2.896  -0.557  0.00  0.00    +0.000 C 
ATOM     12  C   UNL     1      -9.579  -1.992   0.296  0.00  0.00    +0.000 C 
ENDBRANCH   5   7
BRANCH   1  13
ATOM     13  C   UNL     1      -4.387   1.347  -0.095  0.00  0.00    +0.000 C 
BRANCH  13  18
ATOM     14  C   UNL     1      -2.109  -1.995  -3.308  0.00  0.00    +0.000 A 
ATOM     15  C   UNL     1      -2.861  -0.859  -3.571  0.00  0.00    +0.000 A 
ATOM     16  C   UNL     1      -3.369  -0.113  -2.508  0.00  0.00    +0.000 A 
ATOM     17  C   UNL     1      -3.125  -0.521  -1.199  0.00  0.00    +0.000 A 
ATOM     18  N   UNL     1      -3.576   0.154  -0.101  0.00  0.00    +0.000 N 
ATOM     19  N   UNL     1      -2.409  -1.629  -0.936  0.00  0.00    +0.000 NA
ATOM     20  C   UNL     1      -1.910  -2.336  -1.982  0.00  0.00    +0.000 A 
ATOM     21  H   UNL     1      -3.392  -0.320   0.774  0.00  0.00    +0.000 HD
BRANCH  14  23
ATOM     22  N   UNL     1      -1.133  -3.438  -5.220  0.00  0.00    +0.000 NA
ATOM     23  C   UNL     1      -1.567  -2.791  -4.360  0.00  0.00    +0.000 C 
ENDBRANCH  14  23
ENDBRANCH  13  18
ENDBRANCH   1  13
TORSDOF 4
