REMARK  Name = 
REMARK  6 active torsions:
REMARK  status: ('A' for Active; 'I' for Inactive)
REMARK    1  A    between atoms: C_2  and  C_25
REMARK    2  A    between atoms: N_3  and  C_4
REMARK    3  A    between atoms: C_4  and  C_5
REMARK    4  A    between atoms: C_8  and  C_9
REMARK    5  A    between atoms: C_9  and  N_10
REMARK    6  A    between atoms: C_11  and  C_13
REMARK                            x       y       z     vdW  Elec       q    Type
REMARK                         _______ _______ _______ _____ _____    ______ ____
ROOT
ATOM      1  C   UNL     1       3.185  -2.288  -2.774  0.00  0.00    +0.000 A 
ATOM      2  C   UNL     1       4.111  -1.581  -3.540  0.00  0.00    +0.000 A 
ATOM      3  C   UNL     1       4.936  -2.271  -4.433  0.00  0.00    +0.000 A 
ATOM      4  C   UNL     1       4.841  -3.659  -4.540  0.00  0.00    +0.000 A 
ATOM      5  C   UNL     1       3.891  -4.282  -3.736  0.00  0.00    +0.000 A 
ATOM      6  N   UNL     1       3.072  -3.639  -2.861  0.00  0.00    +0.000 NA
ENDROOT
BRANCH   1   7
ATOM      7  C   UNL     1       2.237  -1.548  -1.846  0.00  0.00    +0.000 C 
BRANCH   7  10
ATOM      8  O   UNL     1       3.730   0.686  -1.067  0.00  0.00    +0.000 OA
ATOM      9  C   UNL     1       3.496  -0.184  -0.226  0.00  0.00    +0.000 C 
ATOM     10  N   UNL     1       2.762  -1.313  -0.512  0.00  0.00    +0.000 N 
ATOM     11  H   UNL     1       2.621  -2.006   0.217  0.00  0.00    +0.000 HD
BRANCH   9  12
ATOM     12  C   UNL     1       4.041  -0.044   1.152  0.00  0.00    +0.000 A 
ATOM     13  C   UNL     1       4.787   1.090   1.450  0.00  0.00    +0.000 A 
ATOM     14  N   UNL     1       5.457   1.241   2.619  0.00  0.00    +0.000 NA
ATOM     15  C   UNL     1       5.328   0.215   3.488  0.00  0.00    +0.000 A 
ATOM     16  C   UNL     1       4.524  -0.887   3.223  0.00  0.00    +0.000 A 
ATOM     17  N   UNL     1       3.864  -1.058   2.047  0.00  0.00    +0.000 NA
ENDBRANCH   9  12
ENDBRANCH   7  10
ENDBRANCH   1   7
BRANCH   4  18
ATOM     18  C   UNL     1       5.723  -4.450  -5.469  0.00  0.00    +0.000 C 
BRANCH  18  19
ATOM     19  N   UNL     1       5.155  -4.599  -6.788  0.00  0.00    +0.000 N 
ATOM     20  C   UNL     1       5.775  -5.348  -7.765  0.00  0.00    +0.000 C 
ATOM     21  O   UNL     1       6.853  -5.904  -7.577  0.00  0.00    +0.000 OA
ATOM     22  H   UNL     1       4.272  -4.134  -6.978  0.00  0.00    +0.000 HD
BRANCH  20  23
ATOM     23  C   UNL     1       5.075  -5.450  -9.041  0.00  0.00    +0.000 A 
ATOM     24  C   UNL     1       5.574  -6.131 -10.137  0.00  0.00    +0.000 A 
ATOM     25  O   UNL     1       4.736  -6.048 -11.205  0.00  0.00    +0.000 OA
ATOM     26  C   UNL     1       3.663  -5.305 -10.816  0.00  0.00    +0.000 A 
ATOM     27  N   UNL     1       2.630  -4.990 -11.634  0.00  0.00    +0.000 NA
ATOM     28  C   UNL     1       1.729  -4.255 -11.066  0.00  0.00    +0.000 A 
ATOM     29  N   UNL     1       1.771  -3.819  -9.763  0.00  0.00    +0.000 N 
ATOM     30  C   UNL     1       2.793  -4.146  -8.898  0.00  0.00    +0.000 A 
ATOM     31  O   UNL     1       2.794  -3.780  -7.724  0.00  0.00    +0.000 OA
ATOM     32  C   UNL     1       3.829  -4.934  -9.494  0.00  0.00    +0.000 A 
ATOM     33  H   UNL     1       1.031  -3.253  -9.380  0.00  0.00    +0.000 HD
ENDBRANCH  20  23
ENDBRANCH  18  19
ENDBRANCH   4  18
TORSDOF 6
