REMARK  Name = 
REMARK  5 active torsions:
REMARK  status: ('A' for Active; 'I' for Inactive)
REMARK    1  A    between atoms: C_2  and  C_4
REMARK    2  A    between atoms: C_7  and  N_8
REMARK    3  A    between atoms: N_8  and  C_9
REMARK    4  A    between atoms: C_9  and  C_10
REMARK    5  A    between atoms: C_15  and  N_16
REMARK                            x       y       z     vdW  Elec       q    Type
REMARK                         _______ _______ _______ _____ _____    ______ ____
ROOT
ATOM      1  C   UNL     1       4.951  -0.873  -5.905  0.00  0.00    +0.000 C 
ATOM      2  C   UNL     1       5.340   0.579  -6.110  0.00  0.00    +0.000 C 
ATOM      3  C   UNL     1       3.995   0.113  -6.558  0.00  0.00    +0.000 C 
ENDROOT
BRANCH   1   4
ATOM      4  C   UNL     1       5.546  -1.965  -6.791  0.00  0.00    +0.000 A 
ATOM      5  C   UNL     1       6.930  -2.091  -6.970  0.00  0.00    +0.000 A 
ATOM      6  C   UNL     1       7.469  -3.172  -7.662  0.00  0.00    +0.000 A 
ATOM      7  C   UNL     1       6.627  -4.153  -8.181  0.00  0.00    +0.000 A 
ATOM      8  F   UNL     1       7.200  -5.173  -8.842  0.00  0.00    +0.000 F 
ATOM      9  C   UNL     1       5.230  -4.081  -8.055  0.00  0.00    +0.000 A 
ATOM     10  C   UNL     1       4.724  -2.962  -7.366  0.00  0.00    +0.000 A 
BRANCH   9  11
ATOM     11  N   UNL     1       4.366  -5.056  -8.522  0.00  0.00    +0.000 N 
ATOM     12  C   UNL     1       4.718  -6.483  -8.555  0.00  0.00    +0.000 C 
ATOM     13  C   UNL     1       4.680  -7.018  -9.993  0.00  0.00    +0.000 C 
ATOM     14  O   UNL     1       3.417  -6.739 -10.625  0.00  0.00    +0.000 OA
ATOM     15  C   UNL     1       3.190  -5.320 -10.667  0.00  0.00    +0.000 C 
ATOM     16  C   UNL     1       3.143  -4.707  -9.256  0.00  0.00    +0.000 C 
ENDBRANCH   9  11
ENDBRANCH   1   4
BRANCH   1  17
ATOM     17  N   UNL     1       4.663  -1.360  -4.536  0.00  0.00    +0.000 N 
ATOM     18  H   UNL     1       3.778  -1.080  -4.130  0.00  0.00    +0.000 HD
BRANCH  17  22
ATOM     19  C   UNL     1       7.657  -1.549  -1.707  0.00  0.00    +0.000 A 
ATOM     20  C   UNL     1       7.854  -0.876  -2.899  0.00  0.00    +0.000 A 
ATOM     21  N   UNL     1       6.889  -0.779  -3.847  0.00  0.00    +0.000 NA
ATOM     22  C   UNL     1       5.700  -1.365  -3.577  0.00  0.00    +0.000 A 
ATOM     23  C   UNL     1       5.521  -2.041  -2.362  0.00  0.00    +0.000 A 
ATOM     24  N   UNL     1       6.475  -2.153  -1.397  0.00  0.00    +0.000 NA
BRANCH  19  26
ATOM     25  N   UNL     1       8.523  -2.385   0.394  0.00  0.00    +0.000 N 
ATOM     26  C   UNL     1       8.772  -1.644  -0.727  0.00  0.00    +0.000 C 
ATOM     27  O   UNL     1       9.854  -1.104  -0.913  0.00  0.00    +0.000 OA
ATOM     28  H   UNL     1       9.257  -2.516   1.075  0.00  0.00    +0.000 HD
ATOM     29  H   UNL     1       7.628  -2.849   0.509  0.00  0.00    +0.000 HD
ENDBRANCH  19  26
ENDBRANCH  17  22
ENDBRANCH   1  17
TORSDOF 5
