REMARK  Name = 
REMARK  6 active torsions:
REMARK  status: ('A' for Active; 'I' for Inactive)
REMARK    1  A    between atoms: N_1  and  C_2
REMARK    2  A    between atoms: C_2  and  C_3
REMARK    3  A    between atoms: C_3  and  C_4
REMARK    4  A    between atoms: C_7  and  C_8
REMARK    5  A    between atoms: C_8  and  N_9
REMARK    6  A    between atoms: C_14  and  C_15
REMARK                            x       y       z     vdW  Elec       q    Type
REMARK                         _______ _______ _______ _____ _____    ______ ____
ROOT
ATOM      1  N   UNL     1       9.361   0.009   1.695  0.00  0.00    +0.000 N 
ATOM      2  N   UNL     1       9.777   1.032   0.908  0.00  0.00    +0.000 NA
ATOM      3  C   UNL     1      10.108   1.984   1.782  0.00  0.00    +0.000 A 
ATOM      4  C   UNL     1       9.952   1.575   3.123  0.00  0.00    +0.000 A 
ATOM      5  C   UNL     1      10.126   2.183   4.382  0.00  0.00    +0.000 A 
ATOM      6  C   UNL     1       9.840   1.445   5.543  0.00  0.00    +0.000 A 
ATOM      7  C   UNL     1       9.416   0.113   5.431  0.00  0.00    +0.000 A 
ATOM      8  C   UNL     1       9.245  -0.509   4.186  0.00  0.00    +0.000 A 
ATOM      9  C   UNL     1       9.503   0.259   3.044  0.00  0.00    +0.000 A 
ENDROOT
BRANCH   6  10
ATOM     10  C   UNL     1       9.948   2.029   6.913  0.00  0.00    +0.000 C 
ATOM     11  N   UNL     1      10.345   3.330   7.046  0.00  0.00    +0.000 N 
ATOM     12  O   UNL     1       9.682   1.370   7.914  0.00  0.00    +0.000 OA
ATOM     13  H   UNL     1      10.584   3.952   6.291  0.00  0.00    +0.000 HD
ATOM     14  H   UNL     1      10.395   3.695   7.988  0.00  0.00    +0.000 HD
ENDBRANCH   6  10
BRANCH   1  15
ATOM     15  C   UNL     1       8.772  -1.168   1.070  0.00  0.00    +0.000 C 
BRANCH  15  19
ATOM     16  C   UNL     1       4.506  -0.914   1.064  0.00  0.00    +0.000 A 
ATOM     17  C   UNL     1       5.238   0.045   0.366  0.00  0.00    +0.000 A 
ATOM     18  C   UNL     1       6.629  -0.038   0.329  0.00  0.00    +0.000 A 
ATOM     19  C   UNL     1       7.267  -1.066   1.023  0.00  0.00    +0.000 A 
ATOM     20  N   UNL     1       6.568  -2.023   1.684  0.00  0.00    +0.000 NA
ATOM     21  C   UNL     1       5.218  -1.933   1.684  0.00  0.00    +0.000 A 
BRANCH  16  22
ATOM     22  C   UNL     1       3.002  -0.863   1.107  0.00  0.00    +0.000 C 
BRANCH  22  23
ATOM     23  C   UNL     1       2.380  -1.626  -0.066  0.00  0.00    +0.000 C 
BRANCH  23  24
ATOM     24  N   UNL     1       0.920  -1.563  -0.022  0.00  0.00    +0.000 NA
ATOM     25  H   UNL     1       0.539  -2.056  -0.830  0.00  0.00    +0.000 HD
ATOM     26  H   UNL     1       0.614  -0.595  -0.114  0.00  0.00    +0.000 HD
ENDBRANCH  23  24
ENDBRANCH  22  23
ENDBRANCH  16  22
ENDBRANCH  15  19
ENDBRANCH   1  15
TORSDOF 6
