REMARK  Name = 
REMARK  7 active torsions:
REMARK  status: ('A' for Active; 'I' for Inactive)
REMARK    1  A    between atoms: C_1  and  C_2
REMARK    2  A    between atoms: C_2  and  N_3
REMARK    3  A    between atoms: C_2  and  C_16
REMARK    4  A    between atoms: C_4  and  C_6
REMARK    5  A    between atoms: C_19  and  C_20
REMARK    6  A    between atoms: C_20  and  N_21
REMARK    7  A    between atoms: C_22  and  C_24
REMARK                            x       y       z     vdW  Elec       q    Type
REMARK                         _______ _______ _______ _____ _____    ______ ____
ROOT
ATOM      1  C   UNL     1       3.624  -0.761  -0.656  0.00  0.00    +0.000 C 
ATOM      2  C   UNL     1       2.425   0.012  -0.099  0.00  0.00    +0.000 C 
ENDROOT
BRANCH   2   3
ATOM      3  C   UNL     1       2.811   0.747   1.182  0.00  0.00    +0.000 A 
ATOM      4  C   UNL     1       2.764   2.145   1.253  0.00  0.00    +0.000 A 
ATOM      5  C   UNL     1       3.053   2.810   2.454  0.00  0.00    +0.000 A 
ATOM      6  C   UNL     1       3.399   2.093   3.608  0.00  0.00    +0.000 A 
ATOM      7  C   UNL     1       3.455   0.696   3.535  0.00  0.00    +0.000 A 
ATOM      8  C   UNL     1       3.172   0.034   2.338  0.00  0.00    +0.000 A 
BRANCH   6   9
ATOM      9  C   UNL     1       3.692   2.796   4.907  0.00  0.00    +0.000 C 
BRANCH   9  10
ATOM     10  N   UNL     1       2.517   2.957   5.727  0.00  0.00    +0.000 N 
ATOM     11  C   UNL     1       2.572   3.588   6.946  0.00  0.00    +0.000 C 
ATOM     12  O   UNL     1       3.615   4.023   7.430  0.00  0.00    +0.000 OA
ATOM     13  H   UNL     1       1.611   2.623   5.416  0.00  0.00    +0.000 HD
BRANCH  11  14
ATOM     14  C   UNL     1       1.288   3.711   7.613  0.00  0.00    +0.000 A 
ATOM     15  N   UNL     1       0.135   3.272   7.134  0.00  0.00    +0.000 NA
ATOM     16  C   UNL     1      -0.806   3.620   8.074  0.00  0.00    +0.000 A 
ATOM     17  C   UNL     1      -0.223   4.269   9.135  0.00  0.00    +0.000 A 
ATOM     18  N   UNL     1       1.109   4.316   8.832  0.00  0.00    +0.000 N 
ATOM     19  H   UNL     1       1.853   4.725   9.383  0.00  0.00    +0.000 HD
ENDBRANCH  11  14
ENDBRANCH   9  10
ENDBRANCH   6   9
ENDBRANCH   2   3
BRANCH   2  20
ATOM     20  N   UNL     1       1.292  -0.854   0.190  0.00  0.00    +0.000 N 
ATOM     21  C   UNL     1       0.650  -1.627  -0.742  0.00  0.00    +0.000 C 
ATOM     22  O   UNL     1       1.000  -1.695  -1.915  0.00  0.00    +0.000 OA
ATOM     23  H   UNL     1       0.767  -0.599   1.020  0.00  0.00    +0.000 HD
BRANCH  21  24
ATOM     24  C   UNL     1      -0.449  -2.451  -0.224  0.00  0.00    +0.000 A 
ATOM     25  C   UNL     1      -0.759  -3.661  -0.830  0.00  0.00    +0.000 A 
ATOM     26  S   UNL     1      -2.020  -4.509  -0.050  0.00  0.00    +0.000 S 
ATOM     27  C   UNL     1      -2.228  -3.263   1.090  0.00  0.00    +0.000 A 
ATOM     28  N   UNL     1      -3.183  -3.343   2.057  0.00  0.00    +0.000 NA
ATOM     29  C   UNL     1      -3.247  -2.310   2.829  0.00  0.00    +0.000 A 
ATOM     30  N   UNL     1      -2.442  -1.205   2.729  0.00  0.00    +0.000 N 
ATOM     31  C   UNL     1      -1.445  -1.095   1.792  0.00  0.00    +0.000 A 
ATOM     32  O   UNL     1      -0.705  -0.119   1.759  0.00  0.00    +0.000 OA
ATOM     33  C   UNL     1      -1.337  -2.223   0.888  0.00  0.00    +0.000 A 
ATOM     34  H   UNL     1      -2.533  -0.433   3.372  0.00  0.00    +0.000 HD
ENDBRANCH  21  24
ENDBRANCH   2  20
TORSDOF 6
