REMARK  Name = 
REMARK  8 active torsions:
REMARK  status: ('A' for Active; 'I' for Inactive)
REMARK    1  A    between atoms: C_1  and  C_2
REMARK    2  A    between atoms: C_2  and  N_3
REMARK    3  A    between atoms: C_2  and  C_25
REMARK    4  A    between atoms: N_3  and  C_4
REMARK    5  A    between atoms: C_4  and  C_5
REMARK    6  A    between atoms: C_8  and  C_9
REMARK    7  A    between atoms: C_9  and  N_10
REMARK    8  A    between atoms: C_11  and  C_13
REMARK                            x       y       z     vdW  Elec       q    Type
REMARK                         _______ _______ _______ _____ _____    ______ ____
ROOT
ATOM      1  C   UNL     1      -0.889   0.565   1.224  0.00  0.00    +0.000 A 
ATOM      2  C   UNL     1      -1.632  -0.208   2.120  0.00  0.00    +0.000 A 
ATOM      3  C   UNL     1      -3.017  -0.080   2.161  0.00  0.00    +0.000 A 
ATOM      4  C   UNL     1      -3.639   0.812   1.290  0.00  0.00    +0.000 A 
ATOM      5  N   UNL     1      -2.937   1.581   0.419  0.00  0.00    +0.000 NA
ATOM      6  C   UNL     1      -1.593   1.439   0.406  0.00  0.00    +0.000 A 
ENDROOT
BRANCH   1   7
ATOM      7  C   UNL     1       0.614   0.530   1.210  0.00  0.00    +0.000 C 
BRANCH   7   8
ATOM      8  N   UNL     1       1.139  -0.815   0.976  0.00  0.00    +0.000 NA
ATOM      9  H   UNL     1       0.788  -1.156   0.080  0.00  0.00    +0.000 HD
BRANCH   8  11
ATOM     10  C   UNL     1       3.247  -0.364   2.247  0.00  0.00    +0.000 C 
ATOM     11  C   UNL     1       2.611  -0.847   0.934  0.00  0.00    +0.000 C 
BRANCH  11  12
ATOM     12  C   UNL     1       3.107  -2.250   0.611  0.00  0.00    +0.000 A 
ATOM     13  C   UNL     1       3.921  -2.470  -0.512  0.00  0.00    +0.000 A 
ATOM     14  C   UNL     1       4.435  -3.742  -0.782  0.00  0.00    +0.000 A 
ATOM     15  C   UNL     1       4.143  -4.808   0.063  0.00  0.00    +0.000 A 
ATOM     16  C   UNL     1       3.321  -4.612   1.170  0.00  0.00    +0.000 A 
ATOM     17  C   UNL     1       2.801  -3.344   1.440  0.00  0.00    +0.000 A 
ENDBRANCH  11  12
ENDBRANCH   8  11
ENDBRANCH   7   8
ENDBRANCH   1   7
BRANCH   4  18
ATOM     18  C   UNL     1      -5.137   1.004   1.334  0.00  0.00    +0.000 C 
BRANCH  18  19
ATOM     19  N   UNL     1      -5.503   2.070   2.240  0.00  0.00    +0.000 N 
ATOM     20  C   UNL     1      -6.690   2.066   2.922  0.00  0.00    +0.000 C 
ATOM     21  O   UNL     1      -7.477   1.125   2.858  0.00  0.00    +0.000 OA
ATOM     22  H   UNL     1      -4.997   2.943   2.115  0.00  0.00    +0.000 HD
BRANCH  20  23
ATOM     23  C   UNL     1      -6.947   3.214   3.801  0.00  0.00    +0.000 A 
ATOM     24  C   UNL     1      -7.801   3.068   4.887  0.00  0.00    +0.000 A 
ATOM     25  S   UNL     1      -7.961   4.482   5.826  0.00  0.00    +0.000 S 
ATOM     26  C   UNL     1      -6.934   5.354   4.786  0.00  0.00    +0.000 A 
ATOM     27  N   UNL     1      -6.668   6.669   5.008  0.00  0.00    +0.000 NA
ATOM     28  C   UNL     1      -5.901   7.214   4.123  0.00  0.00    +0.000 A 
ATOM     29  N   UNL     1      -5.368   6.561   3.042  0.00  0.00    +0.000 N 
ATOM     30  C   UNL     1      -5.579   5.223   2.800  0.00  0.00    +0.000 A 
ATOM     31  O   UNL     1      -5.042   4.654   1.856  0.00  0.00    +0.000 OA
ATOM     32  C   UNL     1      -6.454   4.570   3.753  0.00  0.00    +0.000 A 
ATOM     33  H   UNL     1      -4.765   7.040   2.392  0.00  0.00    +0.000 HD
ENDBRANCH  20  23
ENDBRANCH  18  19
ENDBRANCH   4  18
TORSDOF 7
