REMARK  Name = 
REMARK  10 active torsions:
REMARK  status: ('A' for Active; 'I' for Inactive)
REMARK    1  A    between atoms: C_2  and  C_20
REMARK    2  A    between atoms: N_3  and  C_4
REMARK    3  A    between atoms: C_4  and  C_5
REMARK    4  A    between atoms: C_8  and  C_9
REMARK    5  A    between atoms: C_9  and  N_10
REMARK    6  A    between atoms: N_10  and  C_11
REMARK    7  A    between atoms: C_11  and  C_12
REMARK    8  A    between atoms: C_27  and  O_28
REMARK    9  A    between atoms: O_28  and  C_29
REMARK   10  A    between atoms: C_29  and  C_30
REMARK                            x       y       z     vdW  Elec       q    Type
REMARK                         _______ _______ _______ _____ _____    ______ ____
ROOT
ATOM      1  O   UNL     1       0.771  -0.265   0.813  0.00  0.00    +0.000 OA
ATOM      2  C   UNL     1       1.982  -0.251   0.879  0.00  0.00    +0.000 C 
ATOM      3  N   UNL     1       2.789  -1.356   0.682  0.00  0.00    +0.000 N 
ATOM      4  H   UNL     1       3.722  -1.148   0.348  0.00  0.00    +0.000 HD
ENDROOT
BRANCH   2   5
ATOM      5  C   UNL     1       2.784   0.965   0.932  0.00  0.00    +0.000 A 
ATOM      6  C   UNL     1       2.387   2.126   0.284  0.00  0.00    +0.000 A 
ATOM      7  N   UNL     1       3.537   2.772  -0.081  0.00  0.00    +0.000 N 
ATOM      8  C   UNL     1       4.609   2.171   0.516  0.00  0.00    +0.000 A 
ATOM      9  N   UNL     1       5.881   2.502   0.269  0.00  0.00    +0.000 NA
ATOM     10  C   UNL     1       6.735   1.755   0.982  0.00  0.00    +0.000 A 
ATOM     11  N   UNL     1       6.435   0.830   1.911  0.00  0.00    +0.000 NA
ATOM     12  C   UNL     1       5.134   0.529   2.134  0.00  0.00    +0.000 A 
ATOM     13  C   UNL     1       4.149   1.155   1.344  0.00  0.00    +0.000 A 
ATOM     14  H   UNL     1       3.616   3.499  -0.779  0.00  0.00    +0.000 HD
BRANCH  12  15
ATOM     15  O   UNL     1       4.966  -0.485   3.052  0.00  0.00    +0.000 OA
BRANCH  15  16
ATOM     16  C   UNL     1       3.853  -0.356   3.944  0.00  0.00    +0.000 C 
BRANCH  16  17
ATOM     17  C   UNL     1       4.175  -0.851   5.361  0.00  0.00    +0.000 C 
ATOM     18  F   UNL     1       5.469  -1.192   5.531  0.00  0.00    +0.000 F 
ATOM     19  F   UNL     1       3.883   0.097   6.284  0.00  0.00    +0.000 F 
ATOM     20  F   UNL     1       3.428  -1.941   5.669  0.00  0.00    +0.000 F 
ENDBRANCH  16  17
ENDBRANCH  15  16
ENDBRANCH  12  15
ENDBRANCH   2   5
BRANCH   3  21
ATOM     21  C   UNL     1       2.226  -2.591   0.227  0.00  0.00    +0.000 C 
BRANCH  21  22
ATOM     22  C   UNL     1       3.271  -3.660   0.098  0.00  0.00    +0.000 A 
ATOM     23  C   UNL     1       3.547  -4.554   1.134  0.00  0.00    +0.000 A 
ATOM     24  C   UNL     1       4.464  -5.585   0.933  0.00  0.00    +0.000 A 
ATOM     25  C   UNL     1       5.106  -5.692  -0.297  0.00  0.00    +0.000 A 
ATOM     26  N   UNL     1       4.905  -4.795  -1.296  0.00  0.00    +0.000 NA
ATOM     27  C   UNL     1       4.006  -3.807  -1.074  0.00  0.00    +0.000 A 
BRANCH  25  28
ATOM     28  C   UNL     1       6.051  -6.851  -0.566  0.00  0.00    +0.000 C 
BRANCH  28  29
ATOM     29  N   UNL     1       7.416  -6.471  -0.937  0.00  0.00    +0.000 NA
ATOM     30  H   UNL     1       7.364  -5.859  -1.755  0.00  0.00    +0.000 HD
BRANCH  29  31
ATOM     31  C   UNL     1       8.103  -5.709   0.123  0.00  0.00    +0.000 C 
BRANCH  31  32
ATOM     32  C   UNL     1       9.510  -5.291  -0.283  0.00  0.00    +0.000 A 
ATOM     33  N   UNL     1       9.636  -4.517  -1.385  0.00  0.00    +0.000 NA
ATOM     34  C   UNL     1      10.891  -4.186  -1.744  0.00  0.00    +0.000 A 
ATOM     35  C   UNL     1      12.008  -4.583  -1.051  0.00  0.00    +0.000 A 
ATOM     36  C   UNL     1      11.773  -5.355   0.062  0.00  0.00    +0.000 A 
ATOM     37  N   UNL     1      10.544  -5.719   0.471  0.00  0.00    +0.000 NA
ENDBRANCH  31  32
ENDBRANCH  29  31
ENDBRANCH  28  29
ENDBRANCH  25  28
ENDBRANCH  21  22
ENDBRANCH   3  21
TORSDOF 10
