REMARK  Name = 
REMARK  10 active torsions:
REMARK  status: ('A' for Active; 'I' for Inactive)
REMARK    1  A    between atoms: C_1  and  O_2
REMARK    2  A    between atoms: O_2  and  C_3
REMARK    3  A    between atoms: C_6  and  N_7
REMARK    4  A    between atoms: C_14  and  C_15
REMARK    5  A    between atoms: C_15  and  C_16
REMARK    6  A    between atoms: C_15  and  C_17
REMARK    7  A    between atoms: C_15  and  C_18
REMARK    8  A    between atoms: C_18  and  N_19
REMARK    9  A    between atoms: N_19  and  C_20
REMARK   10  A    between atoms: C_23  and  C_24
REMARK                            x       y       z     vdW  Elec       q    Type
REMARK                         _______ _______ _______ _____ _____    ______ ____
ROOT
ATOM      1  C   UNL     1       4.726   1.556  -1.170  0.00  0.00    +0.000 C 
ATOM      2  C   UNL     1       4.869   3.001  -1.718  0.00  0.00    +0.000 C 
ATOM      3  C   UNL     1       6.099   0.844  -1.246  0.00  0.00    +0.000 C 
ENDROOT
BRANCH   1   9
ATOM      4  C   UNL     1       3.082   1.132   0.869  0.00  0.00    +0.000 A 
ATOM      5  C   UNL     1       2.772   1.362   2.216  0.00  0.00    +0.000 A 
ATOM      6  C   UNL     1       3.638   2.074   3.050  0.00  0.00    +0.000 A 
ATOM      7  C   UNL     1       4.845   2.576   2.576  0.00  0.00    +0.000 A 
ATOM      8  C   UNL     1       5.128   2.357   1.219  0.00  0.00    +0.000 A 
ATOM      9  C   UNL     1       4.277   1.652   0.326  0.00  0.00    +0.000 A 
BRANCH   7  10
ATOM     10  N   UNL     1       5.750   3.240   3.379  0.00  0.00    +0.000 N 
ATOM     11  C   UNL     1       5.868   2.997   4.824  0.00  0.00    +0.000 C 
ATOM     12  C   UNL     1       5.430   4.233   5.621  0.00  0.00    +0.000 C 
ATOM     13  O   UNL     1       6.139   5.411   5.200  0.00  0.00    +0.000 OA
ATOM     14  C   UNL     1       5.896   5.664   3.806  0.00  0.00    +0.000 C 
ATOM     15  C   UNL     1       6.368   4.496   2.923  0.00  0.00    +0.000 C 
ENDBRANCH   7  10
BRANCH   4  17
ATOM     16  C   UNL     1       0.917   0.204   0.425  0.00  0.00    +0.000 C 
ATOM     17  O   UNL     1       2.288   0.353   0.076  0.00  0.00    +0.000 OA
ENDBRANCH   4  17
ENDBRANCH   1   9
BRANCH   1  18
ATOM     18  C   UNL     1       3.713   0.803  -2.089  0.00  0.00    +0.000 C 
BRANCH  18  19
ATOM     19  N   UNL     1       4.088   0.745  -3.517  0.00  0.00    +0.000 N 
ATOM     20  H   UNL     1       5.021   0.365  -3.649  0.00  0.00    +0.000 HD
BRANCH  19  21
ATOM     21  C   UNL     1       3.175   0.077  -4.360  0.00  0.00    +0.000 A 
ATOM     22  C   UNL     1       1.790   0.090  -4.149  0.00  0.00    +0.000 A 
ATOM     23  C   UNL     1       0.914  -0.550  -5.029  0.00  0.00    +0.000 A 
ATOM     24  C   UNL     1       1.403  -1.180  -6.172  0.00  0.00    +0.000 A 
ATOM     25  C   UNL     1       2.778  -1.169  -6.426  0.00  0.00    +0.000 A 
ATOM     26  C   UNL     1       3.649  -0.528  -5.533  0.00  0.00    +0.000 A 
BRANCH  24  27
ATOM     27  C   UNL     1       0.423  -1.844  -7.069  0.00  0.00    +0.000 C 
ATOM     28  N   UNL     1       0.767  -1.984  -8.384  0.00  0.00    +0.000 N 
ATOM     29  O   UNL     1      -0.673  -2.214  -6.667  0.00  0.00    +0.000 OA
ATOM     30  H   UNL     1       1.530  -1.470  -8.799  0.00  0.00    +0.000 HD
ATOM     31  H   UNL     1       0.034  -2.315  -8.997  0.00  0.00    +0.000 HD
ENDBRANCH  24  27
ENDBRANCH  19  21
ENDBRANCH  18  19
ENDBRANCH   1  18
TORSDOF 7
