REMARK  Name = 
REMARK  5 active torsions:
REMARK  status: ('A' for Active; 'I' for Inactive)
REMARK    1  A    between atoms: N_1  and  C_2
REMARK    2  A    between atoms: C_2  and  C_3
REMARK    3  A    between atoms: C_3  and  C_4
REMARK    4  A    between atoms: C_7  and  C_8
REMARK    5  A    between atoms: C_8  and  N_9
REMARK                            x       y       z     vdW  Elec       q    Type
REMARK                         _______ _______ _______ _____ _____    ______ ____
ROOT
ATOM      1  C   UNL     1       4.414  -0.642   1.388  0.00  0.00    +0.000 A 
ATOM      2  C   UNL     1       5.063  -1.865   1.241  0.00  0.00    +0.000 A 
ATOM      3  C   UNL     1       6.464  -1.927   1.163  0.00  0.00    +0.000 A 
ATOM      4  C   UNL     1       7.236  -0.752   1.221  0.00  0.00    +0.000 A 
ATOM      5  C   UNL     1       6.574   0.462   1.415  0.00  0.00    +0.000 A 
ATOM      6  C   UNL     1       5.180   0.525   1.510  0.00  0.00    +0.000 A 
ENDROOT
BRANCH   1   7
ATOM      7  C   UNL     1       2.906  -0.582   1.412  0.00  0.00    +0.000 C 
BRANCH   7   8
ATOM      8  C   UNL     1       2.350  -0.757   2.826  0.00  0.00    +0.000 C 
BRANCH   8   9
ATOM      9  N   UNL     1       0.890  -0.703   2.831  0.00  0.00    +0.000 NA
ATOM     10  H   UNL     1       0.552  -0.872   3.776  0.00  0.00    +0.000 HD
ATOM     11  H   UNL     1       0.519  -1.461   2.255  0.00  0.00    +0.000 HD
ENDBRANCH   8   9
ENDBRANCH   7   8
ENDBRANCH   1   7
BRANCH   4  12
ATOM     12  C   UNL     1       8.744  -0.767   1.072  0.00  0.00    +0.000 C 
BRANCH  12  13
ATOM     13  N   UNL     1       9.177  -0.598  -0.307  0.00  0.00    +0.000 N 
ATOM     14  C   UNL     1       9.444  -1.605  -1.196  0.00  0.00    +0.000 A 
ATOM     15  N   UNL     1       9.728  -1.140  -2.397  0.00  0.00    +0.000 NA
ATOM     16  C   UNL     1       9.641   0.226  -2.279  0.00  0.00    +0.000 A 
ATOM     17  C   UNL     1       9.743   1.240  -3.235  0.00  0.00    +0.000 A 
ATOM     18  C   UNL     1       9.540   2.546  -2.790  0.00  0.00    +0.000 A 
ATOM     19 CL   UNL     1       9.576   3.853  -3.906  0.00  0.00    +0.000 Cl
ATOM     20  C   UNL     1       9.291   2.781  -1.437  0.00  0.00    +0.000 A 
ATOM     21  N   UNL     1       9.208   1.835  -0.466  0.00  0.00    +0.000 NA
ATOM     22  C   UNL     1       9.356   0.588  -0.961  0.00  0.00    +0.000 A 
ENDBRANCH  12  13
ENDBRANCH   4  12
TORSDOF 5
