REMARK  Name = 
REMARK  5 active torsions:
REMARK  status: ('A' for Active; 'I' for Inactive)
REMARK    1  A    between atoms: C_2  and  C_3
REMARK    2  A    between atoms: C_6  and  N_7
REMARK    3  A    between atoms: N_7  and  C_8
REMARK    4  A    between atoms: C_8  and  C_9
REMARK    5  A    between atoms: C_13  and  C_14
REMARK                            x       y       z     vdW  Elec       q    Type
REMARK                         _______ _______ _______ _____ _____    ______ ____
ROOT
ATOM      1  C   UNL     1       8.589  -0.904  -0.695  0.00  0.00    +0.000 C 
ATOM      2  C   UNL     1       8.327  -1.686  -1.975  0.00  0.00    +0.000 C 
ATOM      3  C   UNL     1       8.948  -2.367  -0.801  0.00  0.00    +0.000 C 
ENDROOT
BRANCH   1   4
ATOM      4  C   UNL     1       9.676   0.162  -0.686  0.00  0.00    +0.000 A 
ATOM      5  C   UNL     1       9.694   1.183  -1.650  0.00  0.00    +0.000 A 
ATOM      6  C   UNL     1      10.442   2.341  -1.454  0.00  0.00    +0.000 A 
ATOM      7  C   UNL     1      11.229   2.476  -0.310  0.00  0.00    +0.000 A 
ATOM      8  C   UNL     1      11.329   1.441   0.634  0.00  0.00    +0.000 A 
ATOM      9  C   UNL     1      10.541   0.293   0.417  0.00  0.00    +0.000 A 
BRANCH   8  10
ATOM     10  C   UNL     1      12.187   1.564   1.831  0.00  0.00    +0.000 A 
ATOM     11  C   UNL     1      12.398   2.787   2.486  0.00  0.00    +0.000 A 
ATOM     12  C   UNL     1      13.227   2.863   3.605  0.00  0.00    +0.000 A 
ATOM     13  C   UNL     1      13.825   1.703   4.061  0.00  0.00    +0.000 A 
ATOM     14  N   UNL     1      13.653   0.500   3.480  0.00  0.00    +0.000 NA
ATOM     15  C   UNL     1      12.850   0.464   2.386  0.00  0.00    +0.000 A 
ENDBRANCH   8  10
ENDBRANCH   1   4
BRANCH   1  16
ATOM     16  N   UNL     1       7.369  -0.394  -0.061  0.00  0.00    +0.000 N 
ATOM     17  H   UNL     1       7.112   0.560  -0.316  0.00  0.00    +0.000 HD
BRANCH  16  21
ATOM     18  C   UNL     1       5.847  -0.820   3.707  0.00  0.00    +0.000 A 
ATOM     19  C   UNL     1       5.627   0.306   2.933  0.00  0.00    +0.000 A 
ATOM     20  N   UNL     1       6.191   0.468   1.714  0.00  0.00    +0.000 NA
ATOM     21  C   UNL     1       6.991  -0.532   1.269  0.00  0.00    +0.000 A 
ATOM     22  C   UNL     1       7.245  -1.634   2.081  0.00  0.00    +0.000 A 
ATOM     23  N   UNL     1       6.681  -1.809   3.307  0.00  0.00    +0.000 NA
BRANCH  18  25
ATOM     24  N   UNL     1       4.541  -1.098   5.930  0.00  0.00    +0.000 NA
ATOM     25  C   UNL     1       5.149  -0.997   4.938  0.00  0.00    +0.000 C 
ENDBRANCH  18  25
ENDBRANCH  16  21
ENDBRANCH   1  16
TORSDOF 5
