REMARK  Name = 
REMARK  5 active torsions:
REMARK  status: ('A' for Active; 'I' for Inactive)
REMARK    1  A    between atoms: C_1  and  C_2
REMARK    2  A    between atoms: C_4  and  C_5
REMARK    3  A    between atoms: C_10  and  N_11
REMARK    4  A    between atoms: N_11  and  C_12
REMARK    5  A    between atoms: C_12  and  C_13
REMARK                            x       y       z     vdW  Elec       q    Type
REMARK                         _______ _______ _______ _____ _____    ______ ____
ROOT
ATOM      1  N   UNL     1       0.894  -2.173  -0.086  0.00  0.00    +0.000 N 
ATOM      2  H   UNL     1       0.320  -2.835   0.422  0.00  0.00    +0.000 HD
ENDROOT
BRANCH   1   9
ATOM      3  C   UNL     1      -1.914  -1.896  -0.719  0.00  0.00    +0.000 C 
ATOM      4  C   UNL     1      -1.032  -0.727  -0.389  0.00  0.00    +0.000 A 
ATOM      5  C   UNL     1      -1.583   0.563  -0.451  0.00  0.00    +0.000 A 
ATOM      6  C   UNL     1      -0.814   1.683  -0.152  0.00  0.00    +0.000 A 
ATOM      7  C   UNL     1       0.501   1.444   0.209  0.00  0.00    +0.000 A 
ATOM      8  N   UNL     1       1.083   0.208   0.249  0.00  0.00    +0.000 NA
ATOM      9  C   UNL     1       0.324  -0.874  -0.042  0.00  0.00    +0.000 A 
BRANCH   6  10
ATOM     10  C   UNL     1      -1.447   3.024  -0.259  0.00  0.00    +0.000 C 
ATOM     11  N   UNL     1      -0.718   4.141   0.035  0.00  0.00    +0.000 N 
ATOM     12  O   UNL     1      -2.617   3.139  -0.616  0.00  0.00    +0.000 OA
ATOM     13  H   UNL     1       0.239   4.163   0.324  0.00  0.00    +0.000 HD
ATOM     14  H   UNL     1      -1.203   5.028  -0.073  0.00  0.00    +0.000 HD
ENDBRANCH   6  10
ENDBRANCH   1   9
BRANCH   1  15
ATOM     15  C   UNL     1       2.354  -2.406  -0.034  0.00  0.00    +0.000 C 
ATOM     16  C   UNL     1       3.184  -2.016  -1.244  0.00  0.00    +0.000 C 
ATOM     17  C   UNL     1       2.928  -3.463  -0.978  0.00  0.00    +0.000 C 
BRANCH  15  18
ATOM     18  C   UNL     1       2.988  -2.381   1.357  0.00  0.00    +0.000 A 
ATOM     19  C   UNL     1       3.710  -1.264   1.806  0.00  0.00    +0.000 A 
ATOM     20  C   UNL     1       4.344  -1.247   3.052  0.00  0.00    +0.000 A 
ATOM     21  C   UNL     1       4.260  -2.354   3.894  0.00  0.00    +0.000 A 
ATOM     22 CL   UNL     1       5.054  -2.263   5.425  0.00  0.00    +0.000 Cl
ATOM     23  C   UNL     1       3.547  -3.481   3.479  0.00  0.00    +0.000 A 
ATOM     24 CL   UNL     1       3.414  -4.901   4.458  0.00  0.00    +0.000 Cl
ATOM     25  C   UNL     1       2.920  -3.490   2.225  0.00  0.00    +0.000 A 
ENDBRANCH  15  18
ENDBRANCH   1  15
TORSDOF 4
