REMARK  Name = 
REMARK  11 active torsions:
REMARK  status: ('A' for Active; 'I' for Inactive)
REMARK    1  A    between atoms: C_1  and  C_2
REMARK    2  A    between atoms: C_2  and  C_3
REMARK    3  A    between atoms: C_2  and  C_22
REMARK    4  A    between atoms: C_3  and  O_4
REMARK    5  A    between atoms: C_3  and  C_5
REMARK    6  A    between atoms: C_8  and  N_9
REMARK    7  A    between atoms: N_9  and  C_10
REMARK    8  A    between atoms: C_10  and  C_11
REMARK    9  A    between atoms: C_11  and  C_12
REMARK   10  A    between atoms: C_11  and  C_13
REMARK   11  A    between atoms: C_11  and  C_14
REMARK                            x       y       z     vdW  Elec       q    Type
REMARK                         _______ _______ _______ _____ _____    ______ ____
ROOT
ATOM      1  C   UNL     1       2.597   0.543  -2.523  0.00  0.00    +0.000 A 
ATOM      2  C   UNL     1       1.794   1.403  -3.261  0.00  0.00    +0.000 A 
ATOM      3  N   UNL     1       1.342   1.115  -4.510  0.00  0.00    +0.000 NA
ATOM      4  C   UNL     1       1.695  -0.077  -5.026  0.00  0.00    +0.000 A 
ATOM      5  C   UNL     1       2.428  -0.970  -4.237  0.00  0.00    +0.000 A 
ATOM      6  N   UNL     1       2.905  -0.686  -2.998  0.00  0.00    +0.000 NA
ENDROOT
BRANCH   4   7
ATOM      7  N   UNL     1       1.254  -0.476  -6.298  0.00  0.00    +0.000 N 
ATOM      8  H   UNL     1       1.957  -1.073  -6.728  0.00  0.00    +0.000 HD
BRANCH   7   9
ATOM      9  C   UNL     1       0.888   0.609  -7.232  0.00  0.00    +0.000 C 
BRANCH   9  10
ATOM     10  C   UNL     1      -0.612   0.565  -7.654  0.00  0.00    +0.000 C 
ATOM     11  C   UNL     1      -0.948  -0.824  -8.238  0.00  0.00    +0.000 C 
ATOM     12  C   UNL     1      -1.495   0.840  -6.421  0.00  0.00    +0.000 C 
BRANCH  10  13
ATOM     13  C   UNL     1      -0.883   1.621  -8.745  0.00  0.00    +0.000 A 
ATOM     14  C   UNL     1      -2.168   1.826  -9.254  0.00  0.00    +0.000 A 
ATOM     15  C   UNL     1      -2.365   2.749 -10.282  0.00  0.00    +0.000 A 
ATOM     16  C   UNL     1      -1.280   3.453 -10.780  0.00  0.00    +0.000 A 
ATOM     17  C   UNL     1      -0.039   3.204 -10.229  0.00  0.00    +0.000 A 
ATOM     18  N   UNL     1       0.180   2.309  -9.238  0.00  0.00    +0.000 NA
ENDBRANCH  10  13
ENDBRANCH   9  10
ENDBRANCH   7   9
ENDBRANCH   4   7
BRANCH   1  19
ATOM     19  C   UNL     1       3.147   0.935  -1.163  0.00  0.00    +0.000 C 
BRANCH  19  21
ATOM     20  C   UNL     1       4.925   0.596   0.615  0.00  0.00    +0.000 C 
ATOM     21  C   UNL     1       4.486   0.250  -0.810  0.00  0.00    +0.000 C 
BRANCH  21  22
ATOM     22  C   UNL     1       5.576   0.594  -1.821  0.00  0.00    +0.000 C 
ATOM     23  F   UNL     1       6.710   1.025  -1.218  0.00  0.00    +0.000 F 
ATOM     24  F   UNL     1       5.919  -0.485  -2.560  0.00  0.00    +0.000 F 
ATOM     25  F   UNL     1       5.204   1.576  -2.675  0.00  0.00    +0.000 F 
ENDBRANCH  21  22
ENDBRANCH  19  21
BRANCH  19  26
ATOM     26  O   UNL     1       3.284   2.358  -1.035  0.00  0.00    +0.000 OA
ATOM     27  H   UNL     1       3.799   2.679  -1.802  0.00  0.00    +0.000 HD
ENDBRANCH  19  26
ENDBRANCH   1  19
TORSDOF 8
