REMARK  Name = 
REMARK  10 active torsions:
REMARK  status: ('A' for Active; 'I' for Inactive)
REMARK    1  A    between atoms: N_1  and  C_2
REMARK    2  A    between atoms: C_2  and  C_3
REMARK    3  A    between atoms: C_3  and  N_4
REMARK    4  A    between atoms: N_4  and  C_5
REMARK    5  A    between atoms: C_5  and  C_6
REMARK    6  A    between atoms: C_9  and  C_10
REMARK    7  A    between atoms: C_10  and  C_11
REMARK    8  A    between atoms: C_14  and  C_15
REMARK    9  A    between atoms: C_15  and  N_16
REMARK   10  A    between atoms: C_17  and  C_19
REMARK                            x       y       z     vdW  Elec       q    Type
REMARK                         _______ _______ _______ _____ _____    ______ ____
ROOT
ATOM      1  C   UNL     1      11.346   2.391  -1.352  0.00  0.00    +0.000 A 
ATOM      2  C   UNL     1      11.041   2.126  -0.024  0.00  0.00    +0.000 A 
ATOM      3  C   UNL     1      11.538   2.969   0.971  0.00  0.00    +0.000 A 
ATOM      4  C   UNL     1      12.388   4.026   0.632  0.00  0.00    +0.000 A 
ATOM      5  C   UNL     1      12.679   4.180  -0.719  0.00  0.00    +0.000 A 
ATOM      6  N   UNL     1      12.173   3.402  -1.714  0.00  0.00    +0.000 NA
ENDROOT
BRANCH   1   7
ATOM      7  C   UNL     1      10.659   1.588  -2.438  0.00  0.00    +0.000 C 
BRANCH   7  11
ATOM      8  C   UNL     1       7.089   3.325  -3.998  0.00  0.00    +0.000 A 
ATOM      9  C   UNL     1       6.998   2.071  -3.415  0.00  0.00    +0.000 A 
ATOM     10  C   UNL     1       8.141   1.505  -2.863  0.00  0.00    +0.000 A 
ATOM     11  C   UNL     1       9.361   2.188  -2.932  0.00  0.00    +0.000 A 
ATOM     12  C   UNL     1       9.348   3.444  -3.525  0.00  0.00    +0.000 A 
ATOM     13  N   UNL     1       8.245   4.037  -4.039  0.00  0.00    +0.000 NA
BRANCH   8  14
ATOM     14  C   UNL     1       5.835   3.976  -4.541  0.00  0.00    +0.000 C 
BRANCH  14  15
ATOM     15  N   UNL     1       4.775   4.117  -3.518  0.00  0.00    +0.000 NA
ATOM     16  H   UNL     1       3.986   4.592  -3.963  0.00  0.00    +0.000 HD
BRANCH  15  17
ATOM     17  C   UNL     1       5.267   4.987  -2.432  0.00  0.00    +0.000 C 
BRANCH  17  18
ATOM     18  C   UNL     1       5.643   6.394  -2.932  0.00  0.00    +0.000 C 
BRANCH  18  19
ATOM     19  N   UNL     1       4.492   7.050  -3.555  0.00  0.00    +0.000 NA
ATOM     20  H   UNL     1       4.769   7.987  -3.840  0.00  0.00    +0.000 HD
ATOM     21  H   UNL     1       3.761   7.163  -2.853  0.00  0.00    +0.000 HD
ENDBRANCH  18  19
ENDBRANCH  17  18
ENDBRANCH  15  17
ENDBRANCH  14  15
ENDBRANCH   8  14
ENDBRANCH   7  11
ENDBRANCH   1   7
BRANCH   4  22
ATOM     22  C   UNL     1      12.990   4.960   1.651  0.00  0.00    +0.000 C 
BRANCH  22  23
ATOM     23  N   UNL     1      14.268   4.504   2.138  0.00  0.00    +0.000 N 
ATOM     24  C   UNL     1      14.991   5.204   3.071  0.00  0.00    +0.000 C 
ATOM     25  O   UNL     1      14.597   6.255   3.567  0.00  0.00    +0.000 OA
ATOM     26  H   UNL     1      14.806   3.921   1.506  0.00  0.00    +0.000 HD
BRANCH  24  27
ATOM     27  C   UNL     1      16.254   4.580   3.482  0.00  0.00    +0.000 A 
ATOM     28  C   UNL     1      16.753   4.785   4.762  0.00  0.00    +0.000 A 
ATOM     29  S   UNL     1      18.226   3.973   5.055  0.00  0.00    +0.000 S 
ATOM     30  C   UNL     1      18.262   3.344   3.476  0.00  0.00    +0.000 A 
ATOM     31  N   UNL     1      19.297   2.571   3.045  0.00  0.00    +0.000 NA
ATOM     32  C   UNL     1      19.207   2.185   1.825  0.00  0.00    +0.000 A 
ATOM     33  N   UNL     1      18.164   2.481   0.972  0.00  0.00    +0.000 N 
ATOM     34  C   UNL     1      17.076   3.209   1.389  0.00  0.00    +0.000 A 
ATOM     35  O   UNL     1      16.105   3.382   0.644  0.00  0.00    +0.000 OA
ATOM     36  C   UNL     1      17.148   3.713   2.742  0.00  0.00    +0.000 A 
ATOM     37  H   UNL     1      18.140   2.121   0.044  0.00  0.00    +0.000 HD
ENDBRANCH  24  27
ENDBRANCH  22  23
ENDBRANCH   4  22
TORSDOF 10
