REMARK  Name = 
REMARK  6 active torsions:
REMARK  status: ('A' for Active; 'I' for Inactive)
REMARK    1  A    between atoms: C_1  and  O_2
REMARK    2  A    between atoms: O_2  and  C_3
REMARK    3  A    between atoms: C_5  and  C_6
REMARK    4  A    between atoms: N_11  and  C_12
REMARK    5  A    between atoms: C_12  and  C_13
REMARK    6  A    between atoms: C_15  and  C_16
REMARK                            x       y       z     vdW  Elec       q    Type
REMARK                         _______ _______ _______ _____ _____    ______ ____
ROOT
ATOM      1  C   UNL     1       5.943   0.053  -0.999  0.00  0.00    +0.000 A 
ATOM      2  C   UNL     1       6.455  -0.891  -0.155  0.00  0.00    +0.000 A 
ATOM      3  C   UNL     1       6.855  -0.396   1.060  0.00  0.00    +0.000 A 
ATOM      4  N   UNL     1       6.762   0.907   1.427  0.00  0.00    +0.000 NA
ATOM      5  C   UNL     1       6.225   1.735   0.529  0.00  0.00    +0.000 A 
ATOM      6  N   UNL     1       6.009   3.059   0.838  0.00  0.00    +0.000 N 
ATOM      7  N   UNL     1       5.823   1.355  -0.684  0.00  0.00    +0.000 NA
ATOM      8  H   UNL     1       5.858   3.572  -0.024  0.00  0.00    +0.000 HD
ENDROOT
BRANCH   3   9
ATOM      9  C   UNL     1       7.435  -1.325   2.074  0.00  0.00    +0.000 C 
ATOM     10  N   UNL     1       7.822  -0.743   3.253  0.00  0.00    +0.000 N 
ATOM     11  O   UNL     1       7.559  -2.526   1.878  0.00  0.00    +0.000 OA
ATOM     12  H   UNL     1       7.643   0.240   3.415  0.00  0.00    +0.000 HD
ATOM     13  H   UNL     1       8.180  -1.326   3.997  0.00  0.00    +0.000 HD
ENDBRANCH   3   9
BRANCH   1  15
ATOM     14  C   UNL     1       4.999   0.656  -3.053  0.00  0.00    +0.000 C 
ATOM     15  O   UNL     1       5.528  -0.388  -2.240  0.00  0.00    +0.000 OA
ENDBRANCH   1  15
BRANCH   6  16
ATOM     16  C   UNL     1       6.923   3.705   1.762  0.00  0.00    +0.000 C 
BRANCH  16  17
ATOM     17  C   UNL     1       8.127   4.284   1.045  0.00  0.00    +0.000 A 
ATOM     18  C   UNL     1       9.274   3.513   0.854  0.00  0.00    +0.000 A 
ATOM     19  C   UNL     1      10.380   4.046   0.173  0.00  0.00    +0.000 A 
ATOM     20  C   UNL     1      10.263   5.364  -0.287  0.00  0.00    +0.000 A 
ATOM     21  C   UNL     1       9.088   6.065  -0.063  0.00  0.00    +0.000 A 
ATOM     22  N   UNL     1       8.021   5.553   0.580  0.00  0.00    +0.000 NA
BRANCH  19  23
ATOM     23  C   UNL     1      11.609   3.253  -0.049  0.00  0.00    +0.000 A 
ATOM     24  C   UNL     1      12.885   3.836  -0.078  0.00  0.00    +0.000 A 
ATOM     25  C   UNL     1      14.022   3.057  -0.293  0.00  0.00    +0.000 A 
ATOM     26  C   UNL     1      13.863   1.695  -0.465  0.00  0.00    +0.000 A 
ATOM     27  N   UNL     1      12.665   1.080  -0.444  0.00  0.00    +0.000 NA
ATOM     28  C   UNL     1      11.579   1.868  -0.244  0.00  0.00    +0.000 A 
ENDBRANCH  19  23
ENDBRANCH  16  17
ENDBRANCH   6  16
TORSDOF 5
