REMARK  Name = 
REMARK  6 active torsions:
REMARK  status: ('A' for Active; 'I' for Inactive)
REMARK    1  A    between atoms: C_2  and  C_3
REMARK    2  A    between atoms: C_6  and  N_7
REMARK    3  A    between atoms: N_7  and  C_8
REMARK    4  A    between atoms: C_8  and  C_9
REMARK    5  A    between atoms: C_13  and  C_14
REMARK    6  A    between atoms: C_18  and  C_19
REMARK                            x       y       z     vdW  Elec       q    Type
REMARK                         _______ _______ _______ _____ _____    ______ ____
ROOT
ATOM      1  C   UNL     1      10.179  -0.763  -1.062  0.00  0.00    +0.000 A 
ATOM      2  C   UNL     1      10.682   0.540  -1.187  0.00  0.00    +0.000 A 
ATOM      3  C   UNL     1      11.991   0.756  -1.629  0.00  0.00    +0.000 A 
ATOM      4  C   UNL     1      12.809  -0.325  -1.966  0.00  0.00    +0.000 A 
ATOM      5  C   UNL     1      12.345  -1.646  -1.860  0.00  0.00    +0.000 A 
ATOM      6  C   UNL     1      11.034  -1.835  -1.377  0.00  0.00    +0.000 A 
ENDROOT
BRANCH   5   7
ATOM      7  C   UNL     1      13.173  -2.789  -2.292  0.00  0.00    +0.000 A 
ATOM      8  C   UNL     1      13.098  -4.042  -1.679  0.00  0.00    +0.000 A 
ATOM      9  N   UNL     1      13.784  -5.143  -2.064  0.00  0.00    +0.000 NA
ATOM     10  C   UNL     1      14.612  -5.008  -3.122  0.00  0.00    +0.000 A 
ATOM     11  C   UNL     1      14.791  -3.821  -3.810  0.00  0.00    +0.000 A 
ATOM     12  C   UNL     1      14.061  -2.703  -3.378  0.00  0.00    +0.000 A 
BRANCH  11  13
ATOM     13  C   UNL     1      15.714  -3.750  -4.986  0.00  0.00    +0.000 C 
ATOM     14  F   UNL     1      16.325  -4.932  -5.273  0.00  0.00    +0.000 F 
ATOM     15  F   UNL     1      15.072  -3.377  -6.128  0.00  0.00    +0.000 F 
ATOM     16  F   UNL     1      16.716  -2.845  -4.811  0.00  0.00    +0.000 F 
ENDBRANCH  11  13
ENDBRANCH   5   7
BRANCH   1  17
ATOM     17  C   UNL     1       8.732  -1.046  -0.685  0.00  0.00    +0.000 C 
BRANCH  17  18
ATOM     18  N   UNL     1       8.573  -1.281   0.740  0.00  0.00    +0.000 N 
ATOM     19  H   UNL     1       9.097  -0.659   1.348  0.00  0.00    +0.000 HD
BRANCH  18  23
ATOM     20  C   UNL     1       4.884  -1.948   2.468  0.00  0.00    +0.000 A 
ATOM     21  C   UNL     1       5.888  -1.231   3.098  0.00  0.00    +0.000 A 
ATOM     22  N   UNL     1       7.099  -0.984   2.520  0.00  0.00    +0.000 NA
ATOM     23  C   UNL     1       7.306  -1.479   1.277  0.00  0.00    +0.000 A 
ATOM     24  C   UNL     1       6.283  -2.211   0.666  0.00  0.00    +0.000 A 
ATOM     25  N   UNL     1       5.061  -2.455   1.227  0.00  0.00    +0.000 NA
BRANCH  20  27
ATOM     26  N   UNL     1       2.599  -2.318   3.649  0.00  0.00    +0.000 NA
ATOM     27  C   UNL     1       3.614  -2.169   3.097  0.00  0.00    +0.000 C 
ENDBRANCH  20  27
ENDBRANCH  18  23
ENDBRANCH  17  18
ENDBRANCH   1  17
TORSDOF 6
