REMARK  Name = 
REMARK  7 active torsions:
REMARK  status: ('A' for Active; 'I' for Inactive)
REMARK    1  A    between atoms: N_1  and  C_2
REMARK    2  A    between atoms: C_2  and  C_3
REMARK    3  A    between atoms: C_3  and  N_4
REMARK    4  A    between atoms: C_3  and  C_17
REMARK    5  A    between atoms: C_5  and  C_7
REMARK    6  A    between atoms: C_20  and  O_21
REMARK    7  A    between atoms: O_21  and  C_22
REMARK                            x       y       z     vdW  Elec       q    Type
REMARK                         _______ _______ _______ _____ _____    ______ ____
ROOT
ATOM      1  C   UNL     1       2.828  -1.084  -0.745  0.00  0.00    +0.000 C 
ENDROOT
BRANCH   1   2
ATOM      2  C   UNL     1       4.355  -1.152  -0.807  0.00  0.00    +0.000 A 
ATOM      3  C   UNL     1       5.027  -2.299  -0.359  0.00  0.00    +0.000 A 
ATOM      4  C   UNL     1       6.423  -2.376  -0.410  0.00  0.00    +0.000 A 
ATOM      5  C   UNL     1       7.165  -1.333  -0.968  0.00  0.00    +0.000 A 
ATOM      6  C   UNL     1       6.510  -0.175  -1.387  0.00  0.00    +0.000 A 
ATOM      7  C   UNL     1       5.116  -0.084  -1.312  0.00  0.00    +0.000 A 
BRANCH   5   8
ATOM      8  O   UNL     1       8.537  -1.322  -1.077  0.00  0.00    +0.000 OA
BRANCH   8   9
ATOM      9  C   UNL     1       9.225  -2.478  -1.372  0.00  0.00    +0.000 A 
ATOM     10  C   UNL     1       8.712  -3.545  -2.115  0.00  0.00    +0.000 A 
ATOM     11  C   UNL     1       9.487  -4.687  -2.331  0.00  0.00    +0.000 A 
ATOM     12  C   UNL     1      10.796  -4.744  -1.856  0.00  0.00    +0.000 A 
ATOM     13  C   UNL     1      11.336  -3.654  -1.174  0.00  0.00    +0.000 A 
ATOM     14  C   UNL     1      10.551  -2.525  -0.933  0.00  0.00    +0.000 A 
ENDBRANCH   8   9
ENDBRANCH   5   8
ENDBRANCH   1   2
BRANCH   1  15
ATOM     15  N   UNL     1       2.315  -0.959  -2.104  0.00  0.00    +0.000 N 
ATOM     16  C   UNL     1       0.979  -1.036  -2.404  0.00  0.00    +0.000 C 
ATOM     17  O   UNL     1       0.104  -1.078  -1.546  0.00  0.00    +0.000 OA
ATOM     18  H   UNL     1       2.976  -1.188  -2.840  0.00  0.00    +0.000 HD
BRANCH  16  19
ATOM     19  C   UNL     1       0.638  -1.008  -3.826  0.00  0.00    +0.000 A 
ATOM     20  C   UNL     1      -0.570  -0.468  -4.246  0.00  0.00    +0.000 A 
ATOM     21  S   UNL     1      -0.795  -0.531  -5.936  0.00  0.00    +0.000 S 
ATOM     22  C   UNL     1       0.690  -1.331  -6.160  0.00  0.00    +0.000 A 
ATOM     23  N   UNL     1       1.097  -1.733  -7.393  0.00  0.00    +0.000 NA
ATOM     24  C   UNL     1       2.224  -2.363  -7.405  0.00  0.00    +0.000 A 
ATOM     25  N   UNL     1       2.991  -2.616  -6.300  0.00  0.00    +0.000 N 
ATOM     26  C   UNL     1       2.651  -2.177  -5.041  0.00  0.00    +0.000 A 
ATOM     27  O   UNL     1       3.406  -2.327  -4.085  0.00  0.00    +0.000 OA
ATOM     28  C   UNL     1       1.369  -1.505  -4.967  0.00  0.00    +0.000 A 
ATOM     29  H   UNL     1       3.880  -3.086  -6.379  0.00  0.00    +0.000 HD
ENDBRANCH  16  19
ENDBRANCH   1  15
BRANCH   1  30
ATOM     30  C   UNL     1       2.338   0.068   0.185  0.00  0.00    +0.000 C 
BRANCH  30  31
ATOM     31  N   UNL     1       2.846   0.001   1.563  0.00  0.00    +0.000 NA
ATOM     32  H   UNL     1       2.628   0.879   2.033  0.00  0.00    +0.000 HD
ATOM     33  H   UNL     1       3.863  -0.070   1.547  0.00  0.00    +0.000 HD
ENDBRANCH  30  31
ENDBRANCH   1  30
TORSDOF 7
