REMARK  Name = 
REMARK  5 active torsions:
REMARK  status: ('A' for Active; 'I' for Inactive)
REMARK    1  A    between atoms: N_1  and  C_2
REMARK    2  A    between atoms: C_2  and  C_3
REMARK    3  A    between atoms: C_6  and  C_7
REMARK    4  A    between atoms: C_7  and  N_8
REMARK    5  A    between atoms: C_13  and  C_14
REMARK                            x       y       z     vdW  Elec       q    Type
REMARK                         _______ _______ _______ _____ _____    ______ ____
ROOT
ATOM      1  N   UNL     1       0.004   4.139   3.026  0.00  0.00    +0.000 N 
ATOM      2  C   UNL     1       0.271   5.132   3.940  0.00  0.00    +0.000 A 
ATOM      3  C   UNL     1      -0.526   4.920   5.043  0.00  0.00    +0.000 A 
ATOM      4  C   UNL     1      -1.365   3.813   4.757  0.00  0.00    +0.000 A 
ATOM      5  C   UNL     1      -2.393   3.151   5.448  0.00  0.00    +0.000 A 
ATOM      6  C   UNL     1      -3.049   2.103   4.798  0.00  0.00    +0.000 A 
ATOM      7  C   UNL     1      -2.621   1.750   3.517  0.00  0.00    +0.000 A 
ATOM      8  N   UNL     1      -1.608   2.334   2.818  0.00  0.00    +0.000 NA
ATOM      9  C   UNL     1      -1.031   3.357   3.482  0.00  0.00    +0.000 A 
ENDROOT
BRANCH   6  10
ATOM     10  C   UNL     1      -4.190   1.364   5.392  0.00  0.00    +0.000 C 
ATOM     11  N   UNL     1      -4.626   1.722   6.640  0.00  0.00    +0.000 N 
ATOM     12  O   UNL     1      -4.749   0.459   4.785  0.00  0.00    +0.000 OA
ATOM     13  H   UNL     1      -4.246   2.464   7.203  0.00  0.00    +0.000 HD
ATOM     14  H   UNL     1      -5.422   1.216   7.008  0.00  0.00    +0.000 HD
ENDBRANCH   6  10
BRANCH   1  15
ATOM     15  C   UNL     1       0.729   3.952   1.776  0.00  0.00    +0.000 C 
BRANCH  15  19
ATOM     16  C   UNL     1       3.125   1.133   0.726  0.00  0.00    +0.000 C 
ATOM     17  C   UNL     1       2.333   1.188   2.044  0.00  0.00    +0.000 C 
ATOM     18  C   UNL     1       2.569   2.486   2.812  0.00  0.00    +0.000 C 
ATOM     19  C   UNL     1       2.248   3.737   1.975  0.00  0.00    +0.000 C 
ATOM     20  C   UNL     1       2.992   3.691   0.629  0.00  0.00    +0.000 C 
ATOM     21  C   UNL     1       2.803   2.374  -0.126  0.00  0.00    +0.000 C 
BRANCH  16  22
ATOM     22  C   UNL     1       4.647   0.984   0.941  0.00  0.00    +0.000 C 
BRANCH  22  23
ATOM     23  N   UNL     1       4.975  -0.234   1.674  0.00  0.00    +0.000 NA
ATOM     24  H   UNL     1       5.985  -0.309   1.781  0.00  0.00    +0.000 HD
ATOM     25  H   UNL     1       4.679  -1.048   1.136  0.00  0.00    +0.000 HD
ENDBRANCH  22  23
ENDBRANCH  16  22
ENDBRANCH  15  19
ENDBRANCH   1  15
TORSDOF 5
