REMARK  Name = 
REMARK  4 active torsions:
REMARK  status: ('A' for Active; 'I' for Inactive)
REMARK    1  A    between atoms: C_2  and  C_3
REMARK    2  A    between atoms: C_6  and  C_7
REMARK    3  A    between atoms: C_7  and  C_8
REMARK    4  A    between atoms: C_12  and  C_13
REMARK                            x       y       z     vdW  Elec       q    Type
REMARK                         _______ _______ _______ _____ _____    ______ ____
ROOT
ATOM      1  C   UNL     1      -3.907  -1.297   0.453  0.00  0.00    +0.000 A 
ATOM      2  C   UNL     1      -3.754  -2.458  -0.319  0.00  0.00    +0.000 A 
ATOM      3  C   UNL     1      -3.724  -3.717   0.277  0.00  0.00    +0.000 A 
ATOM      4  C   UNL     1      -3.841  -3.836   1.663  0.00  0.00    +0.000 A 
ATOM      5  C   UNL     1      -4.028  -2.707   2.476  0.00  0.00    +0.000 A 
ATOM      6  C   UNL     1      -4.116  -1.458   1.835  0.00  0.00    +0.000 A 
ENDROOT
BRANCH   5   7
ATOM      7  C   UNL     1      -3.988  -2.778   3.953  0.00  0.00    +0.000 A 
ATOM      8  C   UNL     1      -3.079  -3.631   4.606  0.00  0.00    +0.000 A 
ATOM      9  C   UNL     1      -2.940  -3.622   5.996  0.00  0.00    +0.000 A 
ATOM     10  C   UNL     1      -3.703  -2.752   6.767  0.00  0.00    +0.000 A 
ATOM     11  C   UNL     1      -4.620  -1.907   6.150  0.00  0.00    +0.000 A 
ATOM     12  C   UNL     1      -4.767  -1.928   4.759  0.00  0.00    +0.000 A 
ENDBRANCH   5   7
BRANCH   1  13
ATOM     13  C   UNL     1      -3.676   0.090  -0.144  0.00  0.00    +0.000 C 
ATOM     14  C   UNL     1      -2.764   1.051   0.627  0.00  0.00    +0.000 C 
ATOM     15  C   UNL     1      -2.238   0.369  -0.592  0.00  0.00    +0.000 C 
BRANCH  13  19
ATOM     16  C   UNL     1      -6.731   1.870  -2.602  0.00  0.00    +0.000 A 
ATOM     17  C   UNL     1      -6.757   2.092  -1.229  0.00  0.00    +0.000 A 
ATOM     18  C   UNL     1      -5.787   1.495  -0.421  0.00  0.00    +0.000 A 
ATOM     19  C   UNL     1      -4.796   0.691  -0.993  0.00  0.00    +0.000 A 
ATOM     20  N   UNL     1      -4.781   0.468  -2.336  0.00  0.00    +0.000 NA
ATOM     21  C   UNL     1      -5.735   1.051  -3.102  0.00  0.00    +0.000 A 
BRANCH  16  23
ATOM     22  N   UNL     1      -8.468   2.949  -4.187  0.00  0.00    +0.000 NA
ATOM     23  C   UNL     1      -7.688   2.464  -3.475  0.00  0.00    +0.000 C 
ENDBRANCH  16  23
ENDBRANCH  13  19
ENDBRANCH   1  13
TORSDOF 4
