REMARK  Name = 
REMARK  7 active torsions:
REMARK  status: ('A' for Active; 'I' for Inactive)
REMARK    1  A    between atoms: C_2  and  C_3
REMARK    2  A    between atoms: C_3  and  N_4
REMARK    3  A    between atoms: C_3  and  C_17
REMARK    4  A    between atoms: C_5  and  C_7
REMARK    5  A    between atoms: C_20  and  C_21
REMARK    6  A    between atoms: C_21  and  N_22
REMARK    7  A    between atoms: C_23  and  C_25
REMARK                            x       y       z     vdW  Elec       q    Type
REMARK                         _______ _______ _______ _____ _____    ______ ____
ROOT
ATOM      1  C   UNL     1       3.839  -0.077   0.203  0.00  0.00    +0.000 C 
ENDROOT
BRANCH   1   2
ATOM      2  C   UNL     1       4.286  -1.248  -0.669  0.00  0.00    +0.000 A 
ATOM      3  C   UNL     1       5.258  -1.042  -1.666  0.00  0.00    +0.000 A 
ATOM      4  C   UNL     1       5.686  -2.092  -2.487  0.00  0.00    +0.000 A 
ATOM      5  C   UNL     1       5.140  -3.374  -2.349  0.00  0.00    +0.000 A 
ATOM      6  C   UNL     1       4.184  -3.589  -1.348  0.00  0.00    +0.000 A 
ATOM      7  C   UNL     1       3.749  -2.538  -0.530  0.00  0.00    +0.000 A 
BRANCH   5   8
ATOM      8  C   UNL     1       5.560  -4.499  -3.260  0.00  0.00    +0.000 C 
BRANCH   8   9
ATOM      9  N   UNL     1       6.679  -5.240  -2.738  0.00  0.00    +0.000 N 
ATOM     10  C   UNL     1       7.149  -6.358  -3.389  0.00  0.00    +0.000 C 
ATOM     11  O   UNL     1       6.618  -6.800  -4.405  0.00  0.00    +0.000 OA
ATOM     12  H   UNL     1       7.186  -4.865  -1.952  0.00  0.00    +0.000 HD
BRANCH  10  13
ATOM     13  C   UNL     1       8.317  -6.978  -2.799  0.00  0.00    +0.000 A 
ATOM     14  C   UNL     1       9.058  -6.679  -1.665  0.00  0.00    +0.000 A 
ATOM     15  C   UNL     1      10.116  -7.617  -1.566  0.00  0.00    +0.000 A 
ATOM     16  C   UNL     1      10.002  -8.475  -2.633  0.00  0.00    +0.000 A 
ATOM     17  N   UNL     1       8.912  -8.088  -3.367  0.00  0.00    +0.000 N 
ATOM     18  H   UNL     1       8.574  -8.536  -4.211  0.00  0.00    +0.000 HD
ENDBRANCH  10  13
ENDBRANCH   8   9
ENDBRANCH   5   8
ENDBRANCH   1   2
BRANCH   1  19
ATOM     19  N   UNL     1       2.668   0.570  -0.374  0.00  0.00    +0.000 N 
ATOM     20  C   UNL     1       2.474   1.919  -0.206  0.00  0.00    +0.000 C 
ATOM     21  O   UNL     1       3.303   2.613   0.376  0.00  0.00    +0.000 OA
ATOM     22  H   UNL     1       1.886  -0.019  -0.649  0.00  0.00    +0.000 HD
BRANCH  20  23
ATOM     23  C   UNL     1       1.279   2.517  -0.811  0.00  0.00    +0.000 A 
ATOM     24  C   UNL     1       1.289   3.865  -1.146  0.00  0.00    +0.000 A 
ATOM     25  S   UNL     1      -0.167   4.411  -1.845  0.00  0.00    +0.000 S 
ATOM     26  C   UNL     1      -0.883   2.878  -1.674  0.00  0.00    +0.000 A 
ATOM     27  N   UNL     1      -2.175   2.667  -2.043  0.00  0.00    +0.000 NA
ATOM     28  C   UNL     1      -2.605   1.471  -1.816  0.00  0.00    +0.000 A 
ATOM     29  N   UNL     1      -1.851   0.461  -1.272  0.00  0.00    +0.000 N 
ATOM     30  C   UNL     1      -0.523   0.610  -0.945  0.00  0.00    +0.000 A 
ATOM     31  O   UNL     1       0.161  -0.331  -0.557  0.00  0.00    +0.000 OA
ATOM     32  C   UNL     1      -0.009   1.953  -1.131  0.00  0.00    +0.000 A 
ATOM     33  H   UNL     1      -2.248  -0.458  -1.141  0.00  0.00    +0.000 HD
ENDBRANCH  20  23
ENDBRANCH   1  19
BRANCH   1  35
ATOM     34  N   UNL     1       3.436  -0.772   2.726  0.00  0.00    +0.000 NA
ATOM     35  C   UNL     1       3.615  -0.457   1.622  0.00  0.00    +0.000 C 
ENDBRANCH   1  35
TORSDOF 7
