REMARK  Name = 
REMARK  11 active torsions:
REMARK  status: ('A' for Active; 'I' for Inactive)
REMARK    1  A    between atoms: N_1  and  C_2
REMARK    2  A    between atoms: C_2  and  C_3
REMARK    3  A    between atoms: C_2  and  C_21
REMARK    4  A    between atoms: C_3  and  C_4
REMARK    5  A    between atoms: C_7  and  C_8
REMARK    6  A    between atoms: C_8  and  N_9
REMARK    7  A    between atoms: N_9  and  CA_10
REMARK    8  A    between atoms: CA_10  and  C_11
REMARK    9  A    between atoms: CA_10  and  C_13
REMARK   10  A    between atoms: C_11  and  O_12
REMARK   11  A    between atoms: C_21  and  C_23
REMARK                            x       y       z     vdW  Elec       q    Type
REMARK                         _______ _______ _______ _____ _____    ______ ____
ROOT
ATOM      1  C   UNL     1       0.456  -1.385   0.219  0.00  0.00    +0.000 A 
ATOM      2  C   UNL     1       1.350  -2.458   0.283  0.00  0.00    +0.000 A 
ATOM      3  C   UNL     1       0.883  -3.772   0.223  0.00  0.00    +0.000 A 
ATOM      4  C   UNL     1      -0.489  -4.043   0.118  0.00  0.00    +0.000 A 
ATOM      5  C   UNL     1      -1.387  -2.967   0.105  0.00  0.00    +0.000 A 
ATOM      6  C   UNL     1      -0.918  -1.649   0.150  0.00  0.00    +0.000 A 
ENDROOT
BRANCH   1   7
ATOM      7  C   UNL     1       0.983   0.031   0.160  0.00  0.00    +0.000 C 
BRANCH   7   8
ATOM      8  C   UNL     1       1.088   0.552  -1.284  0.00  0.00    +0.000 C 
BRANCH   8   9
ATOM      9  N   UNL     1       1.511   1.976  -1.269  0.00  0.00    +0.000 NA
ATOM     10  H   UNL     1       1.373   2.356  -2.208  0.00  0.00    +0.000 HD
ATOM     11  H   UNL     1       2.526   1.996  -1.116  0.00  0.00    +0.000 HD
ENDBRANCH   8   9
BRANCH   8  12
ATOM     12  C   UNL     1       2.108  -0.262  -2.118  0.00  0.00    +0.000 C 
ATOM     13  O   UNL     1       3.311  -0.195  -1.837  0.00  0.00    +0.000 OA
BRANCH  12  14
ATOM     14  C   UNL     1       1.657  -1.159  -3.198  0.00  0.00    +0.000 A 
ATOM     15  C   UNL     1       2.382  -2.298  -3.515  0.00  0.00    +0.000 A 
ATOM     16  S   UNL     1       1.623  -3.277  -4.692  0.00  0.00    +0.000 S 
ATOM     17  C   UNL     1       0.330  -2.182  -4.849  0.00  0.00    +0.000 A 
ATOM     18  N   UNL     1      -0.720  -2.438  -5.674  0.00  0.00    +0.000 NA
ATOM     19  C   UNL     1      -1.630  -1.521  -5.678  0.00  0.00    +0.000 A 
ATOM     20  N   UNL     1      -1.565  -0.351  -4.961  0.00  0.00    +0.000 N 
ATOM     21  C   UNL     1      -0.451   0.014  -4.251  0.00  0.00    +0.000 A 
ATOM     22  O   UNL     1      -0.278   1.168  -3.870  0.00  0.00    +0.000 OA
ATOM     23  C   UNL     1       0.516  -1.055  -4.066  0.00  0.00    +0.000 A 
ATOM     24  H   UNL     1      -2.264   0.365  -5.089  0.00  0.00    +0.000 HD
ENDBRANCH  12  14
ENDBRANCH   8  12
ENDBRANCH   7   8
ENDBRANCH   1   7
BRANCH   4  25
ATOM     25  C   UNL     1      -0.974  -5.469  -0.044  0.00  0.00    +0.000 C 
BRANCH  25  26
ATOM     26  N   UNL     1      -0.509  -6.313   1.055  0.00  0.00    +0.000 NA
ATOM     27  H   UNL     1      -0.860  -5.908   1.926  0.00  0.00    +0.000 HD
BRANCH  26  28
ATOM     28  CA  UNL     1      -0.989  -7.713   0.991  0.00  0.00    +0.000 C 
BRANCH  28  29
ATOM     29  C   UNL     1      -0.588  -8.463   2.264  0.00  0.00    +0.000 A 
ATOM     30  C   UNL     1      -1.360  -9.542   2.724  0.00  0.00    +0.000 A 
ATOM     31  C   UNL     1      -1.000 -10.235   3.886  0.00  0.00    +0.000 A 
ATOM     32  C   UNL     1       0.134  -9.859   4.604  0.00  0.00    +0.000 A 
ATOM     33  C   UNL     1       0.917  -8.800   4.157  0.00  0.00    +0.000 A 
ATOM     34  C   UNL     1       0.564  -8.115   2.994  0.00  0.00    +0.000 A 
ENDBRANCH  28  29
BRANCH  28  35
ATOM     35  C   UNL     1      -0.470  -8.471  -0.263  0.00  0.00    +0.000 C 
BRANCH  35  36
ATOM     36  O   UNL     1       0.954  -8.429  -0.368  0.00  0.00    +0.000 OA
ATOM     37  H   UNL     1       1.225  -7.609   0.085  0.00  0.00    +0.000 HD
ENDBRANCH  35  36
ENDBRANCH  28  35
ENDBRANCH  26  28
ENDBRANCH  25  26
ENDBRANCH   4  25
TORSDOF 11
