REMARK  Name = 
REMARK  12 active torsions:
REMARK  status: ('A' for Active; 'I' for Inactive)
REMARK    1  A    between atoms: C_1  and  N_2
REMARK    2  A    between atoms: N_2  and  C_3
REMARK    3  A    between atoms: N_2  and  C_4
REMARK    4  A    between atoms: C_4  and  C_5
REMARK    5  A    between atoms: C_5  and  C_6
REMARK    6  A    between atoms: C_6  and  C_7
REMARK    7  A    between atoms: C_7  and  O_8
REMARK    8  A    between atoms: O_8  and  C_9
REMARK    9  A    between atoms: C_12  and  C_13
REMARK   10  A    between atoms: C_13  and  N_14
REMARK   11  A    between atoms: N_14  and  C_15
REMARK   12  A    between atoms: C_18  and  C_19
REMARK                            x       y       z     vdW  Elec       q    Type
REMARK                         _______ _______ _______ _____ _____    ______ ____
ROOT
ATOM      1  C   UNL     1       8.289   2.065  -3.957  0.00  0.00    +0.000 A 
ATOM      2  C   UNL     1       9.120   0.969  -3.725  0.00  0.00    +0.000 A 
ATOM      3  C   UNL     1      10.487   1.048  -4.008  0.00  0.00    +0.000 A 
ATOM      4  C   UNL     1      11.046   2.228  -4.517  0.00  0.00    +0.000 A 
ATOM      5  C   UNL     1      10.201   3.313  -4.783  0.00  0.00    +0.000 A 
ATOM      6  C   UNL     1       8.835   3.232  -4.498  0.00  0.00    +0.000 A 
ENDROOT
BRANCH   1   7
ATOM      7  O   UNL     1       6.950   2.118  -3.694  0.00  0.00    +0.000 OA
BRANCH   7   8
ATOM      8  C   UNL     1       6.346   0.931  -3.177  0.00  0.00    +0.000 C 
BRANCH   8   9
ATOM      9  C   UNL     1       4.851   1.174  -2.987  0.00  0.00    +0.000 C 
BRANCH   9  10
ATOM     10  C   UNL     1       4.157   1.506  -4.311  0.00  0.00    +0.000 C 
BRANCH  10  11
ATOM     11  C   UNL     1       2.660   1.802  -4.143  0.00  0.00    +0.000 C 
BRANCH  11  13
ATOM     12  C   UNL     1       2.915   4.178  -3.661  0.00  0.00    +0.000 C 
ATOM     13  N   UNL     1       2.362   2.899  -3.208  0.00  0.00    +0.000 NA
ATOM     14  C   UNL     1       0.916   3.021  -3.016  0.00  0.00    +0.000 C 
ENDBRANCH  11  13
ENDBRANCH  10  11
ENDBRANCH   9  10
ENDBRANCH   8   9
ENDBRANCH   7   8
ENDBRANCH   1   7
BRANCH   4  15
ATOM     15  C   UNL     1      12.534   2.326  -4.758  0.00  0.00    +0.000 C 
BRANCH  15  16
ATOM     16  N   UNL     1      12.861   1.869  -6.099  0.00  0.00    +0.000 N 
ATOM     17  H   UNL     1      12.312   1.067  -6.397  0.00  0.00    +0.000 HD
BRANCH  16  18
ATOM     18  C   UNL     1      14.193   1.792  -6.512  0.00  0.00    +0.000 A 
ATOM     19  C   UNL     1      15.265   2.341  -5.798  0.00  0.00    +0.000 A 
ATOM     20  C   UNL     1      16.573   2.292  -6.298  0.00  0.00    +0.000 A 
ATOM     21  C   UNL     1      16.833   1.714  -7.543  0.00  0.00    +0.000 A 
ATOM     22  C   UNL     1      15.770   1.210  -8.294  0.00  0.00    +0.000 A 
ATOM     23  C   UNL     1      14.466   1.258  -7.781  0.00  0.00    +0.000 A 
BRANCH  21  24
ATOM     24  C   UNL     1      18.236   1.698  -8.036  0.00  0.00    +0.000 C 
ATOM     25  N   UNL     1      18.568   0.758  -8.971  0.00  0.00    +0.000 N 
ATOM     26  O   UNL     1      19.080   2.471  -7.600  0.00  0.00    +0.000 OA
ATOM     27  H   UNL     1      17.979  -0.032  -9.189  0.00  0.00    +0.000 HD
ATOM     28  H   UNL     1      19.547   0.701  -9.220  0.00  0.00    +0.000 HD
ENDBRANCH  21  24
ENDBRANCH  16  18
ENDBRANCH  15  16
ENDBRANCH   4  15
TORSDOF 10
