REMARK  Name = 
REMARK  7 active torsions:
REMARK  status: ('A' for Active; 'I' for Inactive)
REMARK    1  A    between atoms: C_1  and  C_2
REMARK    2  A    between atoms: C_2  and  C_3
REMARK    3  A    between atoms: C_2  and  C_15
REMARK    4  A    between atoms: C_3  and  N_4
REMARK    5  A    between atoms: N_4  and  C_5
REMARK    6  A    between atoms: C_8  and  C_9
REMARK    7  A    between atoms: C_19  and  C_20
REMARK                            x       y       z     vdW  Elec       q    Type
REMARK                         _______ _______ _______ _____ _____    ______ ____
ROOT
ATOM      1  N   UNL     1       2.827  -0.936   2.318  0.00  0.00    +0.000 N 
ATOM      2  H   UNL     1       1.843  -0.809   2.547  0.00  0.00    +0.000 HD
ENDROOT
BRANCH   1   3
ATOM      3  C   UNL     1       3.359  -1.940   3.145  0.00  0.00    +0.000 A 
ATOM      4  N   UNL     1       4.071  -2.936   2.570  0.00  0.00    +0.000 NA
ATOM      5  C   UNL     1       4.574  -3.912   3.364  0.00  0.00    +0.000 A 
ATOM      6  C   UNL     1       4.422  -3.951   4.738  0.00  0.00    +0.000 A 
ATOM      7  C   UNL     1       3.719  -2.903   5.336  0.00  0.00    +0.000 A 
ATOM      8  C   UNL     1       3.181  -1.892   4.538  0.00  0.00    +0.000 A 
ATOM      9 CL   UNL     1       2.290  -0.623   5.301  0.00  0.00    +0.000 Cl
BRANCH   6  10
ATOM     10  C   UNL     1       4.952  -5.048   5.581  0.00  0.00    +0.000 C 
ATOM     11  N   UNL     1       5.578  -6.103   4.981  0.00  0.00    +0.000 N 
ATOM     12  O   UNL     1       4.822  -5.023   6.799  0.00  0.00    +0.000 OA
ATOM     13  H   UNL     1       5.703  -6.246   3.991  0.00  0.00    +0.000 HD
ATOM     14  H   UNL     1       5.893  -6.846   5.594  0.00  0.00    +0.000 HD
ENDBRANCH   6  10
ENDBRANCH   1   3
BRANCH   1  15
ATOM     15  C   UNL     1       3.044  -1.161   0.896  0.00  0.00    +0.000 C 
BRANCH  15  17
ATOM     16  C   UNL     1       2.858   1.302   0.178  0.00  0.00    +0.000 C 
ATOM     17  C   UNL     1       2.306  -0.088   0.152  0.00  0.00    +0.000 C 
BRANCH  17  18
ATOM     18  C   UNL     1       0.908  -0.322  -0.237  0.00  0.00    +0.000 A 
ATOM     19  C   UNL     1      -0.086   0.585   0.147  0.00  0.00    +0.000 A 
ATOM     20  C   UNL     1      -1.427   0.344  -0.151  0.00  0.00    +0.000 A 
ATOM     21  C   UNL     1      -1.789  -0.801  -0.857  0.00  0.00    +0.000 A 
ATOM     22  C   UNL     1      -0.806  -1.704  -1.274  0.00  0.00    +0.000 A 
ATOM     23  C   UNL     1       0.538  -1.465  -0.959  0.00  0.00    +0.000 A 
BRANCH  22  24
ATOM     24  C   UNL     1      -1.177  -2.881  -2.007  0.00  0.00    +0.000 C 
ATOM     25  N   UNL     1      -1.475  -3.832  -2.598  0.00  0.00    +0.000 NA
ENDBRANCH  22  24
ENDBRANCH  17  18
ENDBRANCH  15  17
ENDBRANCH   1  15
TORSDOF 6
