REMARK  Name = 
REMARK  4 active torsions:
REMARK  status: ('A' for Active; 'I' for Inactive)
REMARK    1  A    between atoms: C_2  and  C_4
REMARK    2  A    between atoms: N_8  and  C_9
REMARK    3  A    between atoms: C_9  and  C_10
REMARK    4  A    between atoms: C_14  and  C_15
REMARK                            x       y       z     vdW  Elec       q    Type
REMARK                         _______ _______ _______ _____ _____    ______ ____
ROOT
ATOM      1  C   UNL     1       5.077  -3.447  -5.022  0.00  0.00    +0.000 C 
ENDROOT
BRANCH   1   6
ATOM      2  C   UNL     1       3.351  -0.775  -0.989  0.00  0.00    +0.000 A 
ATOM      3  C   UNL     1       2.989  -0.743  -2.330  0.00  0.00    +0.000 A 
ATOM      4  C   UNL     1       3.638  -1.592  -3.226  0.00  0.00    +0.000 A 
ATOM      5  C   UNL     1       4.634  -2.454  -2.774  0.00  0.00    +0.000 A 
ATOM      6  N   UNL     1       5.285  -3.329  -3.592  0.00  0.00    +0.000 N 
ATOM      7  N   UNL     1       5.005  -2.472  -1.479  0.00  0.00    +0.000 NA
ATOM      8  C   UNL     1       4.371  -1.634  -0.617  0.00  0.00    +0.000 A 
ATOM      9  H   UNL     1       6.007  -3.902  -3.168  0.00  0.00    +0.000 HD
BRANCH   2  11
ATOM     10  N   UNL     1       1.401   0.435  -0.205  0.00  0.00    +0.000 N 
ATOM     11  C   UNL     1       2.698   0.070   0.030  0.00  0.00    +0.000 C 
ATOM     12  O   UNL     1       3.276   0.399   1.058  0.00  0.00    +0.000 OA
ATOM     13  H   UNL     1       0.927   0.921   0.546  0.00  0.00    +0.000 HD
ATOM     14  H   UNL     1       0.827  -0.020  -0.900  0.00  0.00    +0.000 HD
ENDBRANCH   2  11
ENDBRANCH   1   6
BRANCH   1  15
ATOM     15  C   UNL     1       5.986  -4.470  -5.685  0.00  0.00    +0.000 A 
ATOM     16  N   UNL     1       6.860  -5.158  -4.921  0.00  0.00    +0.000 NA
ATOM     17  C   UNL     1       7.648  -6.034  -5.563  0.00  0.00    +0.000 A 
ATOM     18  C   UNL     1       7.594  -6.250  -6.920  0.00  0.00    +0.000 A 
ATOM     19  C   UNL     1       6.663  -5.515  -7.632  0.00  0.00    +0.000 A 
ATOM     20  N   UNL     1       5.860  -4.617  -7.022  0.00  0.00    +0.000 NA
BRANCH  19  21
ATOM     21  C   UNL     1       6.495  -5.640  -9.096  0.00  0.00    +0.000 A 
ATOM     22  C   UNL     1       6.746  -6.850  -9.775  0.00  0.00    +0.000 A 
ATOM     23  C   UNL     1       6.617  -6.952 -11.165  0.00  0.00    +0.000 A 
ATOM     24  C   UNL     1       6.223  -5.845 -11.908  0.00  0.00    +0.000 A 
ATOM     25  C   UNL     1       5.949  -4.652 -11.253  0.00  0.00    +0.000 A 
ATOM     26  F   UNL     1       5.563  -3.586 -11.966  0.00  0.00    +0.000 F 
ATOM     27  C   UNL     1       6.076  -4.543  -9.871  0.00  0.00    +0.000 A 
ENDBRANCH  19  21
ENDBRANCH   1  15
TORSDOF 4
