REMARK  Name = 
REMARK  5 active torsions:
REMARK  status: ('A' for Active; 'I' for Inactive)
REMARK    1  A    between atoms: C_2  and  C_4
REMARK    2  A    between atoms: N_8  and  C_9
REMARK    3  A    between atoms: C_9  and  C_10
REMARK    4  A    between atoms: C_10  and  O_11
REMARK    5  A    between atoms: C_10  and  C_12
REMARK                            x       y       z     vdW  Elec       q    Type
REMARK                         _______ _______ _______ _____ _____    ______ ____
ROOT
ATOM      1  C   UNL     1       4.237  -0.044   1.259  0.00  0.00    +0.000 A 
ATOM      2  C   UNL     1       5.353   0.672   0.836  0.00  0.00    +0.000 A 
ATOM      3  C   UNL     1       5.772   1.771   1.581  0.00  0.00    +0.000 A 
ATOM      4  C   UNL     1       5.093   2.120   2.748  0.00  0.00    +0.000 A 
ATOM      5  N   UNL     1       5.672   3.095   3.551  0.00  0.00    +0.000 N 
ATOM      6  N   UNL     1       3.993   1.455   3.148  0.00  0.00    +0.000 NA
ATOM      7  C   UNL     1       3.573   0.404   2.391  0.00  0.00    +0.000 A 
ATOM      8  H   UNL     1       5.862   3.964   3.062  0.00  0.00    +0.000 HD
ENDROOT
BRANCH   1  10
ATOM      9  N   UNL     1       4.668  -1.988  -0.131  0.00  0.00    +0.000 N 
ATOM     10  C   UNL     1       3.749  -1.249   0.561  0.00  0.00    +0.000 C 
ATOM     11  O   UNL     1       2.577  -1.598   0.631  0.00  0.00    +0.000 OA
ATOM     12  H   UNL     1       4.341  -2.869  -0.510  0.00  0.00    +0.000 HD
ATOM     13  H   UNL     1       5.663  -1.884   0.007  0.00  0.00    +0.000 HD
ENDBRANCH   1  10
BRANCH   5  14
ATOM     14  C   UNL     1       5.126   3.278   4.894  0.00  0.00    +0.000 C 
BRANCH  14  15
ATOM     15  C   UNL     1       6.125   4.140   5.711  0.00  0.00    +0.000 C 
BRANCH  15  16
ATOM     16  C   UNL     1       5.835   4.153   7.199  0.00  0.00    +0.000 A 
ATOM     17  C   UNL     1       5.828   2.939   7.910  0.00  0.00    +0.000 A 
ATOM     18  C   UNL     1       5.576   2.910   9.282  0.00  0.00    +0.000 A 
ATOM     19  C   UNL     1       5.343   4.097   9.971  0.00  0.00    +0.000 A 
ATOM     20  C   UNL     1       5.371   5.311   9.289  0.00  0.00    +0.000 A 
ATOM     21  C   UNL     1       5.620   5.340   7.915  0.00  0.00    +0.000 A 
ENDBRANCH  15  16
BRANCH  15  22
ATOM     22  O   UNL     1       6.158   5.469   5.159  0.00  0.00    +0.000 OA
ATOM     23  H   UNL     1       5.236   5.777   5.119  0.00  0.00    +0.000 HD
ENDBRANCH  15  22
ENDBRANCH  14  15
ENDBRANCH   5  14
TORSDOF 5
