REMARK  Name = 
REMARK  7 active torsions:
REMARK  status: ('A' for Active; 'I' for Inactive)
REMARK    1  A    between atoms: C_1  and  C_2
REMARK    2  A    between atoms: C_2  and  C_3
REMARK    3  A    between atoms: C_2  and  N_4
REMARK    4  A    between atoms: N_4  and  C_5
REMARK    5  A    between atoms: C_5  and  C_6
REMARK    6  A    between atoms: C_9  and  C_10
REMARK    7  A    between atoms: C_10  and  N_11
REMARK                            x       y       z     vdW  Elec       q    Type
REMARK                         _______ _______ _______ _____ _____    ______ ____
ROOT
ATOM      1  C   UNL     1       4.889  -0.853  -2.638  0.00  0.00    +0.000 A 
ATOM      2  C   UNL     1       5.419   0.109  -3.507  0.00  0.00    +0.000 A 
ATOM      3  C   UNL     1       5.891  -0.256  -4.771  0.00  0.00    +0.000 A 
ATOM      4  C   UNL     1       5.852  -1.592  -5.192  0.00  0.00    +0.000 A 
ATOM      5  C   UNL     1       5.323  -2.555  -4.322  0.00  0.00    +0.000 A 
ATOM      6  C   UNL     1       4.842  -2.188  -3.062  0.00  0.00    +0.000 A 
ENDROOT
BRANCH   1   7
ATOM      7  C   UNL     1       4.405  -0.472  -1.255  0.00  0.00    +0.000 C 
BRANCH   7   8
ATOM      8  N   UNL     1       3.237   0.407  -1.313  0.00  0.00    +0.000 NA
ATOM      9  H   UNL     1       3.477   1.229  -1.866  0.00  0.00    +0.000 HD
BRANCH   8  11
ATOM     10  C   UNL     1       1.654   1.869  -0.191  0.00  0.00    +0.000 C 
ATOM     11  C   UNL     1       2.771   0.840   0.011  0.00  0.00    +0.000 C 
ATOM     12  C   UNL     1       2.245  -0.325   0.852  0.00  0.00    +0.000 C 
ENDBRANCH   8  11
ENDBRANCH   7   8
ENDBRANCH   1   7
BRANCH   4  13
ATOM     13  C   UNL     1       6.378  -1.992  -6.546  0.00  0.00    +0.000 C 
BRANCH  13  14
ATOM     14  N   UNL     1       7.794  -2.350  -6.502  0.00  0.00    +0.000 N 
ATOM     15  C   UNL     1       8.259  -3.617  -6.239  0.00  0.00    +0.000 A 
ATOM     16  C   UNL     1       9.629  -3.602  -6.359  0.00  0.00    +0.000 A 
ATOM     17  C   UNL     1      10.018  -2.282  -6.719  0.00  0.00    +0.000 A 
ATOM     18  C   UNL     1      11.252  -1.676  -6.986  0.00  0.00    +0.000 A 
ATOM     19  N   UNL     1      11.319  -0.365  -7.322  0.00  0.00    +0.000 NA
ATOM     20  C   UNL     1      10.174   0.344  -7.394  0.00  0.00    +0.000 A 
ATOM     21  C   UNL     1       8.906  -0.161  -7.148  0.00  0.00    +0.000 A 
ATOM     22  C   UNL     1       8.853  -1.515  -6.805  0.00  0.00    +0.000 A 
ENDBRANCH  13  14
ENDBRANCH   4  13
TORSDOF 5
