REMARK  Name = 
REMARK  8 active torsions:
REMARK  status: ('A' for Active; 'I' for Inactive)
REMARK    1  A    between atoms: C_1  and  C_2
REMARK    2  A    between atoms: C_2  and  C_3
REMARK    3  A    between atoms: C_7  and  C_8
REMARK    4  A    between atoms: C_8  and  C_9
REMARK    5  A    between atoms: C_9  and  N_10
REMARK    6  A    between atoms: N_10  and  C_11
REMARK    7  A    between atoms: C_14  and  C_15
REMARK    8  A    between atoms: C_23  and  O_24
REMARK                            x       y       z     vdW  Elec       q    Type
REMARK                         _______ _______ _______ _____ _____    ______ ____
ROOT
ATOM      1  C   UNL     1       3.037   0.424   1.356  0.00  0.00    +0.000 A 
ATOM      2  C   UNL     1       2.775   1.692   1.895  0.00  0.00    +0.000 A 
ATOM      3  C   UNL     1       3.086   1.989   3.225  0.00  0.00    +0.000 A 
ATOM      4  C   UNL     1       3.648   1.019   4.055  0.00  0.00    +0.000 A 
ATOM      5  C   UNL     1       3.926  -0.255   3.557  0.00  0.00    +0.000 A 
ATOM      6  C   UNL     1       3.653  -0.507   2.200  0.00  0.00    +0.000 A 
ENDROOT
BRANCH   1   8
ATOM      7  C   UNL     1       1.016   0.121  -0.038  0.00  0.00    +0.000 C 
ATOM      8  C   UNL     1       2.561   0.035  -0.061  0.00  0.00    +0.000 C 
ATOM      9  C   UNL     1       3.155   1.016  -1.104  0.00  0.00    +0.000 C 
ATOM     10  C   UNL     1       2.833   0.642  -2.555  0.00  0.00    +0.000 C 
ATOM     11  C   UNL     1       3.213  -0.795  -2.902  0.00  0.00    +0.000 C 
ATOM     12  C   UNL     1       2.629  -1.791  -1.908  0.00  0.00    +0.000 C 
ATOM     13  C   UNL     1       2.967  -1.419  -0.464  0.00  0.00    +0.000 C 
BRANCH  11  14
ATOM     14  O   UNL     1       4.631  -0.932  -2.952  0.00  0.00    +0.000 OA
ATOM     15  H   UNL     1       5.007  -0.660  -2.099  0.00  0.00    +0.000 HD
ENDBRANCH  11  14
ENDBRANCH   1   8
BRANCH   5  16
ATOM     16  C   UNL     1       4.446  -1.347   4.481  0.00  0.00    +0.000 C 
BRANCH  16  17
ATOM     17  C   UNL     1       4.702  -2.675   3.759  0.00  0.00    +0.000 C 
BRANCH  17  18
ATOM     18  N   UNL     1       5.152  -3.754   4.633  0.00  0.00    +0.000 N 
ATOM     19  H   UNL     1       4.556  -3.864   5.452  0.00  0.00    +0.000 HD
BRANCH  18  20
ATOM     20  C   UNL     1       5.371  -4.985   3.975  0.00  0.00    +0.000 A 
ATOM     21  C   UNL     1       5.841  -5.072   2.658  0.00  0.00    +0.000 A 
ATOM     22  C   UNL     1       6.147  -6.304   2.083  0.00  0.00    +0.000 A 
ATOM     23  C   UNL     1       5.999  -7.437   2.861  0.00  0.00    +0.000 A 
ATOM     24  N   UNL     1       5.557  -7.423   4.148  0.00  0.00    +0.000 NA
ATOM     25  C   UNL     1       5.273  -6.199   4.665  0.00  0.00    +0.000 A 
BRANCH  23  26
ATOM     26  C   UNL     1       6.383  -8.764   2.281  0.00  0.00    +0.000 C 
ATOM     27  N   UNL     1       6.215  -9.833   3.116  0.00  0.00    +0.000 N 
ATOM     28  O   UNL     1       6.824  -8.891   1.150  0.00  0.00    +0.000 OA
ATOM     29  H   UNL     1       5.889  -9.678   4.064  0.00  0.00    +0.000 HD
ATOM     30  H   UNL     1       6.503 -10.752   2.812  0.00  0.00    +0.000 HD
ENDBRANCH  23  26
ENDBRANCH  18  20
ENDBRANCH  17  18
ENDBRANCH  16  17
ENDBRANCH   5  16
TORSDOF 7
