REMARK  Name = 
REMARK  6 active torsions:
REMARK  status: ('A' for Active; 'I' for Inactive)
REMARK    1  A    between atoms: C_2  and  C_25
REMARK    2  A    between atoms: N_3  and  C_4
REMARK    3  A    between atoms: C_4  and  C_5
REMARK    4  A    between atoms: C_8  and  C_9
REMARK    5  A    between atoms: C_9  and  N_10
REMARK    6  A    between atoms: C_11  and  C_13
REMARK                            x       y       z     vdW  Elec       q    Type
REMARK                         _______ _______ _______ _____ _____    ______ ____
ROOT
ATOM      1  C   UNL     1       3.227  -3.597   0.527  0.00  0.00    +0.000 A 
ATOM      2  C   UNL     1       4.528  -3.337   0.980  0.00  0.00    +0.000 A 
ATOM      3  C   UNL     1       5.430  -4.385   1.206  0.00  0.00    +0.000 A 
ATOM      4  C   UNL     1       5.058  -5.715   0.965  0.00  0.00    +0.000 A 
ATOM      5  C   UNL     1       3.753  -5.974   0.526  0.00  0.00    +0.000 A 
ATOM      6  C   UNL     1       2.853  -4.927   0.296  0.00  0.00    +0.000 A 
ENDROOT
BRANCH   1   7
ATOM      7  C   UNL     1       2.251  -2.471   0.290  0.00  0.00    +0.000 C 
BRANCH   7  10
ATOM      8  O   UNL     1       0.661  -0.433  -0.754  0.00  0.00    +0.000 OA
ATOM      9  C   UNL     1       1.553  -0.893  -1.457  0.00  0.00    +0.000 C 
ATOM     10  N   UNL     1       2.385  -1.903  -1.031  0.00  0.00    +0.000 N 
ATOM     11  H   UNL     1       3.172  -2.182  -1.597  0.00  0.00    +0.000 HD
BRANCH   9  12
ATOM     12  C   UNL     1       1.814  -0.404  -2.787  0.00  0.00    +0.000 A 
ATOM     13  C   UNL     1       2.672  -0.805  -3.794  0.00  0.00    +0.000 A 
ATOM     14  C   UNL     1       2.435   0.083  -4.860  0.00  0.00    +0.000 A 
ATOM     15  N   UNL     1       1.501   0.988  -4.567  0.00  0.00    +0.000 NA
ATOM     16  N   UNL     1       1.135   0.668  -3.312  0.00  0.00    +0.000 N 
ATOM     17  H   UNL     1       0.414   1.220  -2.856  0.00  0.00    +0.000 HD
ENDBRANCH   9  12
ENDBRANCH   7  10
ENDBRANCH   1   7
BRANCH   4  18
ATOM     18  C   UNL     1       6.023  -6.850   1.207  0.00  0.00    +0.000 C 
BRANCH  18  19
ATOM     19  N   UNL     1       5.920  -7.351   2.555  0.00  0.00    +0.000 N 
ATOM     20  C   UNL     1       6.761  -8.332   3.021  0.00  0.00    +0.000 C 
ATOM     21  O   UNL     1       7.667  -8.795   2.332  0.00  0.00    +0.000 OA
ATOM     22  H   UNL     1       5.055  -7.165   3.048  0.00  0.00    +0.000 HD
BRANCH  20  23
ATOM     23  C   UNL     1       6.564  -8.756   4.412  0.00  0.00    +0.000 A 
ATOM     24  C   UNL     1       7.611  -9.341   5.114  0.00  0.00    +0.000 A 
ATOM     25  S   UNL     1       7.226  -9.719   6.732  0.00  0.00    +0.000 S 
ATOM     26  C   UNL     1       5.628  -9.169   6.538  0.00  0.00    +0.000 A 
ATOM     27  N   UNL     1       4.735  -9.236   7.563  0.00  0.00    +0.000 NA
ATOM     28  C   UNL     1       3.551  -8.815   7.268  0.00  0.00    +0.000 A 
ATOM     29  N   UNL     1       3.179  -8.327   6.042  0.00  0.00    +0.000 N 
ATOM     30  C   UNL     1       4.054  -8.211   4.988  0.00  0.00    +0.000 A 
ATOM     31  O   UNL     1       3.700  -7.727   3.918  0.00  0.00    +0.000 OA
ATOM     32  C   UNL     1       5.397  -8.684   5.263  0.00  0.00    +0.000 A 
ATOM     33  H   UNL     1       2.237  -8.005   5.877  0.00  0.00    +0.000 HD
ENDBRANCH  20  23
ENDBRANCH  18  19
ENDBRANCH   4  18
TORSDOF 6
