REMARK  Name = 
REMARK  8 active torsions:
REMARK  status: ('A' for Active; 'I' for Inactive)
REMARK    1  A    between atoms: C_1  and  C_2
REMARK    2  A    between atoms: C_2  and  N_3
REMARK    3  A    between atoms: C_2  and  C_25
REMARK    4  A    between atoms: N_3  and  C_4
REMARK    5  A    between atoms: C_4  and  C_5
REMARK    6  A    between atoms: C_8  and  C_9
REMARK    7  A    between atoms: C_9  and  N_10
REMARK    8  A    between atoms: C_11  and  C_13
REMARK                            x       y       z     vdW  Elec       q    Type
REMARK                         _______ _______ _______ _____ _____    ______ ____
ROOT
ATOM      1  C   UNL     1      -1.064  -1.251  -0.295  0.00  0.00    +0.000 A 
ATOM      2  C   UNL     1      -1.714  -2.327  -0.917  0.00  0.00    +0.000 A 
ATOM      3  C   UNL     1      -3.098  -2.471  -0.822  0.00  0.00    +0.000 A 
ATOM      4  C   UNL     1      -3.854  -1.532  -0.111  0.00  0.00    +0.000 A 
ATOM      5  C   UNL     1      -3.201  -0.478   0.542  0.00  0.00    +0.000 A 
ATOM      6  C   UNL     1      -1.819  -0.336   0.447  0.00  0.00    +0.000 A 
ENDROOT
BRANCH   1   7
ATOM      7  C   UNL     1       0.439  -1.167  -0.302  0.00  0.00    +0.000 C 
BRANCH   7   8
ATOM      8  N   UNL     1       1.018  -1.200  -1.645  0.00  0.00    +0.000 NA
ATOM      9  H   UNL     1       0.649  -0.425  -2.202  0.00  0.00    +0.000 HD
BRANCH   8  11
ATOM     10  C   UNL     1       3.091  -2.213  -0.745  0.00  0.00    +0.000 C 
ATOM     11  C   UNL     1       2.499  -1.116  -1.635  0.00  0.00    +0.000 C 
BRANCH  11  12
ATOM     12  C   UNL     1       3.039  -1.130  -3.112  0.00  0.00    +0.000 C 
ATOM     13  C   UNL     1       4.559  -1.095  -3.297  0.00  0.00    +0.000 C 
ATOM     14  C   UNL     1       5.158   0.146  -2.657  0.00  0.00    +0.000 C 
ATOM     15  C   UNL     1       4.402   1.420  -3.028  0.00  0.00    +0.000 C 
ATOM     16  C   UNL     1       2.916   1.263  -3.360  0.00  0.00    +0.000 C 
ATOM     17  O   UNL     1       2.534  -0.011  -3.870  0.00  0.00    +0.000 OA
ENDBRANCH  11  12
ENDBRANCH   8  11
ENDBRANCH   7   8
ENDBRANCH   1   7
BRANCH   4  18
ATOM     18  C   UNL     1      -5.345  -1.674   0.012  0.00  0.00    +0.000 C 
BRANCH  18  19
ATOM     19  N   UNL     1      -5.686  -2.445   1.177  0.00  0.00    +0.000 N 
ATOM     20  C   UNL     1      -6.989  -2.746   1.466  0.00  0.00    +0.000 C 
ATOM     21  O   UNL     1      -7.915  -2.414   0.731  0.00  0.00    +0.000 OA
ATOM     22  H   UNL     1      -4.982  -2.513   1.906  0.00  0.00    +0.000 HD
BRANCH  20  23
ATOM     23  C   UNL     1      -7.217  -3.544   2.673  0.00  0.00    +0.000 A 
ATOM     24  C   UNL     1      -8.359  -4.326   2.773  0.00  0.00    +0.000 A 
ATOM     25  S   UNL     1      -8.449  -5.224   4.219  0.00  0.00    +0.000 S 
ATOM     26  C   UNL     1      -6.988  -4.561   4.783  0.00  0.00    +0.000 A 
ATOM     27  N   UNL     1      -6.494  -4.900   6.005  0.00  0.00    +0.000 NA
ATOM     28  C   UNL     1      -5.390  -4.309   6.317  0.00  0.00    +0.000 A 
ATOM     29  N   UNL     1      -4.730  -3.411   5.513  0.00  0.00    +0.000 N 
ATOM     30  C   UNL     1      -5.175  -3.055   4.265  0.00  0.00    +0.000 A 
ATOM     31  O   UNL     1      -4.545  -2.285   3.559  0.00  0.00    +0.000 OA
ATOM     32  C   UNL     1      -6.430  -3.688   3.870  0.00  0.00    +0.000 A 
ATOM     33  H   UNL     1      -3.863  -2.996   5.813  0.00  0.00    +0.000 HD
ENDBRANCH  20  23
ENDBRANCH  18  19
ENDBRANCH   4  18
TORSDOF 7
