REMARK  Name = 
REMARK  6 active torsions:
REMARK  status: ('A' for Active; 'I' for Inactive)
REMARK    1  A    between atoms: N_1  and  C_2
REMARK    2  A    between atoms: C_2  and  C_3
REMARK    3  A    between atoms: C_3  and  C_4
REMARK    4  A    between atoms: C_7  and  N_8
REMARK    5  A    between atoms: N_8  and  C_9
REMARK    6  A    between atoms: C_9  and  C_10
REMARK                            x       y       z     vdW  Elec       q    Type
REMARK                         _______ _______ _______ _____ _____    ______ ____
ROOT
ATOM      1  C   UNL     1       4.487  -0.920   1.145  0.00  0.00    +0.000 A 
ATOM      2  C   UNL     1       5.197   0.283   1.239  0.00  0.00    +0.000 A 
ATOM      3  C   UNL     1       6.590   0.284   1.389  0.00  0.00    +0.000 A 
ATOM      4  C   UNL     1       7.301  -0.915   1.488  0.00  0.00    +0.000 A 
ATOM      5  C   UNL     1       6.596  -2.112   1.328  0.00  0.00    +0.000 A 
ATOM      6  C   UNL     1       5.206  -2.120   1.179  0.00  0.00    +0.000 A 
ENDROOT
BRANCH   4   7
ATOM      7  N   UNL     1       8.691  -0.994   1.646  0.00  0.00    +0.000 N 
ATOM      8  H   UNL     1       9.134  -1.112   0.734  0.00  0.00    +0.000 HD
BRANCH   7   9
ATOM      9  C   UNL     1       9.348   0.077   2.401  0.00  0.00    +0.000 C 
BRANCH   9  10
ATOM     10  C   UNL     1      10.621  -0.425   3.041  0.00  0.00    +0.000 A 
ATOM     11  C   UNL     1      10.573  -1.452   3.982  0.00  0.00    +0.000 A 
ATOM     12  N   UNL     1      11.673  -1.912   4.632  0.00  0.00    +0.000 NA
ATOM     13  C   UNL     1      12.832  -1.305   4.297  0.00  0.00    +0.000 A 
ATOM     14  C   UNL     1      12.892  -0.287   3.361  0.00  0.00    +0.000 A 
ATOM     15  N   UNL     1      11.796   0.177   2.716  0.00  0.00    +0.000 NA
ENDBRANCH   9  10
ENDBRANCH   7   9
ENDBRANCH   4   7
BRANCH   1  16
ATOM     16  C   UNL     1       2.978  -0.941   1.062  0.00  0.00    +0.000 C 
BRANCH  16  17
ATOM     17  C   UNL     1       2.416  -0.194  -0.154  0.00  0.00    +0.000 C 
BRANCH  17  18
ATOM     18  N   UNL     1       0.953  -0.259  -0.177  0.00  0.00    +0.000 NA
ATOM     19  H   UNL     1       0.605   0.282  -0.968  0.00  0.00    +0.000 HD
ATOM     20  H   UNL     1       0.577   0.186   0.660  0.00  0.00    +0.000 HD
ENDBRANCH  17  18
ENDBRANCH  16  17
ENDBRANCH   1  16
TORSDOF 6
