REMARK  Name = 
REMARK  4 active torsions:
REMARK  status: ('A' for Active; 'I' for Inactive)
REMARK    1  A    between atoms: C_2  and  C_4
REMARK    2  A    between atoms: C_7  and  O_8
REMARK    3  A    between atoms: O_8  and  C_9
REMARK    4  A    between atoms: C_9  and  C_10
REMARK                            x       y       z     vdW  Elec       q    Type
REMARK                         _______ _______ _______ _____ _____    ______ ____
ROOT
ATOM      1  C   UNL     1       3.883   0.689   0.562  0.00  0.00    +0.000 A 
ATOM      2  N   UNL     1       5.006   0.664   1.327  0.00  0.00    +0.000 NA
ATOM      3  C   UNL     1       5.191   1.743   2.116  0.00  0.00    +0.000 A 
ATOM      4  C   UNL     1       4.341   2.826   2.134  0.00  0.00    +0.000 A 
ATOM      5  C   UNL     1       3.211   2.710   1.356  0.00  0.00    +0.000 A 
ATOM      6  N   UNL     1       2.953   1.660   0.555  0.00  0.00    +0.000 NA
ENDROOT
BRANCH   1   8
ATOM      7  N   UNL     1       4.791  -1.321  -0.479  0.00  0.00    +0.000 N 
ATOM      8  C   UNL     1       3.736  -0.437  -0.437  0.00  0.00    +0.000 C 
ATOM      9  O   UNL     1       2.778  -0.573  -1.185  0.00  0.00    +0.000 OA
ATOM     10  H   UNL     1       4.776  -2.072  -1.154  0.00  0.00    +0.000 HD
ATOM     11  H   UNL     1       5.589  -1.185   0.130  0.00  0.00    +0.000 HD
ENDBRANCH   1   8
BRANCH   4  12
ATOM     12  O   UNL     1       4.529   3.967   2.845  0.00  0.00    +0.000 OA
BRANCH  12  13
ATOM     13  C   UNL     1       5.862   4.549   2.866  0.00  0.00    +0.000 C 
ATOM     14  C   UNL     1       5.985   5.680   1.846  0.00  0.00    +0.000 C 
ATOM     15  C   UNL     1       6.806   4.448   1.676  0.00  0.00    +0.000 C 
BRANCH  13  16
ATOM     16  C   UNL     1       6.446   4.796   4.245  0.00  0.00    +0.000 A 
ATOM     17  C   UNL     1       7.577   4.101   4.709  0.00  0.00    +0.000 A 
ATOM     18  C   UNL     1       8.172   4.412   5.934  0.00  0.00    +0.000 A 
ATOM     19  C   UNL     1       7.630   5.411   6.736  0.00  0.00    +0.000 A 
ATOM     20  C   UNL     1       6.480   6.079   6.326  0.00  0.00    +0.000 A 
ATOM     21  C   UNL     1       5.894   5.769   5.097  0.00  0.00    +0.000 A 
ENDBRANCH  13  16
ENDBRANCH  12  13
ENDBRANCH   4  12
TORSDOF 4
