REMARK  Name = 
REMARK  3 active torsions:
REMARK  status: ('A' for Active; 'I' for Inactive)
REMARK    1  A    between atoms: C_2  and  C_4
REMARK    2  A    between atoms: N_8  and  C_9
REMARK    3  A    between atoms: C_9  and  C_10
REMARK                            x       y       z     vdW  Elec       q    Type
REMARK                         _______ _______ _______ _____ _____    ______ ____
ROOT
ATOM      1  C   UNL     1       3.109  -0.161  -1.073  0.00  0.00    +0.000 A 
ATOM      2  C   UNL     1       2.878   0.725  -2.120  0.00  0.00    +0.000 A 
ATOM      3  C   UNL     1       3.646   0.621  -3.285  0.00  0.00    +0.000 A 
ATOM      4  C   UNL     1       4.617  -0.371  -3.384  0.00  0.00    +0.000 A 
ATOM      5  N   UNL     1       5.429  -0.538  -4.510  0.00  0.00    +0.000 N 
ATOM      6  N   UNL     1       4.857  -1.227  -2.368  0.00  0.00    +0.000 NA
ATOM      7  C   UNL     1       4.114  -1.103  -1.238  0.00  0.00    +0.000 A 
ATOM      8  H   UNL     1       5.970  -1.388  -4.379  0.00  0.00    +0.000 HD
ENDROOT
BRANCH   1  10
ATOM      9  N   UNL     1       1.098   0.393   0.176  0.00  0.00    +0.000 N 
ATOM     10  C   UNL     1       2.362  -0.130   0.202  0.00  0.00    +0.000 C 
ATOM     11  O   UNL     1       2.832  -0.589   1.234  0.00  0.00    +0.000 OA
ATOM     12  H   UNL     1       0.564   0.313   1.033  0.00  0.00    +0.000 HD
ATOM     13  H   UNL     1       0.584   0.549  -0.680  0.00  0.00    +0.000 HD
ENDBRANCH   1  10
BRANCH   5  14
ATOM     14  C   UNL     1       5.044  -0.110  -5.866  0.00  0.00    +0.000 C 
ATOM     15  C   UNL     1       3.780  -0.683  -6.488  0.00  0.00    +0.000 C 
ATOM     16  C   UNL     1       5.111  -1.140  -6.991  0.00  0.00    +0.000 C 
BRANCH  14  17
ATOM     17  C   UNL     1       5.485   1.307  -6.253  0.00  0.00    +0.000 A 
ATOM     18  C   UNL     1       6.807   1.567  -6.628  0.00  0.00    +0.000 A 
ATOM     19  N   UNL     1       7.253   2.770  -7.070  0.00  0.00    +0.000 NA
ATOM     20  C   UNL     1       6.319   3.741  -7.111  0.00  0.00    +0.000 A 
ATOM     21  C   UNL     1       5.011   3.522  -6.720  0.00  0.00    +0.000 A 
ATOM     22  N   UNL     1       4.567   2.316  -6.291  0.00  0.00    +0.000 NA
ENDBRANCH  14  17
ENDBRANCH   5  14
TORSDOF 3
