REMARK  Name = 
REMARK  6 active torsions:
REMARK  status: ('A' for Active; 'I' for Inactive)
REMARK    1  A    between atoms: C_2  and  C_19
REMARK    2  A    between atoms: N_3  and  C_4
REMARK    3  A    between atoms: C_4  and  C_5
REMARK    4  A    between atoms: C_8  and  O_9
REMARK    5  A    between atoms: O_9  and  C_10
REMARK    6  A    between atoms: C_10  and  C_11
REMARK                            x       y       z     vdW  Elec       q    Type
REMARK                         _______ _______ _______ _____ _____    ______ ____
ROOT
ATOM      1  O   UNL     1       0.156   0.248   0.769  0.00  0.00    +0.000 OA
ATOM      2  C   UNL     1       0.006   0.772   1.865  0.00  0.00    +0.000 C 
ATOM      3  N   UNL     1       1.033   1.265   2.639  0.00  0.00    +0.000 N 
ATOM      4  H   UNL     1       0.786   1.859   3.417  0.00  0.00    +0.000 HD
ENDROOT
BRANCH   2   5
ATOM      5  C   UNL     1      -1.289   1.159   2.407  0.00  0.00    +0.000 A 
ATOM      6  C   UNL     1      -2.300   1.696   1.631  0.00  0.00    +0.000 A 
ATOM      7  S   UNL     1      -3.419   2.582   2.587  0.00  0.00    +0.000 S 
ATOM      8  C   UNL     1      -2.635   2.126   4.032  0.00  0.00    +0.000 A 
ATOM      9  N   UNL     1      -2.955   2.653   5.243  0.00  0.00    +0.000 NA
ATOM     10  C   UNL     1      -2.290   2.151   6.232  0.00  0.00    +0.000 A 
ATOM     11  N   UNL     1      -1.372   1.132   6.131  0.00  0.00    +0.000 N 
ATOM     12  C   UNL     1      -1.026   0.558   4.931  0.00  0.00    +0.000 A 
ATOM     13  O   UNL     1      -0.260  -0.392   4.857  0.00  0.00    +0.000 OA
ATOM     14  C   UNL     1      -1.652   1.193   3.790  0.00  0.00    +0.000 A 
ATOM     15  H   UNL     1      -0.952   0.726   6.954  0.00  0.00    +0.000 HD
ENDBRANCH   2   5
BRANCH   3  16
ATOM     16  C   UNL     1       2.365   1.420   2.128  0.00  0.00    +0.000 C 
BRANCH  16  17
ATOM     17  C   UNL     1       3.275   1.924   3.210  0.00  0.00    +0.000 A 
ATOM     18  C   UNL     1       3.358   3.282   3.540  0.00  0.00    +0.000 A 
ATOM     19  C   UNL     1       4.221   3.697   4.553  0.00  0.00    +0.000 A 
ATOM     20  C   UNL     1       4.981   2.736   5.197  0.00  0.00    +0.000 A 
ATOM     21  N   UNL     1       4.890   1.415   4.939  0.00  0.00    +0.000 NA
ATOM     22  C   UNL     1       4.032   1.038   3.965  0.00  0.00    +0.000 A 
BRANCH  20  23
ATOM     23  O   UNL     1       5.860   3.174   6.168  0.00  0.00    +0.000 OA
BRANCH  23  24
ATOM     24  C   UNL     1       6.913   2.227   6.382  0.00  0.00    +0.000 C 
BRANCH  24  25
ATOM     25  C   UNL     1       7.864   2.677   7.450  0.00  0.00    +0.000 A 
ATOM     26  C   UNL     1       7.671   3.771   8.269  0.00  0.00    +0.000 A 
ATOM     27  N   UNL     1       8.520   4.131   9.254  0.00  0.00    +0.000 NA
ATOM     28  C   UNL     1       9.597   3.348   9.413  0.00  0.00    +0.000 A 
ATOM     29  N   UNL     1       9.901   2.271   8.679  0.00  0.00    +0.000 NA
ATOM     30  C   UNL     1       9.011   1.956   7.713  0.00  0.00    +0.000 A 
ENDBRANCH  24  25
ENDBRANCH  23  24
ENDBRANCH  20  23
ENDBRANCH  16  17
ENDBRANCH   3  16
TORSDOF 6
