REMARK  Name = 
REMARK  4 active torsions:
REMARK  status: ('A' for Active; 'I' for Inactive)
REMARK    1  A    between atoms: C_2  and  C_4
REMARK    2  A    between atoms: C_7  and  N_8
REMARK    3  A    between atoms: N_8  and  C_9
REMARK    4  A    between atoms: C_9  and  C_10
REMARK                            x       y       z     vdW  Elec       q    Type
REMARK                         _______ _______ _______ _____ _____    ______ ____
ROOT
ATOM      1  C   UNL     1       2.105   1.347  -0.945  0.00  0.00    +0.000 A 
ATOM      2  C   UNL     1       2.049   1.862  -2.248  0.00  0.00    +0.000 A 
ATOM      3  C   UNL     1       3.021   2.771  -2.679  0.00  0.00    +0.000 A 
ATOM      4  C   UNL     1       4.035   3.194  -1.805  0.00  0.00    +0.000 A 
ATOM      5  C   UNL     1       4.134   2.597  -0.547  0.00  0.00    +0.000 A 
ATOM      6  C   UNL     1       3.172   1.700  -0.102  0.00  0.00    +0.000 A 
ENDROOT
BRANCH   1   8
ATOM      7  N   UNL     1       0.305  -0.260  -1.266  0.00  0.00    +0.000 N 
ATOM      8  C   UNL     1       1.049   0.468  -0.383  0.00  0.00    +0.000 C 
ATOM      9  O   UNL     1       0.861   0.373   0.823  0.00  0.00    +0.000 OA
ATOM     10  H   UNL     1      -0.341  -0.924  -0.858  0.00  0.00    +0.000 HD
ATOM     11  H   UNL     1       0.595  -0.410  -2.221  0.00  0.00    +0.000 HD
ENDBRANCH   1   8
BRANCH   4  12
ATOM     12  N   UNL     1       4.988   4.165  -2.125  0.00  0.00    +0.000 N 
ATOM     13  H   UNL     1       5.887   3.716  -2.328  0.00  0.00    +0.000 HD
BRANCH  12  14
ATOM     14  C   UNL     1       4.728   5.267  -3.103  0.00  0.00    +0.000 C 
ATOM     15  C   UNL     1       4.534   6.614  -2.427  0.00  0.00    +0.000 C 
ATOM     16  C   UNL     1       3.412   6.019  -3.210  0.00  0.00    +0.000 C 
BRANCH  14  17
ATOM     17  C   UNL     1       5.575   5.087  -4.376  0.00  0.00    +0.000 A 
ATOM     18  N   UNL     1       4.959   5.034  -5.578  0.00  0.00    +0.000 NA
ATOM     19  C   UNL     1       5.634   4.444  -6.584  0.00  0.00    +0.000 A 
ATOM     20  C   UNL     1       6.885   3.902  -6.449  0.00  0.00    +0.000 A 
ATOM     21  C   UNL     1       7.467   4.062  -5.219  0.00  0.00    +0.000 A 
ATOM     22  N   UNL     1       6.847   4.651  -4.182  0.00  0.00    +0.000 NA
ENDBRANCH  14  17
ENDBRANCH  12  14
ENDBRANCH   4  12
TORSDOF 4
