REMARK  Name = 
REMARK  5 active torsions:
REMARK  status: ('A' for Active; 'I' for Inactive)
REMARK    1  A    between atoms: N_1  and  C_2
REMARK    2  A    between atoms: C_2  and  C_3
REMARK    3  A    between atoms: C_6  and  C_7
REMARK    4  A    between atoms: C_7  and  N_8
REMARK    5  A    between atoms: C_13  and  C_14
REMARK                            x       y       z     vdW  Elec       q    Type
REMARK                         _______ _______ _______ _____ _____    ______ ____
ROOT
ATOM      1  N   UNL     1       5.837  -5.420   1.327  0.00  0.00    +0.000 N 
ATOM      2  C   UNL     1       6.288  -6.725   1.606  0.00  0.00    +0.000 A 
ATOM      3  C   UNL     1       7.579  -6.894   2.071  0.00  0.00    +0.000 A 
ATOM      4  C   UNL     1       7.996  -8.187   2.308  0.00  0.00    +0.000 A 
ATOM      5  N   UNL     1       7.220  -9.265   2.114  0.00  0.00    +0.000 NA
ATOM      6  C   UNL     1       5.981  -8.992   1.646  0.00  0.00    +0.000 A 
ATOM      7  N   UNL     1       5.485  -7.771   1.378  0.00  0.00    +0.000 NA
ATOM      8  H   UNL     1       5.981  -4.825   2.138  0.00  0.00    +0.000 HD
ENDROOT
BRANCH   6   9
ATOM      9  C   UNL     1       5.059 -10.170   1.428  0.00  0.00    +0.000 C 
ATOM     10  N   UNL     1       5.587 -11.407   1.717  0.00  0.00    +0.000 N 
ATOM     11  O   UNL     1       3.905 -10.067   1.026  0.00  0.00    +0.000 OA
ATOM     12  H   UNL     1       6.539 -11.490   2.058  0.00  0.00    +0.000 HD
ATOM     13  H   UNL     1       5.008 -12.225   1.599  0.00  0.00    +0.000 HD
ENDBRANCH   6   9
BRANCH   1  14
ATOM     14  C   UNL     1       4.456  -5.371   0.849  0.00  0.00    +0.000 C 
BRANCH  14  18
ATOM     15  C   UNL     1       3.126  -1.338   0.454  0.00  0.00    +0.000 A 
ATOM     16  C   UNL     1       3.761  -1.935  -0.633  0.00  0.00    +0.000 A 
ATOM     17  C   UNL     1       4.215  -3.247  -0.515  0.00  0.00    +0.000 A 
ATOM     18  C   UNL     1       4.017  -3.943   0.679  0.00  0.00    +0.000 A 
ATOM     19  C   UNL     1       3.383  -3.264   1.713  0.00  0.00    +0.000 A 
ATOM     20  N   UNL     1       2.936  -1.989   1.630  0.00  0.00    +0.000 NA
BRANCH  15  21
ATOM     21  C   UNL     1       2.603   0.079   0.355  0.00  0.00    +0.000 C 
BRANCH  21  22
ATOM     22  N   UNL     1       1.575   0.238  -0.679  0.00  0.00    +0.000 NA
ATOM     23  H   UNL     1       1.146   1.156  -0.568  0.00  0.00    +0.000 HD
ATOM     24  H   UNL     1       0.835  -0.438  -0.488  0.00  0.00    +0.000 HD
ENDBRANCH  21  22
ENDBRANCH  15  21
ENDBRANCH  14  18
ENDBRANCH   1  14
TORSDOF 5
