REMARK  Name = 
REMARK  6 active torsions:
REMARK  status: ('A' for Active; 'I' for Inactive)
REMARK    1  A    between atoms: C_1  and  C_2
REMARK    2  A    between atoms: C_2  and  C_3
REMARK    3  A    between atoms: C_7  and  C_8
REMARK    4  A    between atoms: C_8  and  C_9
REMARK    5  A    between atoms: C_9  and  N_10
REMARK    6  A    between atoms: C_14  and  C_15
REMARK                            x       y       z     vdW  Elec       q    Type
REMARK                         _______ _______ _______ _____ _____    ______ ____
ROOT
ATOM      1  C   UNL     1       3.230   3.722  -4.090  0.00  0.00    +0.000 C 
ENDROOT
BRANCH   1   2
ATOM      2  N   UNL     1       3.722   5.010  -4.597  0.00  0.00    +0.000 N 
ATOM      3  C   UNL     1       2.673   5.914  -4.866  0.00  0.00    +0.000 A 
ATOM      4  C   UNL     1       2.980   7.182  -5.353  0.00  0.00    +0.000 A 
ATOM      5  C   UNL     1       1.945   8.091  -5.604  0.00  0.00    +0.000 A 
ATOM      6  C   UNL     1       0.620   7.718  -5.366  0.00  0.00    +0.000 A 
ATOM      7  C   UNL     1       0.410   6.443  -4.874  0.00  0.00    +0.000 A 
ATOM      8  N   UNL     1       1.399   5.552  -4.619  0.00  0.00    +0.000 NA
ATOM      9  H   UNL     1       4.285   4.907  -5.437  0.00  0.00    +0.000 HD
BRANCH   6  10
ATOM     10  C   UNL     1      -0.480   8.672  -5.640  0.00  0.00    +0.000 C 
ATOM     11  N   UNL     1      -1.771   8.283  -5.414  0.00  0.00    +0.000 N 
ATOM     12  O   UNL     1      -0.244   9.797  -6.069  0.00  0.00    +0.000 OA
ATOM     13  H   UNL     1      -2.073   7.386  -5.070  0.00  0.00    +0.000 HD
ATOM     14  H   UNL     1      -2.491   8.966  -5.618  0.00  0.00    +0.000 HD
ENDBRANCH   6  10
ENDBRANCH   1   2
BRANCH   1  15
ATOM     15  C   UNL     1       4.381   2.751  -3.799  0.00  0.00    +0.000 C 
BRANCH  15  20
ATOM     16  C   UNL     1       2.953   0.172  -1.346  0.00  0.00    +0.000 A 
ATOM     17  C   UNL     1       2.652  -0.871  -2.244  0.00  0.00    +0.000 A 
ATOM     18  C   UNL     1       2.933  -0.764  -3.608  0.00  0.00    +0.000 A 
ATOM     19  C   UNL     1       3.516   0.394  -4.113  0.00  0.00    +0.000 A 
ATOM     20  C   UNL     1       3.843   1.445  -3.251  0.00  0.00    +0.000 A 
ATOM     21  C   UNL     1       3.574   1.316  -1.875  0.00  0.00    +0.000 A 
BRANCH  16  23
ATOM     22  C   UNL     1       0.973  -0.016   0.164  0.00  0.00    +0.000 C 
ATOM     23  C   UNL     1       2.511   0.059   0.124  0.00  0.00    +0.000 C 
ATOM     24  C   UNL     1       3.162  -1.145   0.815  0.00  0.00    +0.000 C 
ATOM     25  C   UNL     1       4.394  -0.580   1.506  0.00  0.00    +0.000 C 
ATOM     26  O   UNL     1       4.308   0.848   1.468  0.00  0.00    +0.000 OA
ATOM     27  C   UNL     1       2.975   1.182   1.066  0.00  0.00    +0.000 C 
ENDBRANCH  16  23
ENDBRANCH  15  20
ENDBRANCH   1  15
TORSDOF 5
