REMARK  Name = 
REMARK  6 active torsions:
REMARK  status: ('A' for Active; 'I' for Inactive)
REMARK    1  A    between atoms: C_2  and  C_3
REMARK    2  A    between atoms: C_6  and  O_7
REMARK    3  A    between atoms: O_7  and  C_8
REMARK    4  A    between atoms: C_11  and  C_12
REMARK    5  A    between atoms: C_12  and  N_13
REMARK    6  A    between atoms: C_14  and  C_16
REMARK                            x       y       z     vdW  Elec       q    Type
REMARK                         _______ _______ _______ _____ _____    ______ ____
ROOT
ATOM      1  C   UNL     1      -6.909   4.580  -0.369  0.00  0.00    +0.000 C 
ENDROOT
BRANCH   1   5
ATOM      2  C   UNL     1      -4.468   1.028  -0.140  0.00  0.00    +0.000 A 
ATOM      3  C   UNL     1      -4.411   1.844  -1.271  0.00  0.00    +0.000 A 
ATOM      4  C   UNL     1      -5.192   3.001  -1.340  0.00  0.00    +0.000 A 
ATOM      5  C   UNL     1      -6.077   3.325  -0.304  0.00  0.00    +0.000 A 
ATOM      6  C   UNL     1      -6.220   2.433   0.767  0.00  0.00    +0.000 A 
ATOM      7  C   UNL     1      -5.412   1.295   0.852  0.00  0.00    +0.000 A 
BRANCH   2   8
ATOM      8  O   UNL     1      -3.688  -0.090   0.051  0.00  0.00    +0.000 OA
BRANCH   8  12
ATOM      9  C   UNL     1       0.139  -0.467  -1.415  0.00  0.00    +0.000 A 
ATOM     10  C   UNL     1      -0.274   0.815  -1.073  0.00  0.00    +0.000 A 
ATOM     11  C   UNL     1      -1.553   0.984  -0.541  0.00  0.00    +0.000 A 
ATOM     12  C   UNL     1      -2.399  -0.118  -0.420  0.00  0.00    +0.000 A 
ATOM     13  C   UNL     1      -1.882  -1.364  -0.755  0.00  0.00    +0.000 A 
ATOM     14  N   UNL     1      -0.637  -1.566  -1.252  0.00  0.00    +0.000 NA
BRANCH   9  16
ATOM     15  N   UNL     1       2.511  -0.823  -2.416  0.00  0.00    +0.000 NA
ATOM     16  C   UNL     1       1.447  -0.690  -1.969  0.00  0.00    +0.000 C 
ENDBRANCH   9  16
ENDBRANCH   8  12
ENDBRANCH   2   8
ENDBRANCH   1   5
BRANCH   1  17
ATOM     17  N   UNL     1      -8.135   4.335  -1.076  0.00  0.00    +0.000 N 
ATOM     18  C   UNL     1      -9.033   5.333  -1.340  0.00  0.00    +0.000 C 
ATOM     19  O   UNL     1      -8.818   6.505  -1.042  0.00  0.00    +0.000 OA
ATOM     20  H   UNL     1      -8.444   3.369  -1.114  0.00  0.00    +0.000 HD
BRANCH  18  21
ATOM     21  C   UNL     1     -10.239   4.929  -2.074  0.00  0.00    +0.000 A 
ATOM     22  C   UNL     1     -10.951   5.865  -2.810  0.00  0.00    +0.000 A 
ATOM     23  S   UNL     1     -12.257   5.196  -3.681  0.00  0.00    +0.000 S 
ATOM     24  C   UNL     1     -11.952   3.643  -3.054  0.00  0.00    +0.000 A 
ATOM     25  N   UNL     1     -12.720   2.577  -3.410  0.00  0.00    +0.000 NA
ATOM     26  C   UNL     1     -12.391   1.467  -2.840  0.00  0.00    +0.000 A 
ATOM     27  N   UNL     1     -11.367   1.325  -1.941  0.00  0.00    +0.000 N 
ATOM     28  C   UNL     1     -10.552   2.366  -1.569  0.00  0.00    +0.000 A 
ATOM     29  O   UNL     1      -9.627   2.197  -0.780  0.00  0.00    +0.000 OA
ATOM     30  C   UNL     1     -10.871   3.636  -2.194  0.00  0.00    +0.000 A 
ATOM     31  H   UNL     1     -11.160   0.426  -1.530  0.00  0.00    +0.000 HD
ENDBRANCH  18  21
ENDBRANCH   1  17
TORSDOF 6
