REMARK  Name = 
REMARK  8 active torsions:
REMARK  status: ('A' for Active; 'I' for Inactive)
REMARK    1  A    between atoms: C_1  and  O_2
REMARK    2  A    between atoms: O_2  and  C_3
REMARK    3  A    between atoms: C_5  and  C_6
REMARK    4  A    between atoms: C_6  and  N_7
REMARK    5  A    between atoms: C_8  and  C_10
REMARK    6  A    between atoms: C_22  and  C_23
REMARK    7  A    between atoms: C_23  and  N_24
REMARK    8  A    between atoms: C_25  and  C_27
REMARK                            x       y       z     vdW  Elec       q    Type
REMARK                         _______ _______ _______ _____ _____    ______ ____
ROOT
ATOM      1  C   UNL     1       3.085   0.693  -0.981  0.00  0.00    +0.000 A 
ATOM      2  C   UNL     1       2.717   2.034  -1.192  0.00  0.00    +0.000 A 
ATOM      3  C   UNL     1       3.362   2.845  -2.132  0.00  0.00    +0.000 A 
ATOM      4  C   UNL     1       4.437   2.294  -2.828  0.00  0.00    +0.000 A 
ATOM      5  C   UNL     1       4.821   0.960  -2.628  0.00  0.00    +0.000 A 
ATOM      6  C   UNL     1       4.135   0.129  -1.727  0.00  0.00    +0.000 A 
ENDROOT
BRANCH   1   8
ATOM      7  C   UNL     1       1.128   0.315   0.288  0.00  0.00    +0.000 C 
ATOM      8  O   UNL     1       2.466  -0.082  -0.027  0.00  0.00    +0.000 OA
ENDBRANCH   1   8
BRANCH   3   9
ATOM      9  C   UNL     1       2.920   4.275  -2.359  0.00  0.00    +0.000 C 
BRANCH   9  10
ATOM     10  N   UNL     1       3.608   5.201  -1.494  0.00  0.00    +0.000 N 
ATOM     11  C   UNL     1       3.363   6.553  -1.498  0.00  0.00    +0.000 C 
ATOM     12  O   UNL     1       2.537   7.081  -2.242  0.00  0.00    +0.000 OA
ATOM     13  H   UNL     1       4.528   4.904  -1.182  0.00  0.00    +0.000 HD
BRANCH  11  14
ATOM     14  C   UNL     1       4.143   7.332  -0.521  0.00  0.00    +0.000 A 
ATOM     15  C   UNL     1       3.631   8.512  -0.001  0.00  0.00    +0.000 A 
ATOM     16  S   UNL     1       4.654   9.255   1.146  0.00  0.00    +0.000 S 
ATOM     17  C   UNL     1       5.838   8.049   0.958  0.00  0.00    +0.000 A 
ATOM     18  N   UNL     1       7.018   8.098   1.645  0.00  0.00    +0.000 NA
ATOM     19  C   UNL     1       7.829   7.139   1.381  0.00  0.00    +0.000 A 
ATOM     20  N   UNL     1       7.579   6.115   0.501  0.00  0.00    +0.000 N 
ATOM     21  C   UNL     1       6.377   5.985  -0.162  0.00  0.00    +0.000 A 
ATOM     22  O   UNL     1       6.141   5.008  -0.859  0.00  0.00    +0.000 OA
ATOM     23  C   UNL     1       5.445   7.072   0.060  0.00  0.00    +0.000 A 
ATOM     24  H   UNL     1       8.243   5.369   0.365  0.00  0.00    +0.000 HD
ENDBRANCH  11  14
ENDBRANCH   9  10
ENDBRANCH   3   9
BRANCH   6  25
ATOM     25  C   UNL     1       4.542  -1.326  -1.625  0.00  0.00    +0.000 C 
BRANCH  25  26
ATOM     26  N   UNL     1       5.565  -1.550  -0.633  0.00  0.00    +0.000 N 
ATOM     27  C   UNL     1       6.911  -1.538  -0.897  0.00  0.00    +0.000 C 
ATOM     28  O   UNL     1       7.383  -1.335  -2.014  0.00  0.00    +0.000 OA
ATOM     29  H   UNL     1       5.269  -1.505   0.326  0.00  0.00    +0.000 HD
BRANCH  27  30
ATOM     30  C   UNL     1       7.743  -1.809   0.262  0.00  0.00    +0.000 A 
ATOM     31  C   UNL     1       7.420  -2.090   1.582  0.00  0.00    +0.000 A 
ATOM     32  C   UNL     1       8.622  -2.297   2.300  0.00  0.00    +0.000 A 
ATOM     33  C   UNL     1       9.657  -2.143   1.411  0.00  0.00    +0.000 A 
ATOM     34  N   UNL     1       9.120  -1.854   0.184  0.00  0.00    +0.000 N 
ATOM     35  H   UNL     1       9.638  -1.703  -0.673  0.00  0.00    +0.000 HD
ENDBRANCH  27  30
ENDBRANCH  25  26
ENDBRANCH   6  25
TORSDOF 7
