REMARK  Name = 
REMARK  6 active torsions:
REMARK  status: ('A' for Active; 'I' for Inactive)
REMARK    1  A    between atoms: C_2  and  C_4
REMARK    2  A    between atoms: C_7  and  O_8
REMARK    3  A    between atoms: O_8  and  C_9
REMARK    4  A    between atoms: C_9  and  C_10
REMARK    5  A    between atoms: C_14  and  N_15
REMARK    6  A    between atoms: C_18  and  N_19
REMARK                            x       y       z     vdW  Elec       q    Type
REMARK                         _______ _______ _______ _____ _____    ______ ____
ROOT
ATOM      1  C   UNL     1       5.436   4.367  -5.814  0.00  0.00    +0.000 A 
ATOM      2  C   UNL     1       6.147   3.518  -6.646  0.00  0.00    +0.000 A 
ATOM      3  N   UNL     1       6.790   3.925  -7.760  0.00  0.00    +0.000 NA
ATOM      4  C   UNL     1       6.725   5.253  -8.048  0.00  0.00    +0.000 A 
ATOM      5  C   UNL     1       6.057   6.218  -7.291  0.00  0.00    +0.000 A 
ATOM      6  C   UNL     1       5.428   5.729  -6.140  0.00  0.00    +0.000 A 
ENDROOT
BRANCH   5   7
ATOM      7  N   UNL     1       6.024   7.570  -7.586  0.00  0.00    +0.000 N 
ATOM      8  C   UNL     1       7.020   8.194  -8.456  0.00  0.00    +0.000 C 
ATOM      9  C   UNL     1       7.341   9.586  -7.903  0.00  0.00    +0.000 C 
ATOM     10  C   UNL     1       6.090  10.446  -7.667  0.00  0.00    +0.000 C 
ATOM     11  C   UNL     1       5.033   9.669  -6.872  0.00  0.00    +0.000 C 
ATOM     12  C   UNL     1       4.753   8.298  -7.479  0.00  0.00    +0.000 C 
BRANCH  10  13
ATOM     13  N   UNL     1       5.529  10.954  -8.923  0.00  0.00    +0.000 NA
ATOM     14  H   UNL     1       5.275  10.188  -9.544  0.00  0.00    +0.000 HD
ATOM     15  H   UNL     1       6.236  11.497  -9.418  0.00  0.00    +0.000 HD
ENDBRANCH  10  13
ENDBRANCH   5   7
BRANCH   1  16
ATOM     16  C   UNL     1       4.671   3.858  -4.629  0.00  0.00    +0.000 C 
BRANCH  16  17
ATOM     17  O   UNL     1       5.510   3.782  -3.479  0.00  0.00    +0.000 OA
BRANCH  17  21
ATOM     18  C   UNL     1       3.897   2.458   0.143  0.00  0.00    +0.000 A 
ATOM     19  C   UNL     1       3.056   2.547  -0.970  0.00  0.00    +0.000 A 
ATOM     20  C   UNL     1       3.560   2.989  -2.199  0.00  0.00    +0.000 A 
ATOM     21  C   UNL     1       4.905   3.349  -2.327  0.00  0.00    +0.000 A 
ATOM     22  C   UNL     1       5.737   3.281  -1.205  0.00  0.00    +0.000 A 
ATOM     23  C   UNL     1       5.236   2.844   0.027  0.00  0.00    +0.000 A 
BRANCH  18  25
ATOM     24  N   UNL     1       2.346   1.104   1.441  0.00  0.00    +0.000 N 
ATOM     25  C   UNL     1       3.397   1.979   1.456  0.00  0.00    +0.000 C 
ATOM     26  O   UNL     1       3.923   2.316   2.509  0.00  0.00    +0.000 OA
ATOM     27  H   UNL     1       2.091   0.696   2.331  0.00  0.00    +0.000 HD
ATOM     28  H   UNL     1       2.068   0.609   0.604  0.00  0.00    +0.000 HD
ENDBRANCH  18  25
ENDBRANCH  17  21
ENDBRANCH  16  17
ENDBRANCH   1  16
TORSDOF 6
