REMARK  Name = 
REMARK  12 active torsions:
REMARK  status: ('A' for Active; 'I' for Inactive)
REMARK    1  A    between atoms: C_1  and  O_2
REMARK    2  A    between atoms: O_2  and  C_3
REMARK    3  A    between atoms: C_3  and  C_4
REMARK    4  A    between atoms: C_4  and  N_5
REMARK    5  A    between atoms: N_5  and  C_6
REMARK    6  A    between atoms: C_6  and  C_7
REMARK    7  A    between atoms: C_6  and  C_21
REMARK    8  A    between atoms: C_7  and  C_8
REMARK    9  A    between atoms: C_11  and  C_12
REMARK   10  A    between atoms: C_12  and  N_13
REMARK   11  A    between atoms: N_16  and  C_17
REMARK   12  A    between atoms: C_21  and  C_23
REMARK                            x       y       z     vdW  Elec       q    Type
REMARK                         _______ _______ _______ _____ _____    ______ ____
ROOT
ATOM      1  C   UNL     1       6.204  -2.205   1.650  0.00  0.00    +0.000 C 
ENDROOT
BRANCH   1   2
ATOM      2  N   UNL     1       6.584  -2.840   0.358  0.00  0.00    +0.000 NA
ATOM      3  H   UNL     1       6.078  -3.729   0.285  0.00  0.00    +0.000 HD
BRANCH   2   4
ATOM      4  C   UNL     1       8.015  -3.114   0.184  0.00  0.00    +0.000 C 
BRANCH   4   5
ATOM      5  C   UNL     1       8.656  -4.083   1.190  0.00  0.00    +0.000 C 
BRANCH   5   7
ATOM      6  C   UNL     1       8.611  -6.294   1.999  0.00  0.00    +0.000 C 
ATOM      7  O   UNL     1       7.970  -5.337   1.164  0.00  0.00    +0.000 OA
ENDBRANCH   5   7
ENDBRANCH   4   5
ENDBRANCH   2   4
ENDBRANCH   1   2
BRANCH   1   8
ATOM      8  C   UNL     1       4.669  -2.052   1.744  0.00  0.00    +0.000 C 
ATOM      9  O   UNL     1       3.961  -2.281   0.756  0.00  0.00    +0.000 OA
BRANCH   8  10
ATOM     10  C   UNL     1       3.985  -1.674   3.008  0.00  0.00    +0.000 A 
ATOM     11  C   UNL     1       2.770  -1.005   2.919  0.00  0.00    +0.000 A 
ATOM     12  S   UNL     1       2.003  -0.762   4.417  0.00  0.00    +0.000 S 
ATOM     13  C   UNL     1       3.245  -1.585   5.241  0.00  0.00    +0.000 A 
ATOM     14  N   UNL     1       3.135  -1.830   6.574  0.00  0.00    +0.000 NA
ATOM     15  C   UNL     1       4.108  -2.514   7.072  0.00  0.00    +0.000 A 
ATOM     16  N   UNL     1       5.208  -2.929   6.367  0.00  0.00    +0.000 N 
ATOM     17  C   UNL     1       5.421  -2.578   5.049  0.00  0.00    +0.000 A 
ATOM     18  O   UNL     1       6.522  -2.757   4.541  0.00  0.00    +0.000 OA
ATOM     19  C   UNL     1       4.288  -1.943   4.400  0.00  0.00    +0.000 A 
ATOM     20  H   UNL     1       5.975  -3.384   6.838  0.00  0.00    +0.000 HD
ENDBRANCH   8  10
ENDBRANCH   1   8
BRANCH   1  21
ATOM     21  C   UNL     1       6.903  -0.864   1.982  0.00  0.00    +0.000 C 
BRANCH  21  22
ATOM     22  C   UNL     1       6.774   0.351   1.082  0.00  0.00    +0.000 A 
ATOM     23  C   UNL     1       7.043   1.612   1.644  0.00  0.00    +0.000 A 
ATOM     24  C   UNL     1       7.131   2.762   0.851  0.00  0.00    +0.000 A 
ATOM     25  C   UNL     1       6.935   2.688  -0.531  0.00  0.00    +0.000 A 
ATOM     26  C   UNL     1       6.618   1.443  -1.090  0.00  0.00    +0.000 A 
ATOM     27  C   UNL     1       6.541   0.290  -0.294  0.00  0.00    +0.000 A 
BRANCH  25  28
ATOM     28  C   UNL     1       7.060   3.926  -1.397  0.00  0.00    +0.000 C 
BRANCH  28  29
ATOM     29  N   UNL     1       8.432   4.251  -1.820  0.00  0.00    +0.000 NA
ATOM     30  C   UNL     1       8.463   5.510  -2.576  0.00  0.00    +0.000 C 
ATOM     31  C   UNL     1       9.300   5.242  -3.822  0.00  0.00    +0.000 C 
ATOM     32  N   UNL     1       9.904   3.921  -3.638  0.00  0.00    +0.000 NA
ATOM     33  C   UNL     1      11.269   4.018  -3.132  0.00  0.00    +0.000 C 
ATOM     34  C   UNL     1       9.014   3.239  -2.695  0.00  0.00    +0.000 C 
ENDBRANCH  28  29
ENDBRANCH  25  28
ENDBRANCH  21  22
ENDBRANCH   1  21
TORSDOF 10
