REMARK  Name = 
REMARK  10 active torsions:
REMARK  status: ('A' for Active; 'I' for Inactive)
REMARK    1  A    between atoms: C_1  and  O_2
REMARK    2  A    between atoms: O_2  and  C_3
REMARK    3  A    between atoms: C_10  and  C_11
REMARK    4  A    between atoms: N_13  and  C_14
REMARK    5  A    between atoms: C_14  and  C_15
REMARK    6  A    between atoms: C_18  and  O_19
REMARK    7  A    between atoms: O_19  and  C_20
REMARK    8  A    between atoms: C_20  and  C_21
REMARK    9  A    between atoms: C_21  and  O_22
REMARK   10  A    between atoms: C_21  and  C_23
REMARK                            x       y       z     vdW  Elec       q    Type
REMARK                         _______ _______ _______ _____ _____    ______ ____
ROOT
ATOM      1  C   UNL     1       1.722   3.429  -0.257  0.00  0.00    +0.000 A 
ATOM      2  C   UNL     1       1.316   2.283  -0.949  0.00  0.00    +0.000 A 
ATOM      3  C   UNL     1       0.155   2.289  -1.728  0.00  0.00    +0.000 A 
ATOM      4  C   UNL     1      -0.614   3.445  -1.851  0.00  0.00    +0.000 A 
ATOM      5  C   UNL     1      -0.174   4.614  -1.220  0.00  0.00    +0.000 A 
ATOM      6  C   UNL     1       0.987   4.609  -0.435  0.00  0.00    +0.000 A 
ENDROOT
BRANCH   1   7
ATOM      7  C   UNL     1       2.898   3.363   0.686  0.00  0.00    +0.000 C 
BRANCH   7  10
ATOM      8  C   UNL     1       5.338   3.608   0.723  0.00  0.00    +0.000 C 
ATOM      9  O   UNL     1       5.374   3.287   1.909  0.00  0.00    +0.000 OA
ATOM     10  N   UNL     1       4.149   3.667   0.041  0.00  0.00    +0.000 N 
ATOM     11  H   UNL     1       4.139   3.854  -0.951  0.00  0.00    +0.000 HD
BRANCH   8  19
ATOM     12  C   UNL     1       5.981   4.435  -2.548  0.00  0.00    +0.000 A 
ATOM     13  N   UNL     1       6.477   4.899  -3.712  0.00  0.00    +0.000 NA
ATOM     14  C   UNL     1       7.768   5.249  -3.750  0.00  0.00    +0.000 A 
ATOM     15  N   UNL     1       8.648   5.179  -2.753  0.00  0.00    +0.000 NA
ATOM     16  C   UNL     1       8.109   4.723  -1.611  0.00  0.00    +0.000 A 
ATOM     17  S   UNL     1       9.088   4.537  -0.237  0.00  0.00    +0.000 S 
ATOM     18  C   UNL     1       7.768   4.006   0.693  0.00  0.00    +0.000 A 
ATOM     19  C   UNL     1       6.566   3.973  -0.005  0.00  0.00    +0.000 A 
ATOM     20  C   UNL     1       6.785   4.352  -1.398  0.00  0.00    +0.000 A 
BRANCH  12  22
ATOM     21  C   UNL     1       3.972   4.145  -3.745  0.00  0.00    +0.000 C 
ATOM     22  O   UNL     1       4.671   4.005  -2.511  0.00  0.00    +0.000 OA
ENDBRANCH  12  22
ENDBRANCH   8  19
ENDBRANCH   7  10
ENDBRANCH   1   7
BRANCH   4  23
ATOM     23  O   UNL     1      -1.805   3.541  -2.530  0.00  0.00    +0.000 OA
BRANCH  23  24
ATOM     24  C   UNL     1      -2.261   2.336  -3.171  0.00  0.00    +0.000 C 
BRANCH  24  25
ATOM     25  C   UNL     1      -3.603   2.521  -3.911  0.00  0.00    +0.000 C 
BRANCH  25  26
ATOM     26  C   UNL     1      -3.545   3.470  -5.090  0.00  0.00    +0.000 A 
ATOM     27  C   UNL     1      -3.278   4.838  -4.923  0.00  0.00    +0.000 A 
ATOM     28  C   UNL     1      -3.206   5.695  -6.024  0.00  0.00    +0.000 A 
ATOM     29  C   UNL     1      -3.408   5.197  -7.310  0.00  0.00    +0.000 A 
ATOM     30  C   UNL     1      -3.688   3.845  -7.488  0.00  0.00    +0.000 A 
ATOM     31 CL   UNL     1      -3.938   3.228  -9.075  0.00  0.00    +0.000 Cl
ATOM     32  C   UNL     1      -3.760   2.985  -6.391  0.00  0.00    +0.000 A 
ENDBRANCH  25  26
BRANCH  25  33
ATOM     33  O   UNL     1      -4.643   2.914  -3.019  0.00  0.00    +0.000 OA
ATOM     34  H   UNL     1      -4.372   3.762  -2.624  0.00  0.00    +0.000 HD
ENDBRANCH  25  33
ENDBRANCH  24  25
ENDBRANCH  23  24
ENDBRANCH   4  23
TORSDOF 9
