REMARK  Name = 
REMARK  7 active torsions:
REMARK  status: ('A' for Active; 'I' for Inactive)
REMARK    1  A    between atoms: C_1  and  C_2
REMARK    2  A    between atoms: C_2  and  C_3
REMARK    3  A    between atoms: C_2  and  C_4
REMARK    4  A    between atoms: C_2  and  C_19
REMARK    5  A    between atoms: C_4  and  N_5
REMARK    6  A    between atoms: N_5  and  C_6
REMARK    7  A    between atoms: C_10  and  C_11
REMARK                            x       y       z     vdW  Elec       q    Type
REMARK                         _______ _______ _______ _____ _____    ______ ____
ROOT
ATOM      1  N   UNL     1       2.570   1.740   1.650  0.00  0.00    +0.000 N 
ATOM      2  H   UNL     1       1.686   2.024   1.232  0.00  0.00    +0.000 HD
ENDROOT
BRANCH   1   3
ATOM      3  C   UNL     1       2.785   2.277   2.912  0.00  0.00    +0.000 A 
ATOM      4  C   UNL     1       2.264   3.532   3.236  0.00  0.00    +0.000 A 
ATOM      5  N   UNL     1       2.495   4.207   4.381  0.00  0.00    +0.000 NA
ATOM      6  C   UNL     1       3.332   3.611   5.263  0.00  0.00    +0.000 A 
ATOM      7  C   UNL     1       3.934   2.362   5.084  0.00  0.00    +0.000 A 
ATOM      8  C   UNL     1       3.631   1.710   3.870  0.00  0.00    +0.000 A 
BRANCH   7   9
ATOM      9  C   UNL     1       4.853   1.774   6.084  0.00  0.00    +0.000 A 
ATOM     10  C   UNL     1       4.714   2.034   7.462  0.00  0.00    +0.000 A 
ATOM     11  C   UNL     1       5.592   1.486   8.408  0.00  0.00    +0.000 A 
ATOM     12  C   UNL     1       6.626   0.653   7.995  0.00  0.00    +0.000 A 
ATOM     13  C   UNL     1       6.775   0.381   6.644  0.00  0.00    +0.000 A 
ATOM     14  F   UNL     1       7.765  -0.425   6.238  0.00  0.00    +0.000 F 
ATOM     15  C   UNL     1       5.914   0.934   5.698  0.00  0.00    +0.000 A 
ENDBRANCH   7   9
ENDBRANCH   1   3
BRANCH   1  16
ATOM     16  C   UNL     1       3.020   0.402   1.271  0.00  0.00    +0.000 C 
BRANCH  16  18
ATOM     17  C   UNL     1       2.952   0.993  -1.188  0.00  0.00    +0.000 C 
ATOM     18  C   UNL     1       2.451  -0.018  -0.124  0.00  0.00    +0.000 C 
ATOM     19  C   UNL     1       3.057  -1.389  -0.508  0.00  0.00    +0.000 C 
BRANCH  18  20
ATOM     20  C   UNL     1       0.911  -0.137  -0.066  0.00  0.00    +0.000 A 
ATOM     21  C   UNL     1       0.065   0.633  -0.886  0.00  0.00    +0.000 A 
ATOM     22  C   UNL     1      -1.325   0.519  -0.809  0.00  0.00    +0.000 A 
ATOM     23  C   UNL     1      -1.902  -0.365   0.093  0.00  0.00    +0.000 A 
ATOM     24 CL   UNL     1      -3.613  -0.505   0.182  0.00  0.00    +0.000 Cl
ATOM     25  C   UNL     1      -1.096  -1.136   0.923  0.00  0.00    +0.000 A 
ATOM     26  C   UNL     1       0.296  -1.026   0.842  0.00  0.00    +0.000 A 
ENDBRANCH  18  20
ENDBRANCH  16  18
ENDBRANCH   1  16
TORSDOF 5
