REMARK  Name = 
REMARK  4 active torsions:
REMARK  status: ('A' for Active; 'I' for Inactive)
REMARK    1  A    between atoms: C_2  and  C_4
REMARK    2  A    between atoms: N_8  and  C_9
REMARK    3  A    between atoms: C_9  and  C_10
REMARK    4  A    between atoms: C_14  and  C_15
REMARK                            x       y       z     vdW  Elec       q    Type
REMARK                         _______ _______ _______ _____ _____    ______ ____
ROOT
ATOM      1  C   UNL     1       7.857  -0.653  -1.837  0.00  0.00    +0.000 A 
ATOM      2  C   UNL     1       7.808  -0.447  -3.210  0.00  0.00    +0.000 A 
ATOM      3  C   UNL     1       6.924  -1.205  -3.979  0.00  0.00    +0.000 A 
ATOM      4  C   UNL     1       6.106  -2.147  -3.367  0.00  0.00    +0.000 A 
ATOM      5  N   UNL     1       5.166  -2.882  -4.029  0.00  0.00    +0.000 N 
ATOM      6  N   UNL     1       6.177  -2.379  -2.041  0.00  0.00    +0.000 NA
ATOM      7  C   UNL     1       7.048  -1.643  -1.305  0.00  0.00    +0.000 A 
ATOM      8  H   UNL     1       4.684  -3.547  -3.438  0.00  0.00    +0.000 HD
ENDROOT
BRANCH   1  10
ATOM      9  N   UNL     1       9.068   1.393  -1.350  0.00  0.00    +0.000 N 
ATOM     10  C   UNL     1       8.728   0.132  -0.940  0.00  0.00    +0.000 C 
ATOM     11  O   UNL     1       9.102  -0.309   0.138  0.00  0.00    +0.000 OA
ATOM     12  H   UNL     1       9.576   1.961  -0.684  0.00  0.00    +0.000 HD
ATOM     13  H   UNL     1       8.581   1.872  -2.094  0.00  0.00    +0.000 HD
ENDBRANCH   1  10
BRANCH   5  14
ATOM     14  C   UNL     1       4.875  -2.849  -5.439  0.00  0.00    +0.000 C 
BRANCH  14  15
ATOM     15  C   UNL     1       5.769  -3.767  -6.237  0.00  0.00    +0.000 A 
ATOM     16  C   UNL     1       6.190  -5.003  -5.744  0.00  0.00    +0.000 A 
ATOM     17  C   UNL     1       6.937  -5.827  -6.567  0.00  0.00    +0.000 A 
ATOM     18  N   UNL     1       7.285  -5.510  -7.832  0.00  0.00    +0.000 NA
ATOM     19  C   UNL     1       6.893  -4.306  -8.317  0.00  0.00    +0.000 A 
ATOM     20  C   UNL     1       6.128  -3.425  -7.549  0.00  0.00    +0.000 A 
BRANCH  19  21
ATOM     21  C   UNL     1       7.316  -4.007  -9.695  0.00  0.00    +0.000 A 
ATOM     22  C   UNL     1       7.463  -5.016 -10.658  0.00  0.00    +0.000 A 
ATOM     23  C   UNL     1       7.874  -4.710 -11.955  0.00  0.00    +0.000 A 
ATOM     24  C   UNL     1       8.132  -3.388 -12.265  0.00  0.00    +0.000 A 
ATOM     25  N   UNL     1       8.008  -2.377 -11.382  0.00  0.00    +0.000 NA
ATOM     26  C   UNL     1       7.614  -2.714 -10.127  0.00  0.00    +0.000 A 
ENDBRANCH  19  21
ENDBRANCH  14  15
ENDBRANCH   5  14
TORSDOF 4
