REMARK  Name = 
REMARK  4 active torsions:
REMARK  status: ('A' for Active; 'I' for Inactive)
REMARK    1  A    between atoms: N_1  and  C_2
REMARK    2  A    between atoms: C_2  and  C_3
REMARK    3  A    between atoms: C_6  and  C_7
REMARK    4  A    between atoms: C_7  and  N_8
REMARK                            x       y       z     vdW  Elec       q    Type
REMARK                         _______ _______ _______ _____ _____    ______ ____
ROOT
ATOM      1  C   UNL     1       3.787  -3.001   4.796  0.00  0.00    +0.000 C 
ENDROOT
BRANCH   1   2
ATOM      2  N   UNL     1       4.209  -2.105   5.854  0.00  0.00    +0.000 N 
ATOM      3  C   UNL     1       5.413  -1.455   5.896  0.00  0.00    +0.000 A 
ATOM      4  N   UNL     1       5.499  -0.659   6.937  0.00  0.00    +0.000 NA
ATOM      5  C   UNL     1       4.312  -0.815   7.609  0.00  0.00    +0.000 A 
ATOM      6  C   UNL     1       3.866  -0.178   8.773  0.00  0.00    +0.000 A 
ATOM      7  C   UNL     1       2.607  -0.523   9.276  0.00  0.00    +0.000 A 
ATOM      8 CL   UNL     1       2.007   0.278  10.678  0.00  0.00    +0.000 Cl
ATOM      9  C   UNL     1       1.820  -1.498   8.662  0.00  0.00    +0.000 A 
ATOM     10  C   UNL     1       2.252  -2.139   7.492  0.00  0.00    +0.000 A 
ATOM     11  C   UNL     1       3.498  -1.755   6.978  0.00  0.00    +0.000 A 
ENDBRANCH   1   2
BRANCH   1  15
ATOM     12  C   UNL     1       3.301  -1.065   1.019  0.00  0.00    +0.000 A 
ATOM     13  C   UNL     1       2.251  -1.034   1.939  0.00  0.00    +0.000 A 
ATOM     14  C   UNL     1       2.399  -1.631   3.190  0.00  0.00    +0.000 A 
ATOM     15  C   UNL     1       3.601  -2.272   3.490  0.00  0.00    +0.000 A 
ATOM     16  N   UNL     1       4.646  -2.289   2.626  0.00  0.00    +0.000 NA
ATOM     17  C   UNL     1       4.475  -1.687   1.425  0.00  0.00    +0.000 A 
BRANCH  12  18
ATOM     18  C   UNL     1       3.159  -0.513  -0.371  0.00  0.00    +0.000 C 
BRANCH  18  19
ATOM     19  N   UNL     1       2.773   0.893  -0.371  0.00  0.00    +0.000 NA
ATOM     20  H   UNL     1       2.762   1.234  -1.331  0.00  0.00    +0.000 HD
ATOM     21  H   UNL     1       3.487   1.435   0.114  0.00  0.00    +0.000 HD
ENDBRANCH  18  19
ENDBRANCH  12  18
ENDBRANCH   1  15
TORSDOF 4
