REMARK  Name = 
REMARK  6 active torsions:
REMARK  status: ('A' for Active; 'I' for Inactive)
REMARK    1  A    between atoms: C_2  and  C_19
REMARK    2  A    between atoms: N_3  and  C_4
REMARK    3  A    between atoms: C_4  and  C_5
REMARK    4  A    between atoms: C_8  and  C_9
REMARK    5  A    between atoms: C_9  and  N_10
REMARK    6  A    between atoms: N_10  and  C_11
REMARK                            x       y       z     vdW  Elec       q    Type
REMARK                         _______ _______ _______ _____ _____    ______ ____
ROOT
ATOM      1  C   UNL     1       2.284  -2.205   1.327  0.00  0.00    +0.000 C 
ENDROOT
BRANCH   1   2
ATOM      2  C   UNL     1       3.262  -3.284   1.746  0.00  0.00    +0.000 A 
ATOM      3  C   UNL     1       4.467  -2.938   2.348  0.00  0.00    +0.000 A 
ATOM      4  C   UNL     1       5.330  -3.950   2.766  0.00  0.00    +0.000 A 
ATOM      5  C   UNL     1       4.968  -5.290   2.596  0.00  0.00    +0.000 A 
ATOM      6  C   UNL     1       3.739  -5.541   1.997  0.00  0.00    +0.000 A 
ATOM      7  N   UNL     1       2.876  -4.578   1.590  0.00  0.00    +0.000 NA
BRANCH   5   8
ATOM      8  C   UNL     1       5.861  -6.414   3.037  0.00  0.00    +0.000 C 
BRANCH   8   9
ATOM      9  N   UNL     1       6.768  -6.787   1.956  0.00  0.00    +0.000 N 
ATOM     10  H   UNL     1       7.201  -5.975   1.520  0.00  0.00    +0.000 HD
BRANCH   9  11
ATOM     11  C   UNL     1       7.689  -7.815   2.188  0.00  0.00    +0.000 A 
ATOM     12  C   UNL     1       7.497  -8.890   3.043  0.00  0.00    +0.000 A 
ATOM     13  N   UNL     1       8.362  -9.916   3.214  0.00  0.00    +0.000 NA
ATOM     14  C   UNL     1       9.466  -9.872   2.457  0.00  0.00    +0.000 A 
ATOM     15  N   UNL     1       9.761  -8.925   1.558  0.00  0.00    +0.000 NA
ATOM     16  C   UNL     1       8.851  -7.932   1.438  0.00  0.00    +0.000 A 
ENDBRANCH   9  11
ENDBRANCH   8   9
ENDBRANCH   5   8
ENDBRANCH   1   2
BRANCH   1  19
ATOM     17  O   UNL     1       2.386  -0.064   3.237  0.00  0.00    +0.000 OA
ATOM     18  C   UNL     1       1.548  -0.955   3.331  0.00  0.00    +0.000 C 
ATOM     19  N   UNL     1       1.358  -1.944   2.395  0.00  0.00    +0.000 N 
ATOM     20  H   UNL     1       0.813  -2.751   2.665  0.00  0.00    +0.000 HD
BRANCH  18  21
ATOM     21  C   UNL     1       0.785  -1.207   4.548  0.00  0.00    +0.000 A 
ATOM     22  C   UNL     1       1.305  -1.014   5.817  0.00  0.00    +0.000 A 
ATOM     23  S   UNL     1       0.430  -1.903   6.996  0.00  0.00    +0.000 S 
ATOM     24  C   UNL     1      -0.714  -2.421   5.841  0.00  0.00    +0.000 A 
ATOM     25  N   UNL     1      -1.668  -3.350   6.116  0.00  0.00    +0.000 NA
ATOM     26  C   UNL     1      -2.473  -3.588   5.131  0.00  0.00    +0.000 A 
ATOM     27  N   UNL     1      -2.451  -2.940   3.920  0.00  0.00    +0.000 N 
ATOM     28  C   UNL     1      -1.525  -1.978   3.608  0.00  0.00    +0.000 A 
ATOM     29  O   UNL     1      -1.568  -1.345   2.561  0.00  0.00    +0.000 OA
ATOM     30  C   UNL     1      -0.516  -1.796   4.632  0.00  0.00    +0.000 A 
ATOM     31  H   UNL     1      -3.164  -3.110   3.224  0.00  0.00    +0.000 HD
ENDBRANCH  18  21
ENDBRANCH   1  19
TORSDOF 6
