REMARK  Name = 
REMARK  6 active torsions:
REMARK  status: ('A' for Active; 'I' for Inactive)
REMARK    1  A    between atoms: N_1  and  C_2
REMARK    2  A    between atoms: C_2  and  C_3
REMARK    3  A    between atoms: C_3  and  C_4
REMARK    4  A    between atoms: C_7  and  C_8
REMARK    5  A    between atoms: C_8  and  N_9
REMARK    6  A    between atoms: C_14  and  C_15
REMARK                            x       y       z     vdW  Elec       q    Type
REMARK                         _______ _______ _______ _____ _____    ______ ____
ROOT
ATOM      1  N   UNL     1       9.310   1.638   0.288  0.00  0.00    +0.000 N 
ATOM      2  C   UNL     1       9.305   1.243  -1.023  0.00  0.00    +0.000 A 
ATOM      3  N   UNL     1       9.947   2.094  -1.791  0.00  0.00    +0.000 NA
ATOM      4  C   UNL     1      10.392   3.079  -0.945  0.00  0.00    +0.000 A 
ATOM      5  C   UNL     1      11.103   4.250  -1.253  0.00  0.00    +0.000 A 
ATOM      6  C   UNL     1      11.441   5.129  -0.213  0.00  0.00    +0.000 A 
ATOM      7  C   UNL     1      11.097   4.808   1.111  0.00  0.00    +0.000 A 
ATOM      8  C   UNL     1      10.404   3.635   1.436  0.00  0.00    +0.000 A 
ATOM      9  C   UNL     1      10.039   2.803   0.374  0.00  0.00    +0.000 A 
ENDROOT
BRANCH   6  10
ATOM     10  C   UNL     1      12.154   6.419  -0.443  0.00  0.00    +0.000 C 
ATOM     11  N   UNL     1      12.512   6.759  -1.719  0.00  0.00    +0.000 N 
ATOM     12  O   UNL     1      12.416   7.178   0.484  0.00  0.00    +0.000 OA
ATOM     13  H   UNL     1      12.347   6.199  -2.539  0.00  0.00    +0.000 HD
ATOM     14  H   UNL     1      12.986   7.645  -1.837  0.00  0.00    +0.000 HD
ENDBRANCH   6  10
BRANCH   1  15
ATOM     15  C   UNL     1       8.691   0.915   1.385  0.00  0.00    +0.000 C 
BRANCH  15  19
ATOM     16  C   UNL     1       4.453   0.438   1.136  0.00  0.00    +0.000 A 
ATOM     17  C   UNL     1       4.974   1.580   1.750  0.00  0.00    +0.000 A 
ATOM     18  C   UNL     1       6.351   1.780   1.793  0.00  0.00    +0.000 A 
ATOM     19  C   UNL     1       7.192   0.813   1.246  0.00  0.00    +0.000 A 
ATOM     20  N   UNL     1       6.707  -0.292   0.625  0.00  0.00    +0.000 NA
ATOM     21  C   UNL     1       5.363  -0.447   0.573  0.00  0.00    +0.000 A 
BRANCH  16  22
ATOM     22  C   UNL     1       2.969   0.198   1.059  0.00  0.00    +0.000 C 
BRANCH  22  23
ATOM     23  C   UNL     1       2.359   0.832  -0.195  0.00  0.00    +0.000 C 
BRANCH  23  24
ATOM     24  N   UNL     1       0.917   0.604  -0.257  0.00  0.00    +0.000 NA
ATOM     25  H   UNL     1       0.543   1.058  -1.091  0.00  0.00    +0.000 HD
ATOM     26  H   UNL     1       0.460   1.056   0.535  0.00  0.00    +0.000 HD
ENDBRANCH  23  24
ENDBRANCH  22  23
ENDBRANCH  16  22
ENDBRANCH  15  19
ENDBRANCH   1  15
TORSDOF 6
