REMARK  Name = 
REMARK  7 active torsions:
REMARK  status: ('A' for Active; 'I' for Inactive)
REMARK    1  A    between atoms: C_1  and  C_2
REMARK    2  A    between atoms: C_2  and  N_3
REMARK    3  A    between atoms: C_2  and  C_16
REMARK    4  A    between atoms: C_4  and  C_6
REMARK    5  A    between atoms: C_19  and  O_20
REMARK    6  A    between atoms: O_20  and  C_21
REMARK    7  A    between atoms: C_21  and  C_22
REMARK                            x       y       z     vdW  Elec       q    Type
REMARK                         _______ _______ _______ _____ _____    ______ ____
ROOT
ATOM      1  C   UNL     1       1.363  -0.375  -0.982  0.00  0.00    +0.000 C 
ATOM      2  C   UNL     1       2.464  -0.033   0.031  0.00  0.00    +0.000 C 
ENDROOT
BRANCH   2   3
ATOM      3  C   UNL     1       2.818  -1.189   0.948  0.00  0.00    +0.000 A 
ATOM      4  C   UNL     1       3.235  -0.940   2.267  0.00  0.00    +0.000 A 
ATOM      5  C   UNL     1       3.504  -1.998   3.139  0.00  0.00    +0.000 A 
ATOM      6  C   UNL     1       3.358  -3.315   2.707  0.00  0.00    +0.000 A 
ATOM      7  C   UNL     1       3.055  -3.568   1.369  0.00  0.00    +0.000 A 
ATOM      8  C   UNL     1       2.785  -2.517   0.501  0.00  0.00    +0.000 A 
BRANCH   6   9
ATOM      9  O   UNL     1       3.517  -4.290   3.655  0.00  0.00    +0.000 OA
BRANCH   9  10
ATOM     10  C   UNL     1       2.826  -5.509   3.352  0.00  0.00    +0.000 C 
BRANCH  10  11
ATOM     11  C   UNL     1       2.564  -6.302   4.607  0.00  0.00    +0.000 A 
ATOM     12  C   UNL     1       1.860  -5.722   5.661  0.00  0.00    +0.000 A 
ATOM     13  C   UNL     1       1.570  -6.497   6.778  0.00  0.00    +0.000 A 
ATOM     14  C   UNL     1       1.984  -7.823   6.812  0.00  0.00    +0.000 A 
ATOM     15  C   UNL     1       2.672  -8.324   5.719  0.00  0.00    +0.000 A 
ATOM     16  N   UNL     1       2.963  -7.599   4.620  0.00  0.00    +0.000 NA
ENDBRANCH  10  11
ENDBRANCH   9  10
ENDBRANCH   6   9
ENDBRANCH   2   3
BRANCH   2  17
ATOM     17  N   UNL     1       3.662   0.400  -0.655  0.00  0.00    +0.000 N 
ATOM     18  C   UNL     1       3.806   1.671  -1.142  0.00  0.00    +0.000 C 
ATOM     19  O   UNL     1       2.994   2.562  -0.918  0.00  0.00    +0.000 OA
ATOM     20  H   UNL     1       4.273  -0.334  -0.993  0.00  0.00    +0.000 HD
BRANCH  18  21
ATOM     21  C   UNL     1       5.022   1.921  -1.918  0.00  0.00    +0.000 A 
ATOM     22  C   UNL     1       5.572   3.194  -1.950  0.00  0.00    +0.000 A 
ATOM     23  S   UNL     1       6.974   3.304  -2.915  0.00  0.00    +0.000 S 
ATOM     24  C   UNL     1       6.867   1.666  -3.357  0.00  0.00    +0.000 A 
ATOM     25  N   UNL     1       7.754   1.115  -4.227  0.00  0.00    +0.000 NA
ATOM     26  C   UNL     1       7.530  -0.126  -4.502  0.00  0.00    +0.000 A 
ATOM     27  N   UNL     1       6.510  -0.874  -3.975  0.00  0.00    +0.000 N 
ATOM     28  C   UNL     1       5.622  -0.379  -3.052  0.00  0.00    +0.000 A 
ATOM     29  O   UNL     1       4.776  -1.099  -2.524  0.00  0.00    +0.000 OA
ATOM     30  C   UNL     1       5.801   1.029  -2.746  0.00  0.00    +0.000 A 
ATOM     31  H   UNL     1       6.411  -1.851  -4.211  0.00  0.00    +0.000 HD
ENDBRANCH  18  21
ENDBRANCH   2  17
TORSDOF 6
