REMARK  Name = 
REMARK  7 active torsions:
REMARK  status: ('A' for Active; 'I' for Inactive)
REMARK    1  A    between atoms: N_1  and  C_2
REMARK    2  A    between atoms: C_2  and  C_3
REMARK    3  A    between atoms: N_10  and  C_11
REMARK    4  A    between atoms: C_11  and  C_12
REMARK    5  A    between atoms: C_15  and  C_16
REMARK    6  A    between atoms: C_16  and  N_17
REMARK    7  A    between atoms: C_18  and  C_20
REMARK                            x       y       z     vdW  Elec       q    Type
REMARK                         _______ _______ _______ _____ _____    ______ ____
ROOT
ATOM      1  C   UNL     1       4.208  -3.854   1.615  0.00  0.00    +0.000 A 
ATOM      2  C   UNL     1       4.911  -5.042   1.859  0.00  0.00    +0.000 A 
ATOM      3  C   UNL     1       4.755  -6.154   1.023  0.00  0.00    +0.000 A 
ATOM      4  C   UNL     1       3.909  -6.099  -0.093  0.00  0.00    +0.000 A 
ATOM      5  C   UNL     1       3.187  -4.921  -0.324  0.00  0.00    +0.000 A 
ATOM      6  C   UNL     1       3.342  -3.808   0.515  0.00  0.00    +0.000 A 
ENDROOT
BRANCH   1   7
ATOM      7  C   UNL     1       4.377  -2.665   2.530  0.00  0.00    +0.000 C 
BRANCH   7  15
ATOM      8  C   UNL     1       8.094   0.381   3.044  0.00  0.00    +0.000 A 
ATOM      9  C   UNL     1       8.793   1.199   2.172  0.00  0.00    +0.000 A 
ATOM     10  C   UNL     1       8.055   1.288   0.975  0.00  0.00    +0.000 A 
ATOM     11  C   UNL     1       6.931   0.511   1.135  0.00  0.00    +0.000 A 
ATOM     12  N   UNL     1       6.921  -0.029   2.416  0.00  0.00    +0.000 N 
ATOM     13  C   UNL     1       5.870  -0.791   2.974  0.00  0.00    +0.000 C 
ATOM     14  O   UNL     1       5.460  -0.550   4.098  0.00  0.00    +0.000 OA
ATOM     15  N   UNL     1       5.433  -1.772   2.108  0.00  0.00    +0.000 N 
ATOM     16  H   UNL     1       6.074  -2.086   1.390  0.00  0.00    +0.000 HD
BRANCH   8  17
ATOM     17  C   UNL     1       8.507  -0.112   4.385  0.00  0.00    +0.000 C 
BRANCH  17  18
ATOM     18  N   UNL     1       9.202  -1.383   4.211  0.00  0.00    +0.000 NA
ATOM     19  H   UNL     1       9.585  -1.669   5.111  0.00  0.00    +0.000 HD
ATOM     20  H   UNL     1      10.004  -1.232   3.601  0.00  0.00    +0.000 HD
ENDBRANCH  17  18
ENDBRANCH   8  17
ENDBRANCH   7  15
ENDBRANCH   1   7
BRANCH   4  21
ATOM     21  C   UNL     1       3.781  -7.280  -1.024  0.00  0.00    +0.000 C 
BRANCH  21  22
ATOM     22  N   UNL     1       2.670  -8.135  -0.683  0.00  0.00    +0.000 N 
ATOM     23  C   UNL     1       2.357  -9.221  -1.465  0.00  0.00    +0.000 C 
ATOM     24  O   UNL     1       2.911  -9.423  -2.544  0.00  0.00    +0.000 OA
ATOM     25  H   UNL     1       2.326  -8.088   0.271  0.00  0.00    +0.000 HD
BRANCH  23  26
ATOM     26  C   UNL     1       1.320 -10.135  -0.966  0.00  0.00    +0.000 A 
ATOM     27  C   UNL     1       0.626 -10.946  -1.856  0.00  0.00    +0.000 A 
ATOM     28  S   UNL     1      -0.483 -12.000  -1.103  0.00  0.00    +0.000 S 
ATOM     29  C   UNL     1      -0.041 -11.443   0.444  0.00  0.00    +0.000 A 
ATOM     30  N   UNL     1      -0.567 -12.003   1.566  0.00  0.00    +0.000 NA
ATOM     31  C   UNL     1      -0.133 -11.491   2.668  0.00  0.00    +0.000 A 
ATOM     32  N   UNL     1       0.762 -10.459   2.754  0.00  0.00    +0.000 N 
ATOM     33  C   UNL     1       1.288  -9.832   1.650  0.00  0.00    +0.000 A 
ATOM     34  O   UNL     1       2.035  -8.866   1.762  0.00  0.00    +0.000 OA
ATOM     35  C   UNL     1       0.881 -10.412   0.381  0.00  0.00    +0.000 A 
ATOM     36  H   UNL     1       1.025 -10.079   3.650  0.00  0.00    +0.000 HD
ENDBRANCH  23  26
ENDBRANCH  21  22
ENDBRANCH   4  21
TORSDOF 7
