REMARK  Name = 
REMARK  7 active torsions:
REMARK  status: ('A' for Active; 'I' for Inactive)
REMARK    1  A    between atoms: N_1  and  C_2
REMARK    2  A    between atoms: C_2  and  C_3
REMARK    3  A    between atoms: C_3  and  N_4
REMARK    4  A    between atoms: C_3  and  C_17
REMARK    5  A    between atoms: C_5  and  C_7
REMARK    6  A    between atoms: C_20  and  C_21
REMARK    7  A    between atoms: C_21  and  C_22
REMARK                            x       y       z     vdW  Elec       q    Type
REMARK                         _______ _______ _______ _____ _____    ______ ____
ROOT
ATOM      1  C   UNL     1       2.891   1.052   0.750  0.00  0.00    +0.000 C 
ENDROOT
BRANCH   1   2
ATOM      2  C   UNL     1       4.417   1.130   0.821  0.00  0.00    +0.000 A 
ATOM      3  C   UNL     1       5.093   2.230   0.279  0.00  0.00    +0.000 A 
ATOM      4  C   UNL     1       6.489   2.305   0.326  0.00  0.00    +0.000 A 
ATOM      5  C   UNL     1       7.241   1.290   0.934  0.00  0.00    +0.000 A 
ATOM      6  C   UNL     1       6.568   0.199   1.495  0.00  0.00    +0.000 A 
ATOM      7  C   UNL     1       5.173   0.117   1.435  0.00  0.00    +0.000 A 
BRANCH   5   8
ATOM      8  C   UNL     1       8.752   1.361   0.975  0.00  0.00    +0.000 C 
BRANCH   8   9
ATOM      9  C   UNL     1       9.351   2.045   2.185  0.00  0.00    +0.000 A 
ATOM     10  C   UNL     1       9.089   3.388   2.455  0.00  0.00    +0.000 A 
ATOM     11  C   UNL     1       9.757   4.013   3.505  0.00  0.00    +0.000 A 
ATOM     12  C   UNL     1      10.667   3.288   4.261  0.00  0.00    +0.000 A 
ATOM     13  C   UNL     1      10.862   1.955   3.942  0.00  0.00    +0.000 A 
ATOM     14  N   UNL     1      10.231   1.323   2.927  0.00  0.00    +0.000 NA
ENDBRANCH   8   9
ENDBRANCH   5   8
ENDBRANCH   1   2
BRANCH   1  15
ATOM     15  N   UNL     1       2.369   1.065   2.111  0.00  0.00    +0.000 N 
ATOM     16  C   UNL     1       1.030   1.138   2.399  0.00  0.00    +0.000 C 
ATOM     17  O   UNL     1       0.156   1.049   1.544  0.00  0.00    +0.000 OA
ATOM     18  H   UNL     1       3.018   1.404   2.814  0.00  0.00    +0.000 HD
BRANCH  16  19
ATOM     19  C   UNL     1       0.687   1.278   3.818  0.00  0.00    +0.000 A 
ATOM     20  C   UNL     1      -0.508   0.765   4.300  0.00  0.00    +0.000 A 
ATOM     21  S   UNL     1      -0.742   1.041   5.967  0.00  0.00    +0.000 S 
ATOM     22  C   UNL     1       0.725   1.896   6.090  0.00  0.00    +0.000 A 
ATOM     23  N   UNL     1       1.117   2.459   7.262  0.00  0.00    +0.000 NA
ATOM     24  C   UNL     1       2.234   3.104   7.198  0.00  0.00    +0.000 A 
ATOM     25  N   UNL     1       3.003   3.223   6.071  0.00  0.00    +0.000 N 
ATOM     26  C   UNL     1       2.671   2.634   4.874  0.00  0.00    +0.000 A 
ATOM     27  O   UNL     1       3.418   2.693   3.904  0.00  0.00    +0.000 OA
ATOM     28  C   UNL     1       1.404   1.932   4.884  0.00  0.00    +0.000 A 
ATOM     29  H   UNL     1       3.885   3.715   6.091  0.00  0.00    +0.000 HD
ENDBRANCH  16  19
ENDBRANCH   1  15
BRANCH   1  30
ATOM     30  C   UNL     1       2.415  -0.188  -0.067  0.00  0.00    +0.000 C 
BRANCH  30  31
ATOM     31  N   UNL     1       2.933  -0.245  -1.443  0.00  0.00    +0.000 NA
ATOM     32  H   UNL     1       2.720  -1.163  -1.832  0.00  0.00    +0.000 HD
ATOM     33  H   UNL     1       3.950  -0.171  -1.423  0.00  0.00    +0.000 HD
ENDBRANCH  30  31
ENDBRANCH   1  30
TORSDOF 7
