REMARK  Name = 
REMARK  4 active torsions:
REMARK  status: ('A' for Active; 'I' for Inactive)
REMARK    1  A    between atoms: C_2  and  C_4
REMARK    2  A    between atoms: C_7  and  C_8
REMARK    3  A    between atoms: C_8  and  C_9
REMARK    4  A    between atoms: C_14  and  O_15
REMARK                            x       y       z     vdW  Elec       q    Type
REMARK                         _______ _______ _______ _____ _____    ______ ____
ROOT
ATOM      1  C   UNL     1       5.816  -3.642   2.884  0.00  0.00    +0.000 C 
ENDROOT
BRANCH   1   2
ATOM      2  C   UNL     1       6.343  -4.753   2.011  0.00  0.00    +0.000 A 
ATOM      3  N   UNL     1       7.446  -4.521   1.290  0.00  0.00    +0.000 NA
ATOM      4  C   UNL     1       7.806  -5.485   0.454  0.00  0.00    +0.000 A 
ATOM      5  N   UNL     1       8.897  -5.245  -0.351  0.00  0.00    +0.000 N 
ATOM      6  N   UNL     1       7.196  -6.653   0.332  0.00  0.00    +0.000 NA
ATOM      7  C   UNL     1       6.134  -6.770   1.109  0.00  0.00    +0.000 A 
ATOM      8  N   UNL     1       5.641  -5.886   1.959  0.00  0.00    +0.000 NA
ATOM      9  H   UNL     1       9.492  -4.526   0.035  0.00  0.00    +0.000 HD
ATOM     10  H   UNL     1       9.326  -6.094  -0.686  0.00  0.00    +0.000 HD
BRANCH   7  11
ATOM     11  O   UNL     1       5.457  -7.942   0.974  0.00  0.00    +0.000 OA
ATOM     12  H   UNL     1       5.998  -8.359   0.284  0.00  0.00    +0.000 HD
ENDBRANCH   7  11
ENDBRANCH   1   2
BRANCH   1  16
ATOM     13  C   UNL     1       3.289  -0.945   0.740  0.00  0.00    +0.000 A 
ATOM     14  C   UNL     1       2.879  -2.270   0.887  0.00  0.00    +0.000 A 
ATOM     15  C   UNL     1       3.686  -3.158   1.602  0.00  0.00    +0.000 A 
ATOM     16  C   UNL     1       4.888  -2.703   2.144  0.00  0.00    +0.000 A 
ATOM     17  N   UNL     1       5.286  -1.410   2.031  0.00  0.00    +0.000 NA
ATOM     18  C   UNL     1       4.490  -0.568   1.322  0.00  0.00    +0.000 A 
BRANCH  13  20
ATOM     19  N   UNL     1       1.176  -0.126  -0.141  0.00  0.00    +0.000 N 
ATOM     20  C   UNL     1       2.527   0.057  -0.033  0.00  0.00    +0.000 C 
ATOM     21  O   UNL     1       3.074   1.029  -0.536  0.00  0.00    +0.000 OA
ATOM     22  H   UNL     1       0.658   0.614  -0.600  0.00  0.00    +0.000 HD
ATOM     23  H   UNL     1       0.661  -0.760   0.452  0.00  0.00    +0.000 HD
ENDBRANCH  13  20
ENDBRANCH   1  16
TORSDOF 4
