REMARK  Name = 
REMARK  5 active torsions:
REMARK  status: ('A' for Active; 'I' for Inactive)
REMARK    1  A    between atoms: C_2  and  C_5
REMARK    2  A    between atoms: C_9  and  N_10
REMARK    3  A    between atoms: C_14  and  C_15
REMARK    4  A    between atoms: C_15  and  O_16
REMARK    5  A    between atoms: O_16  and  C_17
REMARK                            x       y       z     vdW  Elec       q    Type
REMARK                         _______ _______ _______ _____ _____    ______ ____
ROOT
ATOM      1  N   UNL     1       3.008  -3.407   3.228  0.00  0.00    +0.000 N 
ATOM      2  C   UNL     1       3.710  -4.554   2.660  0.00  0.00    +0.000 C 
ATOM      3  C   UNL     1       2.697  -5.592   2.174  0.00  0.00    +0.000 C 
ATOM      4  C   UNL     1       1.666  -5.938   3.247  0.00  0.00    +0.000 C 
ATOM      5  C   UNL     1       1.004  -4.684   3.848  0.00  0.00    +0.000 C 
ATOM      6  C   UNL     1       2.078  -3.700   4.323  0.00  0.00    +0.000 C 
ENDROOT
BRANCH   1  11
ATOM      7  C   UNL     1       2.696   0.178   3.068  0.00  0.00    +0.000 A 
ATOM      8  C   UNL     1       3.826   0.581   2.366  0.00  0.00    +0.000 A 
ATOM      9  C   UNL     1       4.737  -0.386   1.976  0.00  0.00    +0.000 A 
ATOM     10  C   UNL     1       4.488  -1.723   2.281  0.00  0.00    +0.000 A 
ATOM     11  C   UNL     1       3.330  -2.094   2.960  0.00  0.00    +0.000 A 
ATOM     12  N   UNL     1       2.455  -1.138   3.349  0.00  0.00    +0.000 NA
BRANCH   7  14
ATOM     13  F   UNL     1       2.105   2.505   3.317  0.00  0.00    +0.000 F 
ATOM     14  C   UNL     1       1.690   1.219   3.534  0.00  0.00    +0.000 C 
ATOM     15  F   UNL     1       1.422   1.151   4.870  0.00  0.00    +0.000 F 
ATOM     16  F   UNL     1       0.484   1.119   2.903  0.00  0.00    +0.000 F 
ENDBRANCH   7  14
ENDBRANCH   1  11
BRANCH   5  17
ATOM     17  C   UNL     1       0.029  -3.994   2.878  0.00  0.00    +0.000 C 
BRANCH  17  18
ATOM     18  O   UNL     1      -0.997  -4.932   2.539  0.00  0.00    +0.000 OA
BRANCH  18  19
ATOM     19  C   UNL     1      -1.955  -4.527   1.654  0.00  0.00    +0.000 A 
ATOM     20  C   UNL     1      -2.082  -3.258   1.101  0.00  0.00    +0.000 A 
ATOM     21  C   UNL     1      -3.130  -3.034   0.218  0.00  0.00    +0.000 A 
ATOM     22  N   UNL     1      -4.033  -3.972  -0.138  0.00  0.00    +0.000 NA
ATOM     23  C   UNL     1      -3.885  -5.193   0.416  0.00  0.00    +0.000 A 
ATOM     24  C   UNL     1      -2.875  -5.512   1.306  0.00  0.00    +0.000 A 
ENDBRANCH  18  19
ENDBRANCH  17  18
ENDBRANCH   5  17
TORSDOF 5
