REMARK  Name = 
REMARK  10 active torsions:
REMARK  status: ('A' for Active; 'I' for Inactive)
REMARK    1  A    between atoms: C_1  and  C_2
REMARK    2  A    between atoms: C_2  and  C_3
REMARK    3  A    between atoms: C_2  and  C_4
REMARK    4  A    between atoms: C_2  and  C_5
REMARK    5  A    between atoms: N_7  and  C_8
REMARK    6  A    between atoms: C_8  and  C_9
REMARK    7  A    between atoms: C_12  and  C_13
REMARK    8  A    between atoms: C_13  and  C_14
REMARK    9  A    between atoms: C_14  and  N_15
REMARK   10  A    between atoms: C_21  and  C_22
REMARK                            x       y       z     vdW  Elec       q    Type
REMARK                         _______ _______ _______ _____ _____    ______ ____
ROOT
ATOM      1  C   UNL     1       2.937   1.319  -0.547  0.00  0.00    +0.000 A 
ATOM      2  C   UNL     1       3.887   1.648  -1.502  0.00  0.00    +0.000 A 
ATOM      3  N   UNL     1       3.932   3.015  -1.644  0.00  0.00    +0.000 N 
ATOM      4  C   UNL     1       2.996   3.593  -0.824  0.00  0.00    +0.000 A 
ATOM      5  N   UNL     1       2.738   4.916  -0.734  0.00  0.00    +0.000 NA
ATOM      6  C   UNL     1       1.784   5.214   0.186  0.00  0.00    +0.000 A 
ATOM      7  C   UNL     1       1.115   4.299   0.990  0.00  0.00    +0.000 A 
ATOM      8  C   UNL     1       1.437   2.947   0.868  0.00  0.00    +0.000 A 
ATOM      9  C   UNL     1       2.395   2.570  -0.091  0.00  0.00    +0.000 A 
ENDROOT
BRANCH   7  10
ATOM     10  C   UNL     1       0.105   4.781   1.954  0.00  0.00    +0.000 C 
ATOM     11  N   UNL     1      -0.835   3.883   2.390  0.00  0.00    +0.000 N 
ATOM     12  O   UNL     1       0.087   5.942   2.335  0.00  0.00    +0.000 OA
ATOM     13  H   UNL     1      -0.991   2.984   1.952  0.00  0.00    +0.000 HD
ATOM     14  H   UNL     1      -1.560   4.239   2.996  0.00  0.00    +0.000 HD
ENDBRANCH   7  10
BRANCH   1  16
ATOM     15  C   UNL     1       3.293  -1.180  -0.860  0.00  0.00    +0.000 C 
ATOM     16  C   UNL     1       2.527  -0.080  -0.093  0.00  0.00    +0.000 C 
ATOM     17  C   UNL     1       1.021  -0.299  -0.359  0.00  0.00    +0.000 C 
ATOM     18  C   UNL     1       2.819  -0.277   1.408  0.00  0.00    +0.000 C 
ENDBRANCH   1  16
BRANCH   3  19
ATOM     19  C   UNL     1       4.835   3.729  -2.535  0.00  0.00    +0.000 C 
BRANCH  19  20
ATOM     20  C   UNL     1       6.158   4.001  -1.858  0.00  0.00    +0.000 A 
ATOM     21  C   UNL     1       6.241   4.924  -0.817  0.00  0.00    +0.000 A 
ATOM     22  C   UNL     1       7.454   5.096  -0.159  0.00  0.00    +0.000 A 
ATOM     23  C   UNL     1       8.572   4.366  -0.560  0.00  0.00    +0.000 A 
ATOM     24  C   UNL     1       8.409   3.492  -1.629  0.00  0.00    +0.000 A 
ATOM     25  N   UNL     1       7.237   3.293  -2.280  0.00  0.00    +0.000 NA
BRANCH  23  26
ATOM     26  C   UNL     1       9.884   4.491   0.164  0.00  0.00    +0.000 C 
BRANCH  26  27
ATOM     27  C   UNL     1       9.991   3.499   1.329  0.00  0.00    +0.000 C 
BRANCH  27  28
ATOM     28  N   UNL     1      11.253   3.666   2.048  0.00  0.00    +0.000 NA
ATOM     29  H   UNL     1      12.035   3.454   1.429  0.00  0.00    +0.000 HD
ATOM     30  H   UNL     1      11.300   2.987   2.808  0.00  0.00    +0.000 HD
ENDBRANCH  27  28
ENDBRANCH  26  27
ENDBRANCH  23  26
ENDBRANCH  19  20
ENDBRANCH   3  19
TORSDOF 7
