REMARK  Name = 
REMARK  6 active torsions:
REMARK  status: ('A' for Active; 'I' for Inactive)
REMARK    1  A    between atoms: C_1  and  C_2
REMARK    2  A    between atoms: C_2  and  N_3
REMARK    3  A    between atoms: C_2  and  C_16
REMARK    4  A    between atoms: C_4  and  C_6
REMARK    5  A    between atoms: C_19  and  O_20
REMARK    6  A    between atoms: O_20  and  C_21
REMARK                            x       y       z     vdW  Elec       q    Type
REMARK                         _______ _______ _______ _____ _____    ______ ____
ROOT
ATOM      1  C   UNL     1       3.238   0.292  -1.397  0.00  0.00    +0.000 C 
ATOM      2  C   UNL     1       2.551  -0.047  -0.070  0.00  0.00    +0.000 C 
ENDROOT
BRANCH   2   3
ATOM      3  C   UNL     1       2.976   0.850   1.070  0.00  0.00    +0.000 A 
ATOM      4  C   UNL     1       3.128   0.345   2.369  0.00  0.00    +0.000 A 
ATOM      5  C   UNL     1       3.539   1.189   3.402  0.00  0.00    +0.000 A 
ATOM      6  C   UNL     1       3.782   2.517   3.098  0.00  0.00    +0.000 A 
ATOM      7  N   UNL     1       3.549   3.056   1.879  0.00  0.00    +0.000 NA
ATOM      8  C   UNL     1       3.168   2.216   0.898  0.00  0.00    +0.000 A 
BRANCH   6   9
ATOM      9  O   UNL     1       4.328   3.319   4.091  0.00  0.00    +0.000 OA
BRANCH   9  10
ATOM     10  C   UNL     1       5.210   4.295   3.671  0.00  0.00    +0.000 A 
ATOM     11  C   UNL     1       5.176   5.520   4.337  0.00  0.00    +0.000 A 
ATOM     12  C   UNL     1       6.018   6.557   3.927  0.00  0.00    +0.000 A 
ATOM     13  C   UNL     1       6.899   6.367   2.860  0.00  0.00    +0.000 A 
ATOM     14  C   UNL     1       6.964   5.131   2.222  0.00  0.00    +0.000 A 
ATOM     15  C   UNL     1       6.141   4.090   2.645  0.00  0.00    +0.000 A 
ENDBRANCH   9  10
ENDBRANCH   6   9
ENDBRANCH   2   3
BRANCH   2  16
ATOM     16  N   UNL     1       1.109   0.028  -0.194  0.00  0.00    +0.000 N 
ATOM     17  C   UNL     1       0.331  -1.019  -0.596  0.00  0.00    +0.000 C 
ATOM     18  O   UNL     1       0.795  -2.119  -0.880  0.00  0.00    +0.000 OA
ATOM     19  H   UNL     1       0.696   0.951  -0.114  0.00  0.00    +0.000 HD
BRANCH  17  20
ATOM     20  C   UNL     1      -1.118  -0.767  -0.591  0.00  0.00    +0.000 A 
ATOM     21  C   UNL     1      -1.999  -1.827  -0.419  0.00  0.00    +0.000 A 
ATOM     22  S   UNL     1      -3.636  -1.352  -0.391  0.00  0.00    +0.000 S 
ATOM     23  C   UNL     1      -3.227   0.278  -0.660  0.00  0.00    +0.000 A 
ATOM     24  N   UNL     1      -4.190   1.231  -0.775  0.00  0.00    +0.000 NA
ATOM     25  C   UNL     1      -3.740   2.420  -1.009  0.00  0.00    +0.000 A 
ATOM     26  N   UNL     1      -2.414   2.742  -1.129  0.00  0.00    +0.000 N 
ATOM     27  C   UNL     1      -1.405   1.822  -0.966  0.00  0.00    +0.000 A 
ATOM     28  O   UNL     1      -0.224   2.159  -0.987  0.00  0.00    +0.000 OA
ATOM     29  C   UNL     1      -1.858   0.461  -0.737  0.00  0.00    +0.000 A 
ATOM     30  H   UNL     1      -2.129   3.698  -1.286  0.00  0.00    +0.000 HD
ENDBRANCH  17  20
ENDBRANCH   2  16
TORSDOF 5
