REMARK  Name = 
REMARK  9 active torsions:
REMARK  status: ('A' for Active; 'I' for Inactive)
REMARK    1  A    between atoms: C_1  and  O_2
REMARK    2  A    between atoms: O_2  and  C_3
REMARK    3  A    between atoms: C_10  and  C_11
REMARK    4  A    between atoms: N_13  and  C_14
REMARK    5  A    between atoms: C_14  and  C_15
REMARK    6  A    between atoms: C_18  and  C_19
REMARK    7  A    between atoms: C_19  and  O_20
REMARK    8  A    between atoms: O_20  and  C_21
REMARK    9  A    between atoms: C_21  and  C_22
REMARK                            x       y       z     vdW  Elec       q    Type
REMARK                         _______ _______ _______ _____ _____    ______ ____
ROOT
ATOM      1  C   UNL     1       2.901  -1.723  -2.968  0.00  0.00    +0.000 C 
ENDROOT
BRANCH   1   2
ATOM      2  C   UNL     1       1.743  -2.456  -2.346  0.00  0.00    +0.000 A 
ATOM      3  C   UNL     1       1.782  -3.846  -2.174  0.00  0.00    +0.000 A 
ATOM      4  C   UNL     1       0.732  -4.511  -1.531  0.00  0.00    +0.000 A 
ATOM      5  C   UNL     1      -0.380  -3.802  -1.056  0.00  0.00    +0.000 A 
ATOM      6  C   UNL     1      -0.440  -2.420  -1.277  0.00  0.00    +0.000 A 
ATOM      7  C   UNL     1       0.607  -1.755  -1.920  0.00  0.00    +0.000 A 
BRANCH   5   8
ATOM      8  C   UNL     1      -1.482  -4.513  -0.311  0.00  0.00    +0.000 C 
BRANCH   8   9
ATOM      9  O   UNL     1      -0.930  -5.117   0.855  0.00  0.00    +0.000 OA
BRANCH   9  10
ATOM     10  C   UNL     1      -1.929  -5.749   1.655  0.00  0.00    +0.000 C 
BRANCH  10  11
ATOM     11  C   UNL     1      -1.312  -6.348   2.896  0.00  0.00    +0.000 A 
ATOM     12  C   UNL     1      -0.182  -5.773   3.497  0.00  0.00    +0.000 A 
ATOM     13  C   UNL     1       0.359  -6.314   4.665  0.00  0.00    +0.000 A 
ATOM     14  C   UNL     1      -0.230  -7.430   5.254  0.00  0.00    +0.000 A 
ATOM     15  C   UNL     1      -1.362  -8.003   4.679  0.00  0.00    +0.000 A 
ATOM     16  C   UNL     1      -1.904  -7.463   3.509  0.00  0.00    +0.000 A 
ENDBRANCH  10  11
ENDBRANCH   9  10
ENDBRANCH   8   9
ENDBRANCH   5   8
ENDBRANCH   1   2
BRANCH   1  19
ATOM     17  C   UNL     1       3.743  -1.019  -5.153  0.00  0.00    +0.000 C 
ATOM     18  O   UNL     1       4.732  -0.515  -4.627  0.00  0.00    +0.000 OA
ATOM     19  N   UNL     1       2.777  -1.632  -4.400  0.00  0.00    +0.000 N 
ATOM     20  H   UNL     1       1.945  -2.010  -4.833  0.00  0.00    +0.000 HD
BRANCH  17  28
ATOM     21  C   UNL     1       1.318  -2.254  -7.280  0.00  0.00    +0.000 A 
ATOM     22  N   UNL     1       0.578  -2.671  -8.329  0.00  0.00    +0.000 NA
ATOM     23  C   UNL     1       1.003  -2.378  -9.560  0.00  0.00    +0.000 A 
ATOM     24  N   UNL     1       2.099  -1.700  -9.886  0.00  0.00    +0.000 NA
ATOM     25  C   UNL     1       2.815  -1.314  -8.817  0.00  0.00    +0.000 A 
ATOM     26  S   UNL     1       4.246  -0.431  -9.052  0.00  0.00    +0.000 S 
ATOM     27  C   UNL     1       4.532  -0.359  -7.381  0.00  0.00    +0.000 A 
ATOM     28  C   UNL     1       3.561  -0.995  -6.614  0.00  0.00    +0.000 A 
ATOM     29  C   UNL     1       2.521  -1.550  -7.477  0.00  0.00    +0.000 A 
BRANCH  21  31
ATOM     30  C   UNL     1      -0.387  -3.220  -5.983  0.00  0.00    +0.000 C 
ATOM     31  O   UNL     1       0.851  -2.512  -6.006  0.00  0.00    +0.000 OA
ENDBRANCH  21  31
ENDBRANCH  17  28
ENDBRANCH   1  19
TORSDOF 8
