REMARK  Name = 
REMARK  7 active torsions:
REMARK  status: ('A' for Active; 'I' for Inactive)
REMARK    1  A    between atoms: C_1  and  C_2
REMARK    2  A    between atoms: C_2  and  C_3
REMARK    3  A    between atoms: C_2  and  C_14
REMARK    4  A    between atoms: C_3  and  N_4
REMARK    5  A    between atoms: C_8  and  C_9
REMARK    6  A    between atoms: C_18  and  O_19
REMARK    7  A    between atoms: O_19  and  C_20
REMARK                            x       y       z     vdW  Elec       q    Type
REMARK                         _______ _______ _______ _____ _____    ______ ____
ROOT
ATOM      1  C   UNL     1       3.014   1.498   0.540  0.00  0.00    +0.000 C 
ENDROOT
BRANCH   1   2
ATOM      2  N   UNL     1       2.875   2.456  -0.555  0.00  0.00    +0.000 N 
ATOM      3  C   UNL     1       3.460   3.701  -0.215  0.00  0.00    +0.000 A 
ATOM      4  C   UNL     1       3.429   4.774  -1.114  0.00  0.00    +0.000 A 
ATOM      5  N   UNL     1       3.963   6.003  -0.860  0.00  0.00    +0.000 NA
ATOM      6  C   UNL     1       4.565   6.114   0.358  0.00  0.00    +0.000 A 
ATOM      7  C   UNL     1       4.622   5.063   1.249  0.00  0.00    +0.000 A 
ATOM      8  N   UNL     1       4.076   3.851   0.980  0.00  0.00    +0.000 NA
ATOM      9  H   UNL     1       1.906   2.614  -0.810  0.00  0.00    +0.000 HD
BRANCH   6  10
ATOM     10  C   UNL     1       5.174   7.420   0.737  0.00  0.00    +0.000 C 
ATOM     11  N   UNL     1       5.085   8.413  -0.197  0.00  0.00    +0.000 N 
ATOM     12  O   UNL     1       5.720   7.597   1.820  0.00  0.00    +0.000 OA
ATOM     13  H   UNL     1       4.636   8.237  -1.087  0.00  0.00    +0.000 HD
ATOM     14  H   UNL     1       5.487   9.316   0.007  0.00  0.00    +0.000 HD
ENDBRANCH   6  10
ENDBRANCH   1   2
BRANCH   1  16
ATOM     15  C   UNL     1       0.952   0.090  -0.175  0.00  0.00    +0.000 C 
ATOM     16  C   UNL     1       2.400   0.161   0.215  0.00  0.00    +0.000 C 
BRANCH  16  17
ATOM     17  C   UNL     1       3.006  -1.043   0.841  0.00  0.00    +0.000 A 
ATOM     18  C   UNL     1       2.856  -2.311   0.270  0.00  0.00    +0.000 A 
ATOM     19  C   UNL     1       3.431  -3.437   0.869  0.00  0.00    +0.000 A 
ATOM     20  C   UNL     1       4.183  -3.314   2.039  0.00  0.00    +0.000 A 
ATOM     21  C   UNL     1       4.382  -2.058   2.599  0.00  0.00    +0.000 A 
ATOM     22  C   UNL     1       3.760  -0.944   2.023  0.00  0.00    +0.000 A 
BRANCH  21  23
ATOM     23  O   UNL     1       5.092  -1.796   3.731  0.00  0.00    +0.000 OA
BRANCH  23  24
ATOM     24  C   UNL     1       6.289  -2.525   3.969  0.00  0.00    +0.000 C 
ATOM     25  F   UNL     1       6.654  -3.344   2.961  0.00  0.00    +0.000 F 
ATOM     26  F   UNL     1       7.296  -1.645   4.173  0.00  0.00    +0.000 F 
ATOM     27  F   UNL     1       6.141  -3.260   5.093  0.00  0.00    +0.000 F 
ENDBRANCH  23  24
ENDBRANCH  21  23
ENDBRANCH  16  17
ENDBRANCH   1  16
TORSDOF 6
