REMARK  Name = 
REMARK  4 active torsions:
REMARK  status: ('A' for Active; 'I' for Inactive)
REMARK    1  A    between atoms: C_2  and  C_4
REMARK    2  A    between atoms: N_8  and  C_9
REMARK    3  A    between atoms: C_9  and  C_10
REMARK    4  A    between atoms: C_14  and  C_15
REMARK                            x       y       z     vdW  Elec       q    Type
REMARK                         _______ _______ _______ _____ _____    ______ ____
ROOT
ATOM      1  C   UNL     1       5.248  -5.194  -2.760  0.00  0.00    +0.000 C 
ATOM      2  C   UNL     1       5.338  -4.856  -4.240  0.00  0.00    +0.000 C 
ATOM      3  C   UNL     1       4.053  -5.362  -3.677  0.00  0.00    +0.000 C 
ENDROOT
BRANCH   1   8
ATOM      4  C   UNL     1       3.347  -2.912   1.535  0.00  0.00    +0.000 A 
ATOM      5  C   UNL     1       2.643  -3.499   0.491  0.00  0.00    +0.000 A 
ATOM      6  C   UNL     1       3.335  -3.921  -0.649  0.00  0.00    +0.000 A 
ATOM      7  C   UNL     1       4.710  -3.745  -0.725  0.00  0.00    +0.000 A 
ATOM      8  N   UNL     1       5.461  -4.035  -1.870  0.00  0.00    +0.000 N 
ATOM      9  N   UNL     1       5.401  -3.171   0.288  0.00  0.00    +0.000 NA
ATOM     10  C   UNL     1       4.716  -2.762   1.383  0.00  0.00    +0.000 A 
ATOM     11  H   UNL     1       6.429  -3.880  -1.591  0.00  0.00    +0.000 HD
BRANCH   4  13
ATOM     12  N   UNL     1       1.513  -2.996   3.125  0.00  0.00    +0.000 N 
ATOM     13  C   UNL     1       2.693  -2.409   2.771  0.00  0.00    +0.000 C 
ATOM     14  O   UNL     1       3.197  -1.521   3.444  0.00  0.00    +0.000 OA
ATOM     15  H   UNL     1       1.112  -2.707   4.006  0.00  0.00    +0.000 HD
ATOM     16  H   UNL     1       1.201  -3.877   2.740  0.00  0.00    +0.000 HD
ENDBRANCH   4  13
ENDBRANCH   1   8
BRANCH   1  17
ATOM     17  C   UNL     1       5.906  -6.461  -2.229  0.00  0.00    +0.000 A 
ATOM     18  C   UNL     1       7.215  -6.835  -2.567  0.00  0.00    +0.000 A 
ATOM     19  C   UNL     1       7.847  -7.896  -1.921  0.00  0.00    +0.000 A 
ATOM     20  C   UNL     1       7.193  -8.585  -0.899  0.00  0.00    +0.000 A 
ATOM     21  C   UNL     1       5.886  -8.242  -0.516  0.00  0.00    +0.000 A 
ATOM     22  C   UNL     1       5.252  -7.218  -1.240  0.00  0.00    +0.000 A 
BRANCH  21  23
ATOM     23  C   UNL     1       5.248  -8.786   0.704  0.00  0.00    +0.000 A 
ATOM     24  C   UNL     1       6.017  -9.038   1.855  0.00  0.00    +0.000 A 
ATOM     25  C   UNL     1       5.412  -9.385   3.061  0.00  0.00    +0.000 A 
ATOM     26  F   UNL     1       6.176  -9.583   4.142  0.00  0.00    +0.000 F 
ATOM     27  C   UNL     1       4.035  -9.492   3.166  0.00  0.00    +0.000 A 
ATOM     28  C   UNL     1       3.269  -9.272   2.035  0.00  0.00    +0.000 A 
ATOM     29  F   UNL     1       1.933  -9.346   2.122  0.00  0.00    +0.000 F 
ATOM     30  C   UNL     1       3.855  -8.939   0.814  0.00  0.00    +0.000 A 
ENDBRANCH  21  23
ENDBRANCH   1  17
TORSDOF 4
