REMARK  Name = 
REMARK  9 active torsions:
REMARK  status: ('A' for Active; 'I' for Inactive)
REMARK    1  A    between atoms: C_1  and  C_2
REMARK    2  A    between atoms: C_2  and  C_3
REMARK    3  A    between atoms: C_2  and  C_4
REMARK    4  A    between atoms: C_2  and  C_5
REMARK    5  A    between atoms: N_8  and  C_9
REMARK    6  A    between atoms: C_9  and  C_10
REMARK    7  A    between atoms: C_13  and  S_14
REMARK    8  A    between atoms: S_14  and  C_15
REMARK    9  A    between atoms: C_24  and  C_25
REMARK                            x       y       z     vdW  Elec       q    Type
REMARK                         _______ _______ _______ _____ _____    ______ ____
ROOT
ATOM      1  C   UNL     1       2.853   0.158  -1.576  0.00  0.00    +0.000 A 
ATOM      2  N   UNL     1       3.012  -1.087  -2.125  0.00  0.00    +0.000 NA
ATOM      3  C   UNL     1       3.756  -1.269  -3.227  0.00  0.00    +0.000 A 
ATOM      4  N   UNL     1       3.929  -2.595  -3.627  0.00  0.00    +0.000 N 
ATOM      5  N   UNL     1       4.350  -0.264  -3.867  0.00  0.00    +0.000 NA
ATOM      6  C   UNL     1       4.219   0.957  -3.307  0.00  0.00    +0.000 A 
ATOM      7  C   UNL     1       3.525   1.242  -2.138  0.00  0.00    +0.000 A 
ATOM      8  H   UNL     1       3.273  -3.142  -3.081  0.00  0.00    +0.000 HD
ENDROOT
BRANCH   7   9
ATOM      9  C   UNL     1       3.576   2.642  -1.638  0.00  0.00    +0.000 C 
ATOM     10  N   UNL     1       4.696   3.381  -1.926  0.00  0.00    +0.000 N 
ATOM     11  O   UNL     1       2.691   3.171  -0.985  0.00  0.00    +0.000 OA
ATOM     12  H   UNL     1       5.571   2.995  -2.252  0.00  0.00    +0.000 HD
ATOM     13  H   UNL     1       4.723   4.315  -1.531  0.00  0.00    +0.000 HD
ENDBRANCH   7   9
BRANCH   1  15
ATOM     14  C   UNL     1       1.414  -1.266  -0.027  0.00  0.00    +0.000 C 
ATOM     15  C   UNL     1       1.957   0.170  -0.321  0.00  0.00    +0.000 C 
ATOM     16  C   UNL     1       0.681   1.025  -0.479  0.00  0.00    +0.000 C 
ATOM     17  C   UNL     1       2.757   0.580   0.931  0.00  0.00    +0.000 C 
ENDBRANCH   1  15
BRANCH   4  18
ATOM     18  C   UNL     1       4.127  -2.972  -5.034  0.00  0.00    +0.000 C 
ATOM     19  C   UNL     1       5.294  -3.913  -5.313  0.00  0.00    +0.000 C 
ATOM     20  C   UNL     1       5.335  -2.513  -5.830  0.00  0.00    +0.000 C 
BRANCH  18  21
ATOM     21  C   UNL     1       2.831  -3.200  -5.811  0.00  0.00    +0.000 A 
ATOM     22  C   UNL     1       2.167  -2.133  -6.446  0.00  0.00    +0.000 A 
ATOM     23  C   UNL     1       1.006  -2.333  -7.200  0.00  0.00    +0.000 A 
ATOM     24  C   UNL     1       0.493  -3.620  -7.340  0.00  0.00    +0.000 A 
ATOM     25  C   UNL     1       1.098  -4.695  -6.686  0.00  0.00    +0.000 A 
ATOM     26  C   UNL     1       2.253  -4.479  -5.928  0.00  0.00    +0.000 A 
BRANCH  24  27
ATOM     27  S   UNL     1      -0.974  -3.890  -8.304  0.00  0.00    +0.000 S 
ATOM     28  C   UNL     1      -0.356  -4.153  -9.948  0.00  0.00    +0.000 C 
ATOM     29  O   UNL     1      -1.574  -5.129  -7.850  0.00  0.00    +0.000 OA
ATOM     30  O   UNL     1      -1.730  -2.653  -8.303  0.00  0.00    +0.000 OA
ENDBRANCH  24  27
ENDBRANCH  18  21
ENDBRANCH   4  18
TORSDOF 5
