REMARK  Name = 
REMARK  10 active torsions:
REMARK  status: ('A' for Active; 'I' for Inactive)
REMARK    1  A    between atoms: C_1  and  C_2
REMARK    2  A    between atoms: C_2  and  C_3
REMARK    3  A    between atoms: C_3  and  C_4
REMARK    4  A    between atoms: C_4  and  N_5
REMARK    5  A    between atoms: C_4  and  C_27
REMARK    6  A    between atoms: N_5  and  C_6
REMARK    7  A    between atoms: C_6  and  C_7
REMARK    8  A    between atoms: C_10  and  C_11
REMARK    9  A    between atoms: C_11  and  N_12
REMARK   10  A    between atoms: C_13  and  C_15
REMARK                            x       y       z     vdW  Elec       q    Type
REMARK                         _______ _______ _______ _____ _____    ______ ____
ROOT
ATOM      1  C   UNL     1       5.252   1.265  -2.470  0.00  0.00    +0.000 A 
ATOM      2  C   UNL     1       4.937   2.622  -2.629  0.00  0.00    +0.000 A 
ATOM      3  C   UNL     1       5.246   3.288  -3.817  0.00  0.00    +0.000 A 
ATOM      4  C   UNL     1       5.882   2.613  -4.866  0.00  0.00    +0.000 A 
ATOM      5  C   UNL     1       6.256   1.276  -4.683  0.00  0.00    +0.000 A 
ATOM      6  C   UNL     1       5.936   0.606  -3.501  0.00  0.00    +0.000 A 
ENDROOT
BRANCH   1   7
ATOM      7  C   UNL     1       4.853   0.516  -1.216  0.00  0.00    +0.000 C 
BRANCH   7   8
ATOM      8  N   UNL     1       3.393   0.454  -1.095  0.00  0.00    +0.000 NA
ATOM      9  H   UNL     1       3.028   1.400  -1.038  0.00  0.00    +0.000 HD
BRANCH   8  10
ATOM     10  C   UNL     1       2.921  -0.323   0.068  0.00  0.00    +0.000 C 
BRANCH  10  11
ATOM     11  C   UNL     1       3.376  -1.786   0.009  0.00  0.00    +0.000 A 
ATOM     12  C   UNL     1       2.711  -2.694  -0.813  0.00  0.00    +0.000 A 
ATOM     13  C   UNL     1       3.198  -3.996  -0.909  0.00  0.00    +0.000 A 
ATOM     14  C   UNL     1       4.338  -4.353  -0.199  0.00  0.00    +0.000 A 
ATOM     15  C   UNL     1       4.948  -3.393   0.584  0.00  0.00    +0.000 A 
ATOM     16  N   UNL     1       4.497  -2.127   0.703  0.00  0.00    +0.000 NA
ENDBRANCH  10  11
BRANCH  10  17
ATOM     17  C   UNL     1       3.252   0.300   1.448  0.00  0.00    +0.000 C 
BRANCH  17  19
ATOM     18  C   UNL     1       1.297   1.947   1.615  0.00  0.00    +0.000 C 
ATOM     19  C   UNL     1       2.800   1.743   1.690  0.00  0.00    +0.000 C 
ENDBRANCH  17  19
ENDBRANCH  10  17
ENDBRANCH   8  10
ENDBRANCH   7   8
ENDBRANCH   1   7
BRANCH   4  20
ATOM     20  C   UNL     1       6.198   3.316  -6.156  0.00  0.00    +0.000 C 
BRANCH  20  21
ATOM     21  N   UNL     1       7.493   3.941  -6.095  0.00  0.00    +0.000 N 
ATOM     22  C   UNL     1       7.953   4.716  -7.126  0.00  0.00    +0.000 C 
ATOM     23  O   UNL     1       7.272   4.942  -8.124  0.00  0.00    +0.000 OA
ATOM     24  H   UNL     1       8.143   3.588  -5.400  0.00  0.00    +0.000 HD
BRANCH  22  25
ATOM     25  C   UNL     1       9.279   5.319  -6.952  0.00  0.00    +0.000 A 
ATOM     26  C   UNL     1       9.614   6.453  -7.680  0.00  0.00    +0.000 A 
ATOM     27  S   UNL     1      11.166   7.061  -7.324  0.00  0.00    +0.000 S 
ATOM     28  C   UNL     1      11.466   5.801  -6.220  0.00  0.00    +0.000 A 
ATOM     29  N   UNL     1      12.654   5.717  -5.564  0.00  0.00    +0.000 NA
ATOM     30  C   UNL     1      12.759   4.696  -4.778  0.00  0.00    +0.000 A 
ATOM     31  N   UNL     1      11.778   3.756  -4.587  0.00  0.00    +0.000 N 
ATOM     32  C   UNL     1      10.555   3.814  -5.208  0.00  0.00    +0.000 A 
ATOM     33  O   UNL     1       9.689   2.976  -4.988  0.00  0.00    +0.000 OA
ATOM     34  C   UNL     1      10.389   4.938  -6.112  0.00  0.00    +0.000 A 
ATOM     35  H   UNL     1      11.920   2.984  -3.953  0.00  0.00    +0.000 HD
ENDBRANCH  22  25
ENDBRANCH  20  21
ENDBRANCH   4  20
TORSDOF 9
