REMARK  Name = 
REMARK  6 active torsions:
REMARK  status: ('A' for Active; 'I' for Inactive)
REMARK    1  A    between atoms: C_1  and  O_2
REMARK    2  A    between atoms: O_2  and  C_3
REMARK    3  A    between atoms: C_5  and  C_6
REMARK    4  A    between atoms: N_11  and  C_12
REMARK    5  A    between atoms: C_12  and  C_13
REMARK    6  A    between atoms: C_17  and  C_18
REMARK                            x       y       z     vdW  Elec       q    Type
REMARK                         _______ _______ _______ _____ _____    ______ ____
ROOT
ATOM      1  C   UNL     1       3.059   1.287  -0.087  0.00  0.00    +0.000 A 
ATOM      2  C   UNL     1       2.586   2.140   0.868  0.00  0.00    +0.000 A 
ATOM      3  C   UNL     1       3.324   3.286   1.003  0.00  0.00    +0.000 A 
ATOM      4  N   UNL     1       4.432   3.578   0.277  0.00  0.00    +0.000 NA
ATOM      5  C   UNL     1       4.801   2.671  -0.630  0.00  0.00    +0.000 A 
ATOM      6  N   UNL     1       5.916   2.879  -1.395  0.00  0.00    +0.000 N 
ATOM      7  N   UNL     1       4.146   1.529  -0.843  0.00  0.00    +0.000 NA
ATOM      8  H   UNL     1       6.107   2.196  -2.111  0.00  0.00    +0.000 HD
ENDROOT
BRANCH   3   9
ATOM      9  C   UNL     1       2.913   4.306   2.015  0.00  0.00    +0.000 C 
ATOM     10  N   UNL     1       3.702   5.423   2.080  0.00  0.00    +0.000 N 
ATOM     11  O   UNL     1       1.938   4.162   2.741  0.00  0.00    +0.000 OA
ATOM     12  H   UNL     1       4.502   5.514   1.470  0.00  0.00    +0.000 HD
ATOM     13  H   UNL     1       3.478   6.150   2.744  0.00  0.00    +0.000 HD
ENDBRANCH   3   9
BRANCH   1  15
ATOM     14  C   UNL     1       2.903  -0.717  -1.287  0.00  0.00    +0.000 C 
ATOM     15  O   UNL     1       2.360   0.108  -0.258  0.00  0.00    +0.000 OA
ENDBRANCH   1  15
BRANCH   6  16
ATOM     16  C   UNL     1       6.659   4.099  -1.279  0.00  0.00    +0.000 C 
BRANCH  16  17
ATOM     17  C   UNL     1       7.795   4.143  -2.273  0.00  0.00    +0.000 A 
ATOM     18  C   UNL     1       7.585   4.623  -3.570  0.00  0.00    +0.000 A 
ATOM     19  C   UNL     1       8.655   4.743  -4.453  0.00  0.00    +0.000 A 
ATOM     20  C   UNL     1       9.943   4.379  -4.049  0.00  0.00    +0.000 A 
ATOM     21  C   UNL     1      10.196   3.882  -2.758  0.00  0.00    +0.000 A 
ATOM     22  C   UNL     1       9.092   3.751  -1.892  0.00  0.00    +0.000 A 
BRANCH  21  23
ATOM     23  C   UNL     1      11.569   3.557  -2.311  0.00  0.00    +0.000 A 
ATOM     24  C   UNL     1      11.847   2.513  -1.417  0.00  0.00    +0.000 A 
ATOM     25  C   UNL     1      13.154   2.261  -0.996  0.00  0.00    +0.000 A 
ATOM     26  C   UNL     1      14.170   3.059  -1.489  0.00  0.00    +0.000 A 
ATOM     27  N   UNL     1      13.965   4.072  -2.352  0.00  0.00    +0.000 NA
ATOM     28  C   UNL     1      12.681   4.296  -2.731  0.00  0.00    +0.000 A 
ENDBRANCH  21  23
ENDBRANCH  16  17
ENDBRANCH   6  16
TORSDOF 5
