REMARK  Name = 
REMARK  5 active torsions:
REMARK  status: ('A' for Active; 'I' for Inactive)
REMARK    1  A    between atoms: C_1  and  C_2
REMARK    2  A    between atoms: C_2  and  O_3
REMARK    3  A    between atoms: C_2  and  C_14
REMARK    4  A    between atoms: O_3  and  C_4
REMARK    5  A    between atoms: C_7  and  C_8
REMARK                            x       y       z     vdW  Elec       q    Type
REMARK                         _______ _______ _______ _____ _____    ______ ____
ROOT
ATOM      1  C   UNL     1       2.425  -2.329  -0.054  0.00  0.00    +0.000 A 
ATOM      2  C   UNL     1       2.263  -2.455   1.325  0.00  0.00    +0.000 A 
ATOM      3  C   UNL     1       1.831  -3.664   1.882  0.00  0.00    +0.000 A 
ATOM      4  C   UNL     1       1.580  -4.773   1.066  0.00  0.00    +0.000 A 
ATOM      5  C   UNL     1       1.799  -4.664  -0.310  0.00  0.00    +0.000 A 
ATOM      6  C   UNL     1       2.222  -3.455  -0.858  0.00  0.00    +0.000 A 
ATOM      7  F   UNL     1       2.404  -3.376  -2.184  0.00  0.00    +0.000 F 
ENDROOT
BRANCH   4   8
ATOM      8  C   UNL     1       1.075  -6.068   1.600  0.00  0.00    +0.000 C 
ATOM      9  N   UNL     1       0.881  -6.193   2.948  0.00  0.00    +0.000 N 
ATOM     10  O   UNL     1       0.824  -7.008   0.857  0.00  0.00    +0.000 OA
ATOM     11  H   UNL     1       1.083  -5.492   3.641  0.00  0.00    +0.000 HD
ATOM     12  H   UNL     1       0.539  -7.088   3.273  0.00  0.00    +0.000 HD
ENDBRANCH   4   8
BRANCH   1  13
ATOM     13  O   UNL     1       2.768  -1.170  -0.697  0.00  0.00    +0.000 OA
BRANCH  13  15
ATOM     14  C   UNL     1       0.961   0.305   0.066  0.00  0.00    +0.000 C 
ATOM     15  C   UNL     1       2.472   0.075  -0.037  0.00  0.00    +0.000 C 
BRANCH  15  16
ATOM     16  C   UNL     1       3.114   1.230  -0.792  0.00  0.00    +0.000 A 
ATOM     17  C   UNL     1       3.207   1.237  -2.182  0.00  0.00    +0.000 A 
ATOM     18  C   UNL     1       3.824   2.317  -2.810  0.00  0.00    +0.000 A 
ATOM     19  C   UNL     1       4.318   3.364  -2.043  0.00  0.00    +0.000 A 
ATOM     20  C   UNL     1       4.165   3.295  -0.670  0.00  0.00    +0.000 A 
ATOM     21  N   UNL     1       3.574   2.262  -0.032  0.00  0.00    +0.000 NA
ENDBRANCH  15  16
ENDBRANCH  13  15
ENDBRANCH   1  13
TORSDOF 4
