REMARK  Name = 
REMARK  6 active torsions:
REMARK  status: ('A' for Active; 'I' for Inactive)
REMARK    1  A    between atoms: C_2  and  C_19
REMARK    2  A    between atoms: N_3  and  C_4
REMARK    3  A    between atoms: C_4  and  C_5
REMARK    4  A    between atoms: C_8  and  C_9
REMARK    5  A    between atoms: C_9  and  C_10
REMARK    6  A    between atoms: C_10  and  N_11
REMARK                            x       y       z     vdW  Elec       q    Type
REMARK                         _______ _______ _______ _____ _____    ______ ____
ROOT
ATOM      1  C   UNL     1       2.198   1.837   1.514  0.00  0.00    +0.000 C 
ENDROOT
BRANCH   1   2
ATOM      2  C   UNL     1       3.107   2.820   2.201  0.00  0.00    +0.000 A 
ATOM      3  C   UNL     1       2.904   4.192   2.022  0.00  0.00    +0.000 A 
ATOM      4  C   UNL     1       3.667   5.126   2.727  0.00  0.00    +0.000 A 
ATOM      5  C   UNL     1       4.671   4.722   3.617  0.00  0.00    +0.000 A 
ATOM      6  C   UNL     1       4.893   3.345   3.774  0.00  0.00    +0.000 A 
ATOM      7  C   UNL     1       4.126   2.405   3.068  0.00  0.00    +0.000 A 
BRANCH   5   8
ATOM      8  C   UNL     1       5.515   5.713   4.407  0.00  0.00    +0.000 C 
BRANCH   8   9
ATOM      9  C   UNL     1       5.181   7.189   4.154  0.00  0.00    +0.000 C 
BRANCH   9  10
ATOM     10  N   UNL     1       6.022   8.090   4.920  0.00  0.00    +0.000 N 
ATOM     11  C   UNL     1       5.801   9.441   4.781  0.00  0.00    +0.000 C 
ATOM     12  N   UNL     1       6.783  10.333   4.917  0.00  0.00    +0.000 NA
ATOM     13  C   UNL     1       6.239  11.512   4.581  0.00  0.00    +0.000 C 
ATOM     14  N   UNL     1       4.948  11.376   4.229  0.00  0.00    +0.000 NA
ATOM     15  N   UNL     1       4.667  10.044   4.370  0.00  0.00    +0.000 NA
ATOM     16  H   UNL     1       7.009   7.883   4.904  0.00  0.00    +0.000 HD
ENDBRANCH   9  10
ENDBRANCH   8   9
ENDBRANCH   5   8
ENDBRANCH   1   2
BRANCH   1  19
ATOM     17  O   UNL     1       0.876   0.052  -0.129  0.00  0.00    +0.000 OA
ATOM     18  C   UNL     1       1.901   0.581  -0.550  0.00  0.00    +0.000 C 
ATOM     19  N   UNL     1       2.656   1.444   0.209  0.00  0.00    +0.000 N 
ATOM     20  H   UNL     1       3.316   2.064  -0.251  0.00  0.00    +0.000 HD
BRANCH  18  21
ATOM     21  C   UNL     1       2.410   0.284  -1.889  0.00  0.00    +0.000 A 
ATOM     22  C   UNL     1       2.180  -0.949  -2.481  0.00  0.00    +0.000 A 
ATOM     23  S   UNL     1       2.830  -1.069  -4.057  0.00  0.00    +0.000 S 
ATOM     24  C   UNL     1       3.415   0.528  -4.001  0.00  0.00    +0.000 A 
ATOM     25  N   UNL     1       4.052   1.087  -5.064  0.00  0.00    +0.000 NA
ATOM     26  C   UNL     1       4.415   2.313  -4.880  0.00  0.00    +0.000 A 
ATOM     27  N   UNL     1       4.202   3.028  -3.726  0.00  0.00    +0.000 N 
ATOM     28  C   UNL     1       3.608   2.496  -2.619  0.00  0.00    +0.000 A 
ATOM     29  O   UNL     1       3.520   3.134  -1.574  0.00  0.00    +0.000 OA
ATOM     30  C   UNL     1       3.150   1.132  -2.786  0.00  0.00    +0.000 A 
ATOM     31  H   UNL     1       4.540   3.977  -3.633  0.00  0.00    +0.000 HD
ENDBRANCH  18  21
ENDBRANCH   1  19
TORSDOF 6
