REMARK  Name = 
REMARK  7 active torsions:
REMARK  status: ('A' for Active; 'I' for Inactive)
REMARK    1  A    between atoms: C_1  and  C_2
REMARK    2  A    between atoms: C_2  and  C_3
REMARK    3  A    between atoms: C_7  and  C_8
REMARK    4  A    between atoms: C_8  and  C_9
REMARK    5  A    between atoms: C_9  and  N_10
REMARK    6  A    between atoms: N_10  and  C_11
REMARK    7  A    between atoms: C_14  and  C_15
REMARK                            x       y       z     vdW  Elec       q    Type
REMARK                         _______ _______ _______ _____ _____    ______ ____
ROOT
ATOM      1  C   UNL     1       3.255   3.739  -4.205  0.00  0.00    +0.000 C 
ENDROOT
BRANCH   1   2
ATOM      2  N   UNL     1       3.736   5.024  -4.730  0.00  0.00    +0.000 N 
ATOM      3  H   UNL     1       4.387   4.909  -5.506  0.00  0.00    +0.000 HD
BRANCH   2   4
ATOM      4  C   UNL     1       2.752   5.988  -5.022  0.00  0.00    +0.000 A 
ATOM      5  C   UNL     1       1.556   6.095  -4.304  0.00  0.00    +0.000 A 
ATOM      6  C   UNL     1       0.626   7.090  -4.598  0.00  0.00    +0.000 A 
ATOM      7  C   UNL     1       0.932   8.000  -5.597  0.00  0.00    +0.000 A 
ATOM      8  N   UNL     1       2.099   7.984  -6.294  0.00  0.00    +0.000 NA
ATOM      9  C   UNL     1       2.977   6.995  -5.970  0.00  0.00    +0.000 A 
BRANCH   7  10
ATOM     10  C   UNL     1      -0.058   9.069  -5.934  0.00  0.00    +0.000 C 
ATOM     11  N   UNL     1       0.321   9.932  -6.926  0.00  0.00    +0.000 N 
ATOM     12  O   UNL     1      -1.141   9.177  -5.366  0.00  0.00    +0.000 OA
ATOM     13  H   UNL     1       1.231   9.820  -7.359  0.00  0.00    +0.000 HD
ATOM     14  H   UNL     1      -0.289  10.688  -7.191  0.00  0.00    +0.000 HD
ENDBRANCH   7  10
ENDBRANCH   2   4
ENDBRANCH   1   2
BRANCH   1  15
ATOM     15  C   UNL     1       4.405   2.761  -3.931  0.00  0.00    +0.000 C 
BRANCH  15  20
ATOM     16  C   UNL     1       2.968   0.199  -1.463  0.00  0.00    +0.000 A 
ATOM     17  C   UNL     1       2.657  -0.844  -2.357  0.00  0.00    +0.000 A 
ATOM     18  C   UNL     1       2.933  -0.743  -3.722  0.00  0.00    +0.000 A 
ATOM     19  C   UNL     1       3.521   0.409  -4.233  0.00  0.00    +0.000 A 
ATOM     20  C   UNL     1       3.860   1.460  -3.376  0.00  0.00    +0.000 A 
ATOM     21  C   UNL     1       3.598   1.337  -1.997  0.00  0.00    +0.000 A 
BRANCH  16  23
ATOM     22  C   UNL     1       0.993   0.016   0.054  0.00  0.00    +0.000 C 
ATOM     23  C   UNL     1       2.531   0.090   0.009  0.00  0.00    +0.000 C 
ATOM     24  C   UNL     1       3.184  -1.112   0.701  0.00  0.00    +0.000 C 
ATOM     25  C   UNL     1       4.416  -0.544   1.392  0.00  0.00    +0.000 C 
ATOM     26  O   UNL     1       4.331   0.884   1.343  0.00  0.00    +0.000 OA
ATOM     27  C   UNL     1       2.997   1.216   0.947  0.00  0.00    +0.000 C 
ENDBRANCH  16  23
ENDBRANCH  15  20
ENDBRANCH   1  15
TORSDOF 6
