REMARK  Name = 
REMARK  7 active torsions:
REMARK  status: ('A' for Active; 'I' for Inactive)
REMARK    1  A    between atoms: C_1  and  C_2
REMARK    2  A    between atoms: C_4  and  C_5
REMARK    3  A    between atoms: C_10  and  N_11
REMARK    4  A    between atoms: N_11  and  C_12
REMARK    5  A    between atoms: C_12  and  C_13
REMARK    6  A    between atoms: C_17  and  C_18
REMARK    7  A    between atoms: C_23  and  C_24
REMARK                            x       y       z     vdW  Elec       q    Type
REMARK                         _______ _______ _______ _____ _____    ______ ____
ROOT
ATOM      1  C   UNL     1       2.378  -2.572   0.012  0.00  0.00    +0.000 C 
ATOM      2  C   UNL     1       3.309  -2.384   1.227  0.00  0.00    +0.000 C 
ATOM      3  C   UNL     1       3.703  -1.837  -0.092  0.00  0.00    +0.000 C 
ENDROOT
BRANCH   1   4
ATOM      4  C   UNL     1       2.358  -3.986  -0.593  0.00  0.00    +0.000 A 
ATOM      5  C   UNL     1       2.335  -4.197  -1.977  0.00  0.00    +0.000 A 
ATOM      6  C   UNL     1       2.433  -5.484  -2.509  0.00  0.00    +0.000 A 
ATOM      7  C   UNL     1       2.563  -6.590  -1.664  0.00  0.00    +0.000 A 
ATOM      8  C   UNL     1       2.587  -6.441  -0.270  0.00  0.00    +0.000 A 
ATOM      9  C   UNL     1       2.448  -5.131   0.229  0.00  0.00    +0.000 A 
BRANCH   8  10
ATOM     10  C   UNL     1       2.805  -7.588   0.647  0.00  0.00    +0.000 A 
ATOM     11  C   UNL     1       2.246  -7.622   1.933  0.00  0.00    +0.000 A 
ATOM     12  C   UNL     1       2.509  -8.676   2.815  0.00  0.00    +0.000 A 
ATOM     13  C   UNL     1       3.310  -9.752   2.424  0.00  0.00    +0.000 A 
ATOM     14 CL   UNL     1       3.575 -10.983   3.602  0.00  0.00    +0.000 Cl
ATOM     15  C   UNL     1       3.852  -9.785   1.139  0.00  0.00    +0.000 A 
ATOM     16  C   UNL     1       3.612  -8.682   0.281  0.00  0.00    +0.000 A 
BRANCH  15  17
ATOM     17  C   UNL     1       4.664 -10.923   0.579  0.00  0.00    +0.000 C 
ATOM     18  F   UNL     1       4.818 -12.012   1.374  0.00  0.00    +0.000 F 
ATOM     19  F   UNL     1       4.115 -11.400  -0.578  0.00  0.00    +0.000 F 
ATOM     20  F   UNL     1       5.927 -10.532   0.240  0.00  0.00    +0.000 F 
ENDBRANCH  15  17
ENDBRANCH   8  10
ENDBRANCH   1   4
BRANCH   1  21
ATOM     21  N   UNL     1       1.041  -2.013   0.225  0.00  0.00    +0.000 N 
ATOM     22  H   UNL     1       0.403  -2.569   0.790  0.00  0.00    +0.000 HD
BRANCH  21  29
ATOM     23  C   UNL     1       2.017   0.099  -1.876  0.00  0.00    +0.000 C 
ATOM     24  C   UNL     1       0.674  -0.007  -1.236  0.00  0.00    +0.000 A 
ATOM     25  C   UNL     1      -0.246   1.018  -1.550  0.00  0.00    +0.000 A 
ATOM     26  C   UNL     1      -1.535   1.036  -1.028  0.00  0.00    +0.000 A 
ATOM     27  C   UNL     1      -1.858  -0.008  -0.191  0.00  0.00    +0.000 A 
ATOM     28  N   UNL     1      -0.987  -0.995   0.162  0.00  0.00    +0.000 NA
ATOM     29  C   UNL     1       0.283  -0.993  -0.332  0.00  0.00    +0.000 A 
BRANCH  26  30
ATOM     30  C   UNL     1      -2.439   2.153  -1.399  0.00  0.00    +0.000 C 
ATOM     31  N   UNL     1      -3.714   2.184  -0.914  0.00  0.00    +0.000 N 
ATOM     32  O   UNL     1      -2.055   3.054  -2.140  0.00  0.00    +0.000 OA
ATOM     33  H   UNL     1      -4.138   1.498  -0.309  0.00  0.00    +0.000 HD
ATOM     34  H   UNL     1      -4.284   2.969  -1.207  0.00  0.00    +0.000 HD
ENDBRANCH  26  30
ENDBRANCH  21  29
ENDBRANCH   1  21
TORSDOF 6
