REMARK  Name = 
REMARK  4 active torsions:
REMARK  status: ('A' for Active; 'I' for Inactive)
REMARK    1  A    between atoms: C_2  and  C_4
REMARK    2  A    between atoms: C_7  and  N_8
REMARK    3  A    between atoms: N_8  and  C_9
REMARK    4  A    between atoms: C_9  and  C_10
REMARK                            x       y       z     vdW  Elec       q    Type
REMARK                         _______ _______ _______ _____ _____    ______ ____
ROOT
ATOM      1  C   UNL     1       8.631  -2.162  -0.959  0.00  0.00    +0.000 A 
ATOM      2  C   UNL     1       8.746  -3.517  -1.240  0.00  0.00    +0.000 A 
ATOM      3  C   UNL     1       7.615  -4.326  -1.101  0.00  0.00    +0.000 A 
ATOM      4  C   UNL     1       6.394  -3.769  -0.714  0.00  0.00    +0.000 A 
ATOM      5  C   UNL     1       6.406  -2.399  -0.423  0.00  0.00    +0.000 A 
ATOM      6  N   UNL     1       7.477  -1.575  -0.542  0.00  0.00    +0.000 NA
ENDROOT
BRANCH   1   8
ATOM      7  N   UNL     1       9.621   0.042  -0.752  0.00  0.00    +0.000 N 
ATOM      8  C   UNL     1       9.824  -1.266  -1.099  0.00  0.00    +0.000 C 
ATOM      9  O   UNL     1      10.915  -1.667  -1.496  0.00  0.00    +0.000 OA
ATOM     10  H   UNL     1      10.383   0.700  -0.816  0.00  0.00    +0.000 HD
ATOM     11  H   UNL     1       8.710   0.334  -0.417  0.00  0.00    +0.000 HD
ENDBRANCH   1   8
BRANCH   4  12
ATOM     12  N   UNL     1       5.222  -4.530  -0.507  0.00  0.00    +0.000 N 
ATOM     13  H   UNL     1       4.387  -3.951  -0.502  0.00  0.00    +0.000 HD
BRANCH  12  14
ATOM     14  C   UNL     1       5.042  -5.871  -1.134  0.00  0.00    +0.000 C 
ATOM     15  C   UNL     1       5.004  -5.947  -2.652  0.00  0.00    +0.000 C 
ATOM     16  C   UNL     1       3.737  -6.135  -1.886  0.00  0.00    +0.000 C 
BRANCH  14  17
ATOM     17  C   UNL     1       5.518  -7.077  -0.301  0.00  0.00    +0.000 A 
ATOM     18  C   UNL     1       5.122  -7.209   1.035  0.00  0.00    +0.000 A 
ATOM     19  C   UNL     1       5.425  -8.370   1.743  0.00  0.00    +0.000 A 
ATOM     20  C   UNL     1       6.125  -9.384   1.110  0.00  0.00    +0.000 A 
ATOM     21  C   UNL     1       6.513  -9.181  -0.202  0.00  0.00    +0.000 A 
ATOM     22  N   UNL     1       6.234  -8.063  -0.909  0.00  0.00    +0.000 NA
ENDBRANCH  14  17
ENDBRANCH  12  14
ENDBRANCH   4  12
TORSDOF 4
