REMARK  Name = 
REMARK  8 active torsions:
REMARK  status: ('A' for Active; 'I' for Inactive)
REMARK    1  A    between atoms: N_1  and  C_2
REMARK    2  A    between atoms: C_2  and  C_3
REMARK    3  A    between atoms: C_6  and  C_7
REMARK    4  A    between atoms: N_9  and  C_10
REMARK    5  A    between atoms: C_10  and  C_11
REMARK    6  A    between atoms: C_14  and  C_15
REMARK    7  A    between atoms: C_15  and  N_16
REMARK    8  A    between atoms: C_17  and  C_19
REMARK                            x       y       z     vdW  Elec       q    Type
REMARK                         _______ _______ _______ _____ _____    ______ ____
ROOT
ATOM      1  C   UNL     1       4.965   2.870   7.938  0.00  0.00    +0.000 A 
ATOM      2  C   UNL     1       6.147   3.622   7.910  0.00  0.00    +0.000 A 
ATOM      3  C   UNL     1       6.210   4.875   8.531  0.00  0.00    +0.000 A 
ATOM      4  C   UNL     1       5.099   5.392   9.212  0.00  0.00    +0.000 A 
ATOM      5  C   UNL     1       3.915   4.644   9.231  0.00  0.00    +0.000 A 
ATOM      6  C   UNL     1       3.851   3.392   8.610  0.00  0.00    +0.000 A 
ENDROOT
BRANCH   1   7
ATOM      7  C   UNL     1       4.904   1.505   7.301  0.00  0.00    +0.000 C 
BRANCH   7  10
ATOM      8  C   UNL     1       5.340  -0.857   7.902  0.00  0.00    +0.000 C 
ATOM      9  O   UNL     1       5.005  -1.246   6.788  0.00  0.00    +0.000 OA
ATOM     10  N   UNL     1       5.322   0.485   8.233  0.00  0.00    +0.000 N 
ATOM     11  H   UNL     1       5.604   0.756   9.164  0.00  0.00    +0.000 HD
BRANCH   8  15
ATOM     12  C   UNL     1       6.557  -2.736  11.114  0.00  0.00    +0.000 A 
ATOM     13  C   UNL     1       6.332  -3.695  10.146  0.00  0.00    +0.000 A 
ATOM     14  C   UNL     1       5.884  -3.130   8.916  0.00  0.00    +0.000 A 
ATOM     15  C   UNL     1       5.773  -1.752   8.971  0.00  0.00    +0.000 A 
ATOM     16  S   UNL     1       6.223  -1.168  10.520  0.00  0.00    +0.000 S 
BRANCH  12  17
ATOM     17  C   UNL     1       7.016  -2.923  12.527  0.00  0.00    +0.000 C 
BRANCH  17  18
ATOM     18  N   UNL     1       8.314  -3.588  12.564  0.00  0.00    +0.000 NA
ATOM     19  H   UNL     1       8.648  -3.606  13.525  0.00  0.00    +0.000 HD
ATOM     20  H   UNL     1       8.984  -3.026  12.040  0.00  0.00    +0.000 HD
ENDBRANCH  17  18
ENDBRANCH  12  17
ENDBRANCH   8  15
ENDBRANCH   7  10
ENDBRANCH   1   7
BRANCH   4  21
ATOM     21  C   UNL     1       5.164   6.737   9.890  0.00  0.00    +0.000 C 
BRANCH  21  22
ATOM     22  N   UNL     1       4.695   7.789   9.023  0.00  0.00    +0.000 N 
ATOM     23  C   UNL     1       4.605   9.083   9.473  0.00  0.00    +0.000 C 
ATOM     24  O   UNL     1       4.770   9.377  10.654  0.00  0.00    +0.000 OA
ATOM     25  H   UNL     1       4.731   7.610   8.025  0.00  0.00    +0.000 HD
BRANCH  23  26
ATOM     26  C   UNL     1       4.288  10.108   8.471  0.00  0.00    +0.000 A 
ATOM     27  C   UNL     1       3.656  11.284   8.853  0.00  0.00    +0.000 A 
ATOM     28  S   UNL     1       3.435  12.386   7.568  0.00  0.00    +0.000 S 
ATOM     29  C   UNL     1       4.248  11.362   6.479  0.00  0.00    +0.000 A 
ATOM     30  N   UNL     1       4.515  11.761   5.206  0.00  0.00    +0.000 NA
ATOM     31  C   UNL     1       5.158  10.892   4.499  0.00  0.00    +0.000 A 
ATOM     32  N   UNL     1       5.523   9.645   4.937  0.00  0.00    +0.000 N 
ATOM     33  C   UNL     1       5.235   9.183   6.199  0.00  0.00    +0.000 A 
ATOM     34  O   UNL     1       5.494   8.032   6.531  0.00  0.00    +0.000 OA
ATOM     35  C   UNL     1       4.586  10.153   7.060  0.00  0.00    +0.000 A 
ATOM     36  H   UNL     1       5.978   8.992   4.317  0.00  0.00    +0.000 HD
ENDBRANCH  23  26
ENDBRANCH  21  22
ENDBRANCH   4  21
TORSDOF 8
