REMARK  Name = 
REMARK  8 active torsions:
REMARK  status: ('A' for Active; 'I' for Inactive)
REMARK    1  A    between atoms: C_1  and  N_2
REMARK    2  A    between atoms: N_2  and  C_3
REMARK    3  A    between atoms: C_3  and  C_4
REMARK    4  A    between atoms: C_7  and  C_8
REMARK    5  A    between atoms: C_8  and  N_9
REMARK    6  A    between atoms: N_9  and  C_10
REMARK    7  A    between atoms: C_13  and  N_14
REMARK    8  A    between atoms: C_18  and  C_20
REMARK                            x       y       z     vdW  Elec       q    Type
REMARK                         _______ _______ _______ _____ _____    ______ ____
ROOT
ATOM      1  C   UNL     1      -1.020   2.672 -12.292  0.00  0.00    +0.000 A 
ATOM      2  C   UNL     1      -1.119   1.747 -11.255  0.00  0.00    +0.000 A 
ATOM      3  C   UNL     1      -1.316   2.207  -9.965  0.00  0.00    +0.000 A 
ATOM      4  C   UNL     1      -1.417   3.575  -9.748  0.00  0.00    +0.000 A 
ATOM      5  N   UNL     1      -1.380   4.493 -10.751  0.00  0.00    +0.000 NA
ATOM      6  C   UNL     1      -1.182   4.020 -11.999  0.00  0.00    +0.000 A 
ENDROOT
BRANCH   1   7
ATOM      7  C   UNL     1      -0.660   2.217 -13.668  0.00  0.00    +0.000 C 
BRANCH   7   9
ATOM      8  C   UNL     1       1.758   2.572 -12.984  0.00  0.00    +0.000 C 
ATOM      9  N   UNL     1       0.775   2.126 -13.967  0.00  0.00    +0.000 N 
ATOM     10  C   UNL     1       1.279   1.290 -14.980  0.00  0.00    +0.000 C 
ATOM     11  O   UNL     1       2.472   1.004 -15.032  0.00  0.00    +0.000 OA
BRANCH  10  12
ATOM     12  C   UNL     1       0.355   0.787 -16.005  0.00  0.00    +0.000 A 
ATOM     13  C   UNL     1      -0.688   1.520 -16.551  0.00  0.00    +0.000 A 
ATOM     14  S   UNL     1      -1.576   0.685 -17.739  0.00  0.00    +0.000 S 
ATOM     15  C   UNL     1      -0.501  -0.628 -17.674  0.00  0.00    +0.000 A 
ATOM     16  N   UNL     1      -0.629  -1.666 -18.539  0.00  0.00    +0.000 NA
ATOM     17  C   UNL     1       0.293  -2.561 -18.420  0.00  0.00    +0.000 A 
ATOM     18  N   UNL     1       1.302  -2.534 -17.493  0.00  0.00    +0.000 N 
ATOM     19  C   UNL     1       1.384  -1.580 -16.504  0.00  0.00    +0.000 A 
ATOM     20  O   UNL     1       2.131  -1.730 -15.544  0.00  0.00    +0.000 OA
ATOM     21  C   UNL     1       0.453  -0.480 -16.683  0.00  0.00    +0.000 A 
ATOM     22  H   UNL     1       1.937  -3.313 -17.404  0.00  0.00    +0.000 HD
ENDBRANCH  10  12
ENDBRANCH   7   9
ENDBRANCH   1   7
BRANCH   4  23
ATOM     23  C   UNL     1      -1.532   4.108  -8.333  0.00  0.00    +0.000 C 
BRANCH  23  24
ATOM     24  N   UNL     1      -2.730   4.924  -8.068  0.00  0.00    +0.000 NA
ATOM     25  H   UNL     1      -2.677   5.698  -8.740  0.00  0.00    +0.000 HD
BRANCH  24  26
ATOM     26  C   UNL     1      -3.999   4.224  -8.317  0.00  0.00    +0.000 C 
ATOM     27  C   UNL     1      -4.268   3.019  -7.410  0.00  0.00    +0.000 C 
ATOM     28  C   UNL     1      -4.990   3.544  -6.169  0.00  0.00    +0.000 C 
ATOM     29  C   UNL     1      -5.416   4.987  -6.473  0.00  0.00    +0.000 C 
ATOM     30  C   UNL     1      -5.179   5.147  -7.979  0.00  0.00    +0.000 C 
BRANCH  29  31
ATOM     31  N   UNL     1      -4.656   5.974  -5.705  0.00  0.00    +0.000 NA
ATOM     32  H   UNL     1      -3.770   6.154  -6.184  0.00  0.00    +0.000 HD
ATOM     33  H   UNL     1      -4.404   5.596  -4.793  0.00  0.00    +0.000 HD
ENDBRANCH  29  31
ENDBRANCH  24  26
ENDBRANCH  23  24
ENDBRANCH   4  23
TORSDOF 7
