REMARK  Name = 
REMARK  8 active torsions:
REMARK  status: ('A' for Active; 'I' for Inactive)
REMARK    1  A    between atoms: C_1  and  O_2
REMARK    2  A    between atoms: O_2  and  C_3
REMARK    3  A    between atoms: C_10  and  C_11
REMARK    4  A    between atoms: N_13  and  C_14
REMARK    5  A    between atoms: C_14  and  C_15
REMARK    6  A    between atoms: C_18  and  N_19
REMARK    7  A    between atoms: N_19  and  C_20
REMARK    8  A    between atoms: C_20  and  C_21
REMARK                            x       y       z     vdW  Elec       q    Type
REMARK                         _______ _______ _______ _____ _____    ______ ____
ROOT
ATOM      1  C   UNL     1       2.959  -0.923  -3.219  0.00  0.00    +0.000 C 
ENDROOT
BRANCH   1   2
ATOM      2  C   UNL     1       1.772  -1.763  -2.826  0.00  0.00    +0.000 A 
ATOM      3  C   UNL     1       1.869  -3.158  -2.774  0.00  0.00    +0.000 A 
ATOM      4  C   UNL     1       0.790  -3.935  -2.327  0.00  0.00    +0.000 A 
ATOM      5  C   UNL     1      -0.427  -3.351  -1.960  0.00  0.00    +0.000 A 
ATOM      6  C   UNL     1      -0.527  -1.956  -2.060  0.00  0.00    +0.000 A 
ATOM      7  C   UNL     1       0.551  -1.171  -2.492  0.00  0.00    +0.000 A 
BRANCH   5   8
ATOM      8  N   UNL     1      -1.490  -4.053  -1.385  0.00  0.00    +0.000 N 
ATOM      9  H   UNL     1      -2.391  -3.737  -1.736  0.00  0.00    +0.000 HD
BRANCH   8  10
ATOM     10  C   UNL     1      -1.424  -5.506  -1.213  0.00  0.00    +0.000 C 
BRANCH  10  11
ATOM     11  C   UNL     1      -2.729  -6.040  -0.584  0.00  0.00    +0.000 C 
ATOM     12  C   UNL     1      -2.675  -7.538  -0.321  0.00  0.00    +0.000 C 
ATOM     13  C   UNL     1      -4.139  -7.907  -0.174  0.00  0.00    +0.000 C 
ATOM     14  C   UNL     1      -4.872  -6.925  -1.076  0.00  0.00    +0.000 C 
ATOM     15  N   UNL     1      -3.897  -5.904  -1.475  0.00  0.00    +0.000 NA
ATOM     16  H   UNL     1      -4.302  -4.974  -1.384  0.00  0.00    +0.000 HD
ENDBRANCH  10  11
ENDBRANCH   8  10
ENDBRANCH   5   8
ENDBRANCH   1   2
BRANCH   1  19
ATOM     17  C   UNL     1       4.040  -0.002  -5.219  0.00  0.00    +0.000 C 
ATOM     18  O   UNL     1       4.939   0.491  -4.535  0.00  0.00    +0.000 OA
ATOM     19  N   UNL     1       3.021  -0.709  -4.643  0.00  0.00    +0.000 N 
ATOM     20  H   UNL     1       2.264  -1.068  -5.207  0.00  0.00    +0.000 HD
BRANCH  17  28
ATOM     21  C   UNL     1       1.943  -1.149  -7.706  0.00  0.00    +0.000 A 
ATOM     22  N   UNL     1       1.356  -1.519  -8.863  0.00  0.00    +0.000 NA
ATOM     23  C   UNL     1       1.913  -1.123 -10.010  0.00  0.00    +0.000 A 
ATOM     24  N   UNL     1       3.005  -0.380 -10.152  0.00  0.00    +0.000 NA
ATOM     25  C   UNL     1       3.569  -0.044  -8.980  0.00  0.00    +0.000 A 
ATOM     26  S   UNL     1       4.970   0.915  -8.976  0.00  0.00    +0.000 S 
ATOM     27  C   UNL     1       5.052   0.871  -7.280  0.00  0.00    +0.000 A 
ATOM     28  C   UNL     1       4.034   0.136  -6.684  0.00  0.00    +0.000 A 
ATOM     29  C   UNL     1       3.128  -0.390  -7.705  0.00  0.00    +0.000 A 
BRANCH  21  31
ATOM     30  C   UNL     1       0.107  -2.214  -6.695  0.00  0.00    +0.000 C 
ATOM     31  O   UNL     1       1.338  -1.513  -6.520  0.00  0.00    +0.000 OA
ENDBRANCH  21  31
ENDBRANCH  17  28
ENDBRANCH   1  19
TORSDOF 7
