REMARK  Name = 
REMARK  9 active torsions:
REMARK  status: ('A' for Active; 'I' for Inactive)
REMARK    1  A    between atoms: C_1  and  C_2
REMARK    2  A    between atoms: C_2  and  N_3
REMARK    3  A    between atoms: C_2  and  C_16
REMARK    4  A    between atoms: C_4  and  C_6
REMARK    5  A    between atoms: C_19  and  C_20
REMARK    6  A    between atoms: C_20  and  O_21
REMARK    7  A    between atoms: O_21  and  C_22
REMARK    8  A    between atoms: C_22  and  C_23
REMARK    9  A    between atoms: C_28  and  C_29
REMARK                            x       y       z     vdW  Elec       q    Type
REMARK                         _______ _______ _______ _____ _____    ______ ____
ROOT
ATOM      1  C   UNL     1       2.859  -0.828   1.046  0.00  0.00    +0.000 A 
ATOM      2  C   UNL     1       3.229  -0.412   2.331  0.00  0.00    +0.000 A 
ATOM      3  C   UNL     1       3.524  -1.353   3.322  0.00  0.00    +0.000 A 
ATOM      4  C   UNL     1       3.449  -2.728   3.053  0.00  0.00    +0.000 A 
ATOM      5  C   UNL     1       3.102  -3.145   1.764  0.00  0.00    +0.000 A 
ATOM      6  C   UNL     1       2.811  -2.206   0.776  0.00  0.00    +0.000 A 
ENDROOT
BRANCH   1   8
ATOM      7  C   UNL     1       3.457   0.108  -1.195  0.00  0.00    +0.000 C 
ATOM      8  C   UNL     1       2.468   0.183  -0.025  0.00  0.00    +0.000 C 
BRANCH   8   9
ATOM      9  N   UNL     1       1.093  -0.074  -0.428  0.00  0.00    +0.000 N 
ATOM     10  C   UNL     1       0.418   0.674  -1.356  0.00  0.00    +0.000 C 
ATOM     11  O   UNL     1       0.937   1.606  -1.967  0.00  0.00    +0.000 OA
ATOM     12  H   UNL     1       0.536  -0.597   0.244  0.00  0.00    +0.000 HD
BRANCH  10  13
ATOM     13  C   UNL     1      -0.959   0.258  -1.647  0.00  0.00    +0.000 A 
ATOM     14  C   UNL     1      -1.501   0.504  -2.901  0.00  0.00    +0.000 A 
ATOM     15  S   UNL     1      -3.104  -0.050  -3.074  0.00  0.00    +0.000 S 
ATOM     16  C   UNL     1      -3.145  -0.602  -1.465  0.00  0.00    +0.000 A 
ATOM     17  N   UNL     1      -4.272  -1.157  -0.943  0.00  0.00    +0.000 NA
ATOM     18  C   UNL     1      -4.168  -1.507   0.296  0.00  0.00    +0.000 A 
ATOM     19  N   UNL     1      -3.037  -1.363   1.057  0.00  0.00    +0.000 N 
ATOM     20  C   UNL     1      -1.867  -0.837   0.564  0.00  0.00    +0.000 A 
ATOM     21  O   UNL     1      -0.855  -0.772   1.249  0.00  0.00    +0.000 OA
ATOM     22  C   UNL     1      -1.940  -0.399  -0.816  0.00  0.00    +0.000 A 
ATOM     23  H   UNL     1      -3.017  -1.674   2.019  0.00  0.00    +0.000 HD
ENDBRANCH  10  13
ENDBRANCH   8   9
ENDBRANCH   1   8
BRANCH   4  24
ATOM     24  C   UNL     1       3.715  -3.740   4.137  0.00  0.00    +0.000 C 
BRANCH  24  25
ATOM     25  O   UNL     1       2.762  -3.533   5.175  0.00  0.00    +0.000 OA
BRANCH  25  26
ATOM     26  C   UNL     1       2.923  -4.462   6.244  0.00  0.00    +0.000 C 
BRANCH  26  27
ATOM     27  C   UNL     1       1.873  -4.250   7.321  0.00  0.00    +0.000 A 
ATOM     28  C   UNL     1       0.919  -3.222   7.183  0.00  0.00    +0.000 A 
ATOM     29  C   UNL     1      -0.100  -3.043   8.119  0.00  0.00    +0.000 A 
ATOM     30  C   UNL     1      -0.196  -3.896   9.209  0.00  0.00    +0.000 A 
ATOM     31  C   UNL     1       0.752  -4.901   9.384  0.00  0.00    +0.000 A 
ATOM     32  C   UNL     1       1.809  -5.081   8.465  0.00  0.00    +0.000 A 
BRANCH  32  33
ATOM     33  C   UNL     1       2.826  -6.156   8.790  0.00  0.00    +0.000 C 
ATOM     34  F   UNL     1       3.850  -6.270   7.901  0.00  0.00    +0.000 F 
ATOM     35  F   UNL     1       3.420  -5.946  10.000  0.00  0.00    +0.000 F 
ATOM     36  F   UNL     1       2.267  -7.396   8.864  0.00  0.00    +0.000 F 
ENDBRANCH  32  33
ENDBRANCH  26  27
ENDBRANCH  25  26
ENDBRANCH  24  25
ENDBRANCH   4  24
TORSDOF 8
