REMARK  Name = 
REMARK  6 active torsions:
REMARK  status: ('A' for Active; 'I' for Inactive)
REMARK    1  A    between atoms: C_2  and  C_4
REMARK    2  A    between atoms: C_7  and  N_8
REMARK    3  A    between atoms: N_8  and  C_9
REMARK    4  A    between atoms: C_9  and  C_10
REMARK    5  A    between atoms: C_10  and  C_13
REMARK    6  A    between atoms: C_17  and  N_18
REMARK                            x       y       z     vdW  Elec       q    Type
REMARK                         _______ _______ _______ _____ _____    ______ ____
ROOT
ATOM      1  C   UNL     1       4.749  -3.692  -5.324  0.00  0.00    +0.000 C 
ENDROOT
BRANCH   1   2
ATOM      2  C   UNL     1       5.922  -3.771  -6.333  0.00  0.00    +0.000 C 
ATOM      3  F   UNL     1       6.764  -2.717  -6.103  0.00  0.00    +0.000 F 
ATOM      4  F   UNL     1       6.662  -4.887  -6.057  0.00  0.00    +0.000 F 
BRANCH   2   5
ATOM      5  C   UNL     1       5.365  -3.776  -7.740  0.00  0.00    +0.000 A 
ATOM      6  C   UNL     1       5.071  -4.982  -8.385  0.00  0.00    +0.000 A 
ATOM      7  C   UNL     1       4.465  -4.972  -9.636  0.00  0.00    +0.000 A 
ATOM      8  C   UNL     1       4.114  -3.758 -10.234  0.00  0.00    +0.000 A 
ATOM      9  C   UNL     1       4.364  -2.529  -9.610  0.00  0.00    +0.000 A 
ATOM     10  C   UNL     1       5.039  -2.568  -8.380  0.00  0.00    +0.000 A 
BRANCH   9  11
ATOM     11  N   UNL     1       3.917  -1.339 -10.138  0.00  0.00    +0.000 N 
ATOM     12  C   UNL     1       3.551  -0.192  -9.294  0.00  0.00    +0.000 C 
ATOM     13  C   UNL     1       2.167   0.332  -9.711  0.00  0.00    +0.000 C 
ATOM     14  O   UNL     1       2.112   0.642 -11.114  0.00  0.00    +0.000 OA
ATOM     15  C   UNL     1       2.412  -0.529 -11.896  0.00  0.00    +0.000 C 
ATOM     16  C   UNL     1       3.811  -1.076 -11.579  0.00  0.00    +0.000 C 
ENDBRANCH   9  11
ENDBRANCH   2   5
ENDBRANCH   1   2
BRANCH   1  17
ATOM     17  N   UNL     1       5.155  -3.783  -3.914  0.00  0.00    +0.000 N 
ATOM     18  H   UNL     1       6.148  -3.828  -3.712  0.00  0.00    +0.000 HD
BRANCH  17  22
ATOM     19  C   UNL     1       2.406  -3.602  -0.720  0.00  0.00    +0.000 A 
ATOM     20  C   UNL     1       3.778  -3.741  -0.479  0.00  0.00    +0.000 A 
ATOM     21  C   UNL     1       4.680  -3.799  -1.551  0.00  0.00    +0.000 A 
ATOM     22  C   UNL     1       4.243  -3.712  -2.880  0.00  0.00    +0.000 A 
ATOM     23  C   UNL     1       2.869  -3.585  -3.098  0.00  0.00    +0.000 A 
ATOM     24  C   UNL     1       1.970  -3.532  -2.040  0.00  0.00    +0.000 A 
ATOM     25  F   UNL     1       0.667  -3.404  -2.343  0.00  0.00    +0.000 F 
BRANCH  19  27
ATOM     26  N   UNL     1       0.137  -3.363   0.144  0.00  0.00    +0.000 N 
ATOM     27  C   UNL     1       1.466  -3.514   0.426  0.00  0.00    +0.000 C 
ATOM     28  O   UNL     1       1.860  -3.558   1.583  0.00  0.00    +0.000 OA
ATOM     29  H   UNL     1      -0.508  -3.253   0.914  0.00  0.00    +0.000 HD
ATOM     30  H   UNL     1      -0.221  -3.305  -0.800  0.00  0.00    +0.000 HD
ENDBRANCH  19  27
ENDBRANCH  17  22
ENDBRANCH   1  17
TORSDOF 6
