REMARK  Name = 
REMARK  7 active torsions:
REMARK  status: ('A' for Active; 'I' for Inactive)
REMARK    1  A    between atoms: N_1  and  C_2
REMARK    2  A    between atoms: C_2  and  C_3
REMARK    3  A    between atoms: C_3  and  N_4
REMARK    4  A    between atoms: C_3  and  C_17
REMARK    5  A    between atoms: C_5  and  C_7
REMARK    6  A    between atoms: C_20  and  O_21
REMARK    7  A    between atoms: O_21  and  C_22
REMARK                            x       y       z     vdW  Elec       q    Type
REMARK                         _______ _______ _______ _____ _____    ______ ____
ROOT
ATOM      1  C   UNL     1       2.934  -1.126   0.527  0.00  0.00    +0.000 C 
ENDROOT
BRANCH   1   2
ATOM      2  C   UNL     1       4.455  -1.258   0.596  0.00  0.00    +0.000 A 
ATOM      3  C   UNL     1       5.076  -1.533   1.821  0.00  0.00    +0.000 A 
ATOM      4  C   UNL     1       6.468  -1.611   1.911  0.00  0.00    +0.000 A 
ATOM      5  C   UNL     1       7.261  -1.469   0.770  0.00  0.00    +0.000 A 
ATOM      6  C   UNL     1       6.655  -1.192  -0.455  0.00  0.00    +0.000 A 
ATOM      7  C   UNL     1       5.262  -1.095  -0.545  0.00  0.00    +0.000 A 
BRANCH   5   8
ATOM      8  O   UNL     1       8.638  -1.500   0.782  0.00  0.00    +0.000 OA
BRANCH   8   9
ATOM      9  C   UNL     1       9.275  -2.387   1.642  0.00  0.00    +0.000 A 
ATOM     10  C   UNL     1      10.567  -2.059   2.027  0.00  0.00    +0.000 A 
ATOM     11  C   UNL     1      11.234  -2.917   2.897  0.00  0.00    +0.000 A 
ATOM     12  C   UNL     1      10.593  -4.067   3.345  0.00  0.00    +0.000 A 
ATOM     13  C   UNL     1       9.314  -4.326   2.883  0.00  0.00    +0.000 A 
ATOM     14  N   UNL     1       8.650  -3.522   2.029  0.00  0.00    +0.000 NA
ENDBRANCH   8   9
ENDBRANCH   5   8
ENDBRANCH   1   2
BRANCH   1  15
ATOM     15  N   UNL     1       2.422  -2.184  -0.329  0.00  0.00    +0.000 N 
ATOM     16  C   UNL     1       1.085  -2.448  -0.485  0.00  0.00    +0.000 C 
ATOM     17  O   UNL     1       0.199  -1.715  -0.060  0.00  0.00    +0.000 OA
ATOM     18  H   UNL     1       3.059  -2.964  -0.447  0.00  0.00    +0.000 HD
BRANCH  16  19
ATOM     19  C   UNL     1       0.774  -3.649  -1.266  0.00  0.00    +0.000 A 
ATOM     20  C   UNL     1      -0.380  -3.713  -2.033  0.00  0.00    +0.000 A 
ATOM     21  S   UNL     1      -0.527  -5.171  -2.912  0.00  0.00    +0.000 S 
ATOM     22  C   UNL     1       0.917  -5.785  -2.249  0.00  0.00    +0.000 A 
ATOM     23  N   UNL     1       1.374  -7.024  -2.573  0.00  0.00    +0.000 NA
ATOM     24  C   UNL     1       2.465  -7.363  -1.968  0.00  0.00    +0.000 A 
ATOM     25  N   UNL     1       3.142  -6.577  -1.072  0.00  0.00    +0.000 N 
ATOM     26  C   UNL     1       2.735  -5.311  -0.740  0.00  0.00    +0.000 A 
ATOM     27  O   UNL     1       3.386  -4.612   0.029  0.00  0.00    +0.000 OA
ATOM     28  C   UNL     1       1.509  -4.883  -1.384  0.00  0.00    +0.000 A 
ATOM     29  H   UNL     1       3.999  -6.892  -0.640  0.00  0.00    +0.000 HD
ENDBRANCH  16  19
ENDBRANCH   1  15
BRANCH   1  30
ATOM     30  C   UNL     1       2.515   0.296   0.049  0.00  0.00    +0.000 C 
BRANCH  30  31
ATOM     31  N   UNL     1       3.050   1.392   0.872  0.00  0.00    +0.000 NA
ATOM     32  H   UNL     1       2.960   2.264   0.353  0.00  0.00    +0.000 HD
ATOM     33  H   UNL     1       4.051   1.250   1.016  0.00  0.00    +0.000 HD
ENDBRANCH  30  31
ENDBRANCH   1  30
TORSDOF 7
