REMARK  Name = 
REMARK  7 active torsions:
REMARK  status: ('A' for Active; 'I' for Inactive)
REMARK    1  A    between atoms: C_2  and  C_19
REMARK    2  A    between atoms: N_3  and  C_4
REMARK    3  A    between atoms: C_4  and  C_5
REMARK    4  A    between atoms: C_8  and  C_9
REMARK    5  A    between atoms: C_9  and  O_10
REMARK    6  A    between atoms: C_9  and  C_11
REMARK    7  A    between atoms: C_11  and  C_12
REMARK                            x       y       z     vdW  Elec       q    Type
REMARK                         _______ _______ _______ _____ _____    ______ ____
ROOT
ATOM      1  C   UNL     1       5.172   3.121 -10.509  0.00  0.00    +0.000 C 
ENDROOT
BRANCH   1   2
ATOM      2  C   UNL     1       5.268   3.686  -9.109  0.00  0.00    +0.000 A 
ATOM      3  C   UNL     1       6.019   4.831  -8.879  0.00  0.00    +0.000 A 
ATOM      4  C   UNL     1       6.156   5.292  -7.575  0.00  0.00    +0.000 A 
ATOM      5  C   UNL     1       5.560   4.602  -6.513  0.00  0.00    +0.000 A 
ATOM      6  C   UNL     1       4.822   3.473  -6.847  0.00  0.00    +0.000 A 
ATOM      7  N   UNL     1       4.660   3.001  -8.108  0.00  0.00    +0.000 NA
BRANCH   5   8
ATOM      8  C   UNL     1       5.750   5.115  -5.107  0.00  0.00    +0.000 C 
BRANCH   8   9
ATOM      9  O   UNL     1       7.150   5.199  -4.827  0.00  0.00    +0.000 OA
ATOM     10  H   UNL     1       7.473   4.274  -4.779  0.00  0.00    +0.000 HD
ENDBRANCH   8   9
BRANCH   8  11
ATOM     11  C   UNL     1       5.027   4.406  -3.960  0.00  0.00    +0.000 C 
BRANCH  11  12
ATOM     12  C   UNL     1       5.501   3.011  -3.708  0.00  0.00    +0.000 C 
ATOM     13  N   UNL     1       6.700   2.571  -3.926  0.00  0.00    +0.000 NA
ATOM     14  C   UNL     1       6.677   1.228  -3.332  0.00  0.00    +0.000 C 
ATOM     15  C   UNL     1       5.220   0.933  -3.054  0.00  0.00    +0.000 C 
ATOM     16  O   UNL     1       4.577   2.194  -3.157  0.00  0.00    +0.000 OA
ENDBRANCH  11  12
ENDBRANCH   8  11
ENDBRANCH   5   8
ENDBRANCH   1   2
BRANCH   1  19
ATOM     17  O   UNL     1       7.659   3.784 -11.654  0.00  0.00    +0.000 OA
ATOM     18  C   UNL     1       7.460   2.629 -11.289  0.00  0.00    +0.000 C 
ATOM     19  N   UNL     1       6.256   2.211 -10.786  0.00  0.00    +0.000 N 
ATOM     20  H   UNL     1       6.224   1.352 -10.246  0.00  0.00    +0.000 HD
BRANCH  18  21
ATOM     21  C   UNL     1       8.485   1.592 -11.429  0.00  0.00    +0.000 A 
ATOM     22  C   UNL     1       9.473   1.706 -12.396  0.00  0.00    +0.000 A 
ATOM     23  S   UNL     1      10.541   0.375 -12.436  0.00  0.00    +0.000 S 
ATOM     24  C   UNL     1       9.745  -0.374 -11.131  0.00  0.00    +0.000 A 
ATOM     25  N   UNL     1      10.168  -1.571 -10.639  0.00  0.00    +0.000 NA
ATOM     26  C   UNL     1       9.492  -1.999  -9.626  0.00  0.00    +0.000 A 
ATOM     27  N   UNL     1       8.425  -1.345  -9.066  0.00  0.00    +0.000 N 
ATOM     28  C   UNL     1       7.927  -0.169  -9.557  0.00  0.00    +0.000 A 
ATOM     29  O   UNL     1       6.905   0.328  -9.101  0.00  0.00    +0.000 OA
ATOM     30  C   UNL     1       8.672   0.373 -10.684  0.00  0.00    +0.000 A 
ATOM     31  H   UNL     1       7.919  -1.746  -8.290  0.00  0.00    +0.000 HD
ENDBRANCH  18  21
ENDBRANCH   1  19
TORSDOF 7
