REMARK  Name = 
REMARK  6 active torsions:
REMARK  status: ('A' for Active; 'I' for Inactive)
REMARK    1  A    between atoms: N_1  and  C_2
REMARK    2  A    between atoms: C_2  and  C_3
REMARK    3  A    between atoms: C_6  and  O_7
REMARK    4  A    between atoms: O_7  and  C_8
REMARK    5  A    between atoms: C_8  and  C_9
REMARK    6  A    between atoms: C_9  and  O_10
REMARK                            x       y       z     vdW  Elec       q    Type
REMARK                         _______ _______ _______ _____ _____    ______ ____
ROOT
ATOM      1  C   UNL     1       2.366  -1.225   0.856  0.00  0.00    +0.000 A 
ATOM      2  C   UNL     1       2.609  -0.996   2.216  0.00  0.00    +0.000 A 
ATOM      3  C   UNL     1       3.103  -2.013   3.037  0.00  0.00    +0.000 A 
ATOM      4  C   UNL     1       3.352  -3.282   2.515  0.00  0.00    +0.000 A 
ATOM      5  C   UNL     1       3.104  -3.521   1.162  0.00  0.00    +0.000 A 
ATOM      6  C   UNL     1       2.615  -2.502   0.337  0.00  0.00    +0.000 A 
ENDROOT
BRANCH   1   7
ATOM      7  C   UNL     1       1.836  -0.118  -0.018  0.00  0.00    +0.000 C 
BRANCH   7   8
ATOM      8  N   UNL     1       2.720   1.043  -0.003  0.00  0.00    +0.000 NA
ATOM      9  H   UNL     1       2.397   1.719  -0.692  0.00  0.00    +0.000 HD
ATOM     10  H   UNL     1       3.650   0.749  -0.299  0.00  0.00    +0.000 HD
ENDBRANCH   7   8
ENDBRANCH   1   7
BRANCH   4  11
ATOM     11  O   UNL     1       3.837  -4.355   3.217  0.00  0.00    +0.000 OA
BRANCH  11  12
ATOM     12  C   UNL     1       4.060  -4.135   4.617  0.00  0.00    +0.000 C 
BRANCH  12  13
ATOM     13  C   UNL     1       4.495  -5.458   5.290  0.00  0.00    +0.000 C 
ATOM     14  C   UNL     1       3.472  -6.590   5.100  0.00  0.00    +0.000 C 
ATOM     15  C   UNL     1       2.164  -6.319   5.841  0.00  0.00    +0.000 C 
ATOM     16  C   UNL     1       2.400  -6.040   7.324  0.00  0.00    +0.000 C 
ATOM     17  C   UNL     1       3.466  -4.974   7.574  0.00  0.00    +0.000 C 
ATOM     18  C   UNL     1       4.749  -5.245   6.791  0.00  0.00    +0.000 C 
BRANCH  13  19
ATOM     19  O   UNL     1       5.732  -5.878   4.695  0.00  0.00    +0.000 OA
ATOM     20  H   UNL     1       5.611  -5.802   3.729  0.00  0.00    +0.000 HD
ENDBRANCH  13  19
ENDBRANCH  12  13
ENDBRANCH  11  12
ENDBRANCH   4  11
TORSDOF 6
