REMARK  Name = 
REMARK  5 active torsions:
REMARK  status: ('A' for Active; 'I' for Inactive)
REMARK    1  A    between atoms: C_2  and  C_3
REMARK    2  A    between atoms: N_7  and  C_8
REMARK    3  A    between atoms: C_8  and  C_9
REMARK    4  A    between atoms: C_9  and  C_12
REMARK    5  A    between atoms: C_16  and  C_17
REMARK                            x       y       z     vdW  Elec       q    Type
REMARK                         _______ _______ _______ _____ _____    ______ ____
ROOT
ATOM      1  C   UNL     1      -4.378   1.327  -0.165  0.00  0.00    +0.000 C 
ENDROOT
BRANCH   1   6
ATOM      2  C   UNL     1       0.537  -0.025   0.254  0.00  0.00    +0.000 A 
ATOM      3  C   UNL     1      -0.080   1.211   0.149  0.00  0.00    +0.000 A 
ATOM      4  C   UNL     1      -1.469   1.270   0.051  0.00  0.00    +0.000 A 
ATOM      5  C   UNL     1      -2.223   0.096   0.040  0.00  0.00    +0.000 A 
ATOM      6  N   UNL     1      -3.592   0.097  -0.076  0.00  0.00    +0.000 N 
ATOM      7  N   UNL     1      -1.628  -1.107   0.144  0.00  0.00    +0.000 NA
ATOM      8  C   UNL     1      -0.275  -1.148   0.256  0.00  0.00    +0.000 A 
ATOM      9  H   UNL     1      -4.028  -0.816  -0.147  0.00  0.00    +0.000 HD
BRANCH   2  11
ATOM     10  N   UNL     1       3.113  -0.206   0.424  0.00  0.00    +0.000 NA
ATOM     11  C   UNL     1       1.958  -0.137   0.351  0.00  0.00    +0.000 C 
ENDBRANCH   2  11
ENDBRANCH   1   6
BRANCH   1  12
ATOM     12  C   UNL     1      -5.913   1.146  -0.265  0.00  0.00    +0.000 C 
ATOM     13  F   UNL     1      -6.198   0.417  -1.382  0.00  0.00    +0.000 F 
ATOM     14  F   UNL     1      -6.332   0.379   0.786  0.00  0.00    +0.000 F 
BRANCH  12  15
ATOM     15  C   UNL     1      -6.606   2.506  -0.278  0.00  0.00    +0.000 A 
ATOM     16  C   UNL     1      -6.988   3.109   0.932  0.00  0.00    +0.000 A 
ATOM     17  C   UNL     1      -7.626   4.351   0.944  0.00  0.00    +0.000 A 
ATOM     18  C   UNL     1      -7.884   5.016  -0.254  0.00  0.00    +0.000 A 
ATOM     19  C   UNL     1      -7.500   4.440  -1.472  0.00  0.00    +0.000 A 
ATOM     20  C   UNL     1      -6.864   3.191  -1.480  0.00  0.00    +0.000 A 
BRANCH  19  21
ATOM     21  C   UNL     1      -7.753   5.132  -2.706  0.00  0.00    +0.000 C 
ATOM     22  N   UNL     1      -7.944   5.689  -3.703  0.00  0.00    +0.000 NA
ENDBRANCH  19  21
ENDBRANCH  12  15
ENDBRANCH   1  12
TORSDOF 5
