REMARK  Name = 
REMARK  5 active torsions:
REMARK  status: ('A' for Active; 'I' for Inactive)
REMARK    1  A    between atoms: C_2  and  C_4
REMARK    2  A    between atoms: C_7  and  O_8
REMARK    3  A    between atoms: O_8  and  C_9
REMARK    4  A    between atoms: C_9  and  C_10
REMARK    5  A    between atoms: C_14  and  C_15
REMARK                            x       y       z     vdW  Elec       q    Type
REMARK                         _______ _______ _______ _____ _____    ______ ____
ROOT
ATOM      1  C   UNL     1       5.128  -4.834  -3.593  0.00  0.00    +0.000 C 
ENDROOT
BRANCH   1   2
ATOM      2  C   UNL     1       6.061  -5.979  -3.921  0.00  0.00    +0.000 A 
ATOM      3  C   UNL     1       7.348  -5.742  -4.393  0.00  0.00    +0.000 A 
ATOM      4  C   UNL     1       8.156  -6.824  -4.713  0.00  0.00    +0.000 A 
ATOM      5  C   UNL     1       7.660  -8.113  -4.559  0.00  0.00    +0.000 A 
ATOM      6  C   UNL     1       6.362  -8.294  -4.084  0.00  0.00    +0.000 A 
ATOM      7  N   UNL     1       5.565  -7.236  -3.778  0.00  0.00    +0.000 NA
BRANCH   6   8
ATOM      8  C   UNL     1       5.774  -9.629  -3.850  0.00  0.00    +0.000 A 
ATOM      9  C   UNL     1       4.789  -9.817  -2.859  0.00  0.00    +0.000 A 
ATOM     10  C   UNL     1       4.222 -11.072  -2.613  0.00  0.00    +0.000 A 
ATOM     11  C   UNL     1       4.630 -12.172  -3.359  0.00  0.00    +0.000 A 
ATOM     12  C   UNL     1       5.599 -12.005  -4.338  0.00  0.00    +0.000 A 
ATOM     13  F   UNL     1       5.996 -13.061  -5.061  0.00  0.00    +0.000 F 
ATOM     14  C   UNL     1       6.168 -10.759  -4.587  0.00  0.00    +0.000 A 
ENDBRANCH   6   8
ENDBRANCH   1   2
BRANCH   1  15
ATOM     15  O   UNL     1       5.870  -3.713  -3.103  0.00  0.00    +0.000 OA
BRANCH  15  19
ATOM     16  C   UNL     1       3.958  -0.172  -2.021  0.00  0.00    +0.000 A 
ATOM     17  C   UNL     1       3.174  -1.243  -2.473  0.00  0.00    +0.000 A 
ATOM     18  C   UNL     1       3.777  -2.448  -2.848  0.00  0.00    +0.000 A 
ATOM     19  C   UNL     1       5.163  -2.591  -2.774  0.00  0.00    +0.000 A 
ATOM     20  C   UNL     1       5.944  -1.517  -2.336  0.00  0.00    +0.000 A 
ATOM     21  C   UNL     1       5.348  -0.310  -1.967  0.00  0.00    +0.000 A 
BRANCH  16  23
ATOM     22  N   UNL     1       2.084   1.088  -1.120  0.00  0.00    +0.000 N 
ATOM     23  C   UNL     1       3.354   1.123  -1.624  0.00  0.00    +0.000 C 
ATOM     24  O   UNL     1       3.974   2.175  -1.706  0.00  0.00    +0.000 OA
ATOM     25  H   UNL     1       1.729   1.960  -0.749  0.00  0.00    +0.000 HD
ATOM     26  H   UNL     1       1.655   0.233  -0.797  0.00  0.00    +0.000 HD
ENDBRANCH  16  23
ENDBRANCH  15  19
ENDBRANCH   1  15
TORSDOF 5
