REMARK  Name = 
REMARK  3 active torsions:
REMARK  status: ('A' for Active; 'I' for Inactive)
REMARK    1  A    between atoms: C_2  and  C_4
REMARK    2  A    between atoms: N_8  and  C_9
REMARK    3  A    between atoms: C_9  and  C_10
REMARK                            x       y       z     vdW  Elec       q    Type
REMARK                         _______ _______ _______ _____ _____    ______ ____
ROOT
ATOM      1  C   UNL     1       3.293  -1.555   2.677  0.00  0.00    +0.000 A 
ATOM      2  C   UNL     1       2.504  -2.602   2.238  0.00  0.00    +0.000 A 
ATOM      3  C   UNL     1       3.126  -3.669   1.588  0.00  0.00    +0.000 A 
ATOM      4  C   UNL     1       4.498  -3.644   1.392  0.00  0.00    +0.000 A 
ATOM      5  N   UNL     1       5.186  -4.599   0.632  0.00  0.00    +0.000 N 
ATOM      6  N   UNL     1       5.228  -2.602   1.857  0.00  0.00    +0.000 NA
ATOM      7  N   UNL     1       4.631  -1.549   2.509  0.00  0.00    +0.000 NA
ATOM      8  H   UNL     1       6.172  -4.348   0.704  0.00  0.00    +0.000 HD
ENDROOT
BRANCH   1  10
ATOM      9  N   UNL     1       3.547   0.658   3.652  0.00  0.00    +0.000 N 
ATOM     10  C   UNL     1       2.686  -0.354   3.324  0.00  0.00    +0.000 C 
ATOM     11  O   UNL     1       1.486  -0.271   3.537  0.00  0.00    +0.000 OA
ATOM     12  H   UNL     1       3.175   1.501   4.070  0.00  0.00    +0.000 HD
ATOM     13  H   UNL     1       4.537   0.594   3.447  0.00  0.00    +0.000 HD
ENDBRANCH   1  10
BRANCH   5  14
ATOM     14  C   UNL     1       4.916  -6.048   0.662  0.00  0.00    +0.000 C 
ATOM     15  C   UNL     1       4.986  -6.707  -0.710  0.00  0.00    +0.000 C 
ATOM     16  C   UNL     1       3.697  -6.695   0.040  0.00  0.00    +0.000 C 
BRANCH  14  17
ATOM     17  C   UNL     1       5.571  -6.734   1.858  0.00  0.00    +0.000 A 
ATOM     18  C   UNL     1       6.876  -7.251   1.789  0.00  0.00    +0.000 A 
ATOM     19  C   UNL     1       7.540  -7.711   2.931  0.00  0.00    +0.000 A 
ATOM     20  C   UNL     1       6.910  -7.665   4.175  0.00  0.00    +0.000 A 
ATOM     21 CL   UNL     1       7.820  -8.152   5.559  0.00  0.00    +0.000 Cl
ATOM     22  C   UNL     1       5.594  -7.205   4.263  0.00  0.00    +0.000 A 
ATOM     23 CL   UNL     1       4.741  -7.117   5.763  0.00  0.00    +0.000 Cl
ATOM     24  C   UNL     1       4.933  -6.758   3.112  0.00  0.00    +0.000 A 
ENDBRANCH  14  17
ENDBRANCH   5  14
TORSDOF 3
