REMARK  Name = 
REMARK  6 active torsions:
REMARK  status: ('A' for Active; 'I' for Inactive)
REMARK    1  A    between atoms: C_2  and  C_19
REMARK    2  A    between atoms: N_3  and  C_4
REMARK    3  A    between atoms: C_4  and  C_5
REMARK    4  A    between atoms: C_8  and  C_9
REMARK    5  A    between atoms: C_9  and  C_10
REMARK    6  A    between atoms: C_10  and  C_11
REMARK                            x       y       z     vdW  Elec       q    Type
REMARK                         _______ _______ _______ _____ _____    ______ ____
ROOT
ATOM      1  O   UNL     1       0.805  -0.526  -0.210  0.00  0.00    +0.000 OA
ATOM      2  C   UNL     1       1.850  -1.012  -0.635  0.00  0.00    +0.000 C 
ATOM      3  N   UNL     1       2.618  -1.865   0.120  0.00  0.00    +0.000 N 
ATOM      4  H   UNL     1       3.587  -2.007  -0.146  0.00  0.00    +0.000 HD
ENDROOT
BRANCH   2   5
ATOM      5  C   UNL     1       2.321  -0.738  -1.995  0.00  0.00    +0.000 A 
ATOM      6  C   UNL     1       1.420  -0.411  -2.999  0.00  0.00    +0.000 A 
ATOM      7  S   UNL     1       2.162  -0.107  -4.505  0.00  0.00    +0.000 S 
ATOM      8  C   UNL     1       3.713  -0.372  -3.857  0.00  0.00    +0.000 A 
ATOM      9  N   UNL     1       4.832  -0.232  -4.622  0.00  0.00    +0.000 NA
ATOM     10  C   UNL     1       5.939  -0.419  -3.984  0.00  0.00    +0.000 A 
ATOM     11  N   UNL     1       6.031  -0.744  -2.657  0.00  0.00    +0.000 N 
ATOM     12  C   UNL     1       4.931  -0.963  -1.865  0.00  0.00    +0.000 A 
ATOM     13  O   UNL     1       5.045  -1.371  -0.717  0.00  0.00    +0.000 OA
ATOM     14  C   UNL     1       3.663  -0.717  -2.519  0.00  0.00    +0.000 A 
ATOM     15  H   UNL     1       6.928  -0.910  -2.221  0.00  0.00    +0.000 HD
ENDBRANCH   2   5
BRANCH   3  16
ATOM     16  C   UNL     1       2.308  -2.057   1.518  0.00  0.00    +0.000 C 
BRANCH  16  17
ATOM     17  C   UNL     1       3.237  -3.024   2.200  0.00  0.00    +0.000 A 
ATOM     18  C   UNL     1       2.995  -4.391   2.151  0.00  0.00    +0.000 A 
ATOM     19  N   UNL     1       3.786  -5.304   2.764  0.00  0.00    +0.000 NA
ATOM     20  C   UNL     1       4.863  -4.815   3.427  0.00  0.00    +0.000 A 
ATOM     21  C   UNL     1       5.106  -3.447   3.476  0.00  0.00    +0.000 A 
ATOM     22  N   UNL     1       4.316  -2.532   2.862  0.00  0.00    +0.000 NA
BRANCH  20  23
ATOM     23  C   UNL     1       5.751  -5.783   4.170  0.00  0.00    +0.000 C 
BRANCH  23  24
ATOM     24  C   UNL     1       5.811  -7.161   3.500  0.00  0.00    +0.000 C 
BRANCH  24  25
ATOM     25  C   UNL     1       6.695  -8.131   4.243  0.00  0.00    +0.000 A 
ATOM     26  C   UNL     1       6.160  -8.942   5.247  0.00  0.00    +0.000 A 
ATOM     27  C   UNL     1       6.999  -9.829   5.907  0.00  0.00    +0.000 A 
ATOM     28  N   UNL     1       8.314  -9.956   5.639  0.00  0.00    +0.000 NA
ATOM     29  C   UNL     1       8.812  -9.163   4.666  0.00  0.00    +0.000 A 
ATOM     30  C   UNL     1       8.059  -8.246   3.947  0.00  0.00    +0.000 A 
ENDBRANCH  24  25
ENDBRANCH  23  24
ENDBRANCH  20  23
ENDBRANCH  16  17
ENDBRANCH   3  16
TORSDOF 6
