REMARK  Name = 
REMARK  11 active torsions:
REMARK  status: ('A' for Active; 'I' for Inactive)
REMARK    1  A    between atoms: C_1  and  C_2
REMARK    2  A    between atoms: C_2  and  C_3
REMARK    3  A    between atoms: C_3  and  N_4
REMARK    4  A    between atoms: C_3  and  C_21
REMARK    5  A    between atoms: N_4  and  C_5
REMARK    6  A    between atoms: C_5  and  C_6
REMARK    7  A    between atoms: C_9  and  C_10
REMARK    8  A    between atoms: C_10  and  O_11
REMARK    9  A    between atoms: C_10  and  C_12
REMARK   10  A    between atoms: C_12  and  C_13
REMARK   11  A    between atoms: C_21  and  C_23
REMARK                            x       y       z     vdW  Elec       q    Type
REMARK                         _______ _______ _______ _____ _____    ______ ____
ROOT
ATOM      1  N   UNL     1       2.434   2.135  -1.146  0.00  0.00    +0.000 NA
ATOM      2  H   UNL     1       2.776   2.725  -1.902  0.00  0.00    +0.000 HD
ENDROOT
BRANCH   1   3
ATOM      3  C   UNL     1       3.022   0.783  -1.281  0.00  0.00    +0.000 C 
BRANCH   3   5
ATOM      4  C   UNL     1       3.092   0.801  -3.889  0.00  0.00    +0.000 C 
ATOM      5  C   UNL     1       2.704   0.065  -2.612  0.00  0.00    +0.000 C 
ENDBRANCH   3   5
BRANCH   3   6
ATOM      6  C   UNL     1       2.704  -0.157  -0.071  0.00  0.00    +0.000 C 
ATOM      7  O   UNL     1       2.065  -1.194  -0.239  0.00  0.00    +0.000 OA
BRANCH   6   8
ATOM      8  C   UNL     1       3.139   0.213   1.291  0.00  0.00    +0.000 A 
ATOM      9  C   UNL     1       3.279   1.523   1.734  0.00  0.00    +0.000 A 
ATOM     10  S   UNL     1       3.516   1.646   3.419  0.00  0.00    +0.000 S 
ATOM     11  C   UNL     1       3.501  -0.045   3.602  0.00  0.00    +0.000 A 
ATOM     12  N   UNL     1       3.584  -0.620   4.829  0.00  0.00    +0.000 NA
ATOM     13  C   UNL     1       3.577  -1.912   4.807  0.00  0.00    +0.000 A 
ATOM     14  N   UNL     1       3.539  -2.677   3.667  0.00  0.00    +0.000 N 
ATOM     15  C   UNL     1       3.580  -2.132   2.400  0.00  0.00    +0.000 A 
ATOM     16  O   UNL     1       3.851  -2.816   1.418  0.00  0.00    +0.000 OA
ATOM     17  C   UNL     1       3.417  -0.689   2.383  0.00  0.00    +0.000 A 
ATOM     18  H   UNL     1       3.657  -3.678   3.721  0.00  0.00    +0.000 HD
ENDBRANCH   6   8
ENDBRANCH   3   6
ENDBRANCH   1   3
BRANCH   1  19
ATOM     19  C   UNL     1       0.974   2.201  -1.107  0.00  0.00    +0.000 C 
BRANCH  19  20
ATOM     20  C   UNL     1       0.502   3.624  -0.904  0.00  0.00    +0.000 A 
ATOM     21  C   UNL     1       0.819   4.659  -1.792  0.00  0.00    +0.000 A 
ATOM     22  C   UNL     1       0.313   5.942  -1.580  0.00  0.00    +0.000 A 
ATOM     23  C   UNL     1      -0.509   6.170  -0.482  0.00  0.00    +0.000 A 
ATOM     24  N   UNL     1      -0.849   5.177   0.377  0.00  0.00    +0.000 NA
ATOM     25  C   UNL     1      -0.323   3.950   0.166  0.00  0.00    +0.000 A 
BRANCH  23  26
ATOM     26  C   UNL     1      -1.154   7.528  -0.264  0.00  0.00    +0.000 C 
BRANCH  26  27
ATOM     27  O   UNL     1      -2.385   7.558  -0.997  0.00  0.00    +0.000 OA
ATOM     28  H   UNL     1      -2.824   6.704  -0.832  0.00  0.00    +0.000 HD
ENDBRANCH  26  27
BRANCH  26  29
ATOM     29  C   UNL     1      -1.422   7.793   1.234  0.00  0.00    +0.000 C 
BRANCH  29  30
ATOM     30  C   UNL     1      -2.029   9.126   1.602  0.00  0.00    +0.000 A 
ATOM     31  C   UNL     1      -2.280   9.407   2.953  0.00  0.00    +0.000 A 
ATOM     32  C   UNL     1      -2.875  10.610   3.311  0.00  0.00    +0.000 A 
ATOM     33  C   UNL     1      -3.197  11.506   2.308  0.00  0.00    +0.000 A 
ATOM     34  N   UNL     1      -2.965  11.282   1.000  0.00  0.00    +0.000 NA
ATOM     35  C   UNL     1      -2.395  10.099   0.677  0.00  0.00    +0.000 A 
ENDBRANCH  29  30
ENDBRANCH  26  29
ENDBRANCH  23  26
ENDBRANCH  19  20
ENDBRANCH   1  19
TORSDOF 10
