REMARK  Name = 
REMARK  10 active torsions:
REMARK  status: ('A' for Active; 'I' for Inactive)
REMARK    1  A    between atoms: C_1  and  C_2
REMARK    2  A    between atoms: C_2  and  N_3
REMARK    3  A    between atoms: C_2  and  C_19
REMARK    4  A    between atoms: N_3  and  C_4
REMARK    5  A    between atoms: C_4  and  C_5
REMARK    6  A    between atoms: C_8  and  C_9
REMARK    7  A    between atoms: C_9  and  O_10
REMARK    8  A    between atoms: C_9  and  C_11
REMARK    9  A    between atoms: C_11  and  N_12
REMARK   10  A    between atoms: C_19  and  C_21
REMARK                            x       y       z     vdW  Elec       q    Type
REMARK                         _______ _______ _______ _____ _____    ______ ____
ROOT
ATOM      1  N   UNL     1       1.051  -1.134  -2.168  0.00  0.00    +0.000 NA
ATOM      2  H   UNL     1       0.702  -1.074  -3.129  0.00  0.00    +0.000 HD
ENDROOT
BRANCH   1   4
ATOM      3  C   UNL     1       3.024  -2.368  -2.879  0.00  0.00    +0.000 C 
ATOM      4  C   UNL     1       2.527  -1.095  -2.198  0.00  0.00    +0.000 C 
BRANCH   4   5
ATOM      5  C   UNL     1       3.035   0.145  -2.971  0.00  0.00    +0.000 C 
ATOM      6  O   UNL     1       2.482   0.514  -4.008  0.00  0.00    +0.000 OA
BRANCH   5   7
ATOM      7  C   UNL     1       4.213   0.853  -2.455  0.00  0.00    +0.000 A 
ATOM      8  C   UNL     1       5.249   0.221  -1.787  0.00  0.00    +0.000 A 
ATOM      9  S   UNL     1       6.561   1.262  -1.449  0.00  0.00    +0.000 S 
ATOM     10  C   UNL     1       5.772   2.585  -2.171  0.00  0.00    +0.000 A 
ATOM     11  N   UNL     1       6.376   3.797  -2.272  0.00  0.00    +0.000 NA
ATOM     12  C   UNL     1       5.657   4.700  -2.856  0.00  0.00    +0.000 A 
ATOM     13  N   UNL     1       4.376   4.509  -3.310  0.00  0.00    +0.000 N 
ATOM     14  C   UNL     1       3.674   3.343  -3.093  0.00  0.00    +0.000 A 
ATOM     15  O   UNL     1       2.456   3.297  -3.222  0.00  0.00    +0.000 OA
ATOM     16  C   UNL     1       4.495   2.258  -2.589  0.00  0.00    +0.000 A 
ATOM     17  H   UNL     1       3.836   5.288  -3.657  0.00  0.00    +0.000 HD
ENDBRANCH   5   7
ENDBRANCH   4   5
ENDBRANCH   1   4
BRANCH   1  18
ATOM     18  C   UNL     1       0.494  -0.005  -1.421  0.00  0.00    +0.000 C 
BRANCH  18  19
ATOM     19  C   UNL     1      -1.010  -0.059  -1.429  0.00  0.00    +0.000 A 
ATOM     20  C   UNL     1      -1.687  -1.118  -0.814  0.00  0.00    +0.000 A 
ATOM     21  C   UNL     1      -3.080  -1.180  -0.847  0.00  0.00    +0.000 A 
ATOM     22  C   UNL     1      -3.826  -0.185  -1.497  0.00  0.00    +0.000 A 
ATOM     23  C   UNL     1      -3.141   0.874  -2.112  0.00  0.00    +0.000 A 
ATOM     24  C   UNL     1      -1.749   0.937  -2.077  0.00  0.00    +0.000 A 
BRANCH  22  25
ATOM     25  C   UNL     1      -5.335  -0.297  -1.551  0.00  0.00    +0.000 C 
BRANCH  25  26
ATOM     26  O   UNL     1      -5.937   0.856  -0.946  0.00  0.00    +0.000 OA
ATOM     27  H   UNL     1      -5.486   1.639  -1.300  0.00  0.00    +0.000 HD
ENDBRANCH  25  26
BRANCH  25  28
ATOM     28  C   UNL     1      -5.900  -0.453  -2.991  0.00  0.00    +0.000 C 
BRANCH  28  29
ATOM     29  N   UNL     1      -5.451  -1.641  -3.744  0.00  0.00    +0.000 NA
ATOM     30  C   UNL     1      -5.969  -1.618  -5.122  0.00  0.00    +0.000 C 
ATOM     31  C   UNL     1      -7.352  -2.230  -5.015  0.00  0.00    +0.000 C 
ATOM     32  C   UNL     1      -7.149  -3.339  -4.001  0.00  0.00    +0.000 C 
ATOM     33  C   UNL     1      -5.949  -2.901  -3.167  0.00  0.00    +0.000 C 
ENDBRANCH  28  29
ENDBRANCH  25  28
ENDBRANCH  22  25
ENDBRANCH  18  19
ENDBRANCH   1  18
TORSDOF 9
