REMARK  Name = 
REMARK  4 active torsions:
REMARK  status: ('A' for Active; 'I' for Inactive)
REMARK    1  A    between atoms: C_2  and  C_4
REMARK    2  A    between atoms: N_8  and  C_9
REMARK    3  A    between atoms: C_9  and  C_10
REMARK    4  A    between atoms: C_14  and  C_15
REMARK                            x       y       z     vdW  Elec       q    Type
REMARK                         _______ _______ _______ _____ _____    ______ ____
ROOT
ATOM      1  C   UNL     1       5.121   4.503   3.729  0.00  0.00    +0.000 C 
ENDROOT
BRANCH   1   6
ATOM      2  C   UNL     1       2.946   2.646   8.023  0.00  0.00    +0.000 A 
ATOM      3  C   UNL     1       2.756   3.854   7.364  0.00  0.00    +0.000 A 
ATOM      4  C   UNL     1       3.485   4.117   6.204  0.00  0.00    +0.000 A 
ATOM      5  C   UNL     1       4.398   3.179   5.730  0.00  0.00    +0.000 A 
ATOM      6  N   UNL     1       5.107   3.335   4.573  0.00  0.00    +0.000 N 
ATOM      7  N   UNL     1       4.610   2.018   6.383  0.00  0.00    +0.000 NA
ATOM      8  C   UNL     1       3.894   1.775   7.511  0.00  0.00    +0.000 A 
ATOM      9  H   UNL     1       5.794   2.607   4.425  0.00  0.00    +0.000 HD
BRANCH   2  11
ATOM     10  N   UNL     1       0.960   2.849   9.402  0.00  0.00    +0.000 N 
ATOM     11  C   UNL     1       2.196   2.285   9.242  0.00  0.00    +0.000 C 
ATOM     12  O   UNL     1       2.645   1.491  10.059  0.00  0.00    +0.000 OA
ATOM     13  H   UNL     1       0.418   2.540  10.199  0.00  0.00    +0.000 HD
ATOM     14  H   UNL     1       0.465   3.304   8.647  0.00  0.00    +0.000 HD
ENDBRANCH   2  11
ENDBRANCH   1   6
BRANCH   1  15
ATOM     15  C   UNL     1       6.042   5.580   4.248  0.00  0.00    +0.000 A 
ATOM     16  C   UNL     1       7.281   5.288   4.818  0.00  0.00    +0.000 A 
ATOM     17  C   UNL     1       8.078   6.336   5.243  0.00  0.00    +0.000 A 
ATOM     18  N   UNL     1       7.732   7.637   5.138  0.00  0.00    +0.000 NA
ATOM     19  C   UNL     1       6.528   7.930   4.589  0.00  0.00    +0.000 A 
ATOM     20  C   UNL     1       5.679   6.927   4.117  0.00  0.00    +0.000 A 
BRANCH  19  21
ATOM     21  C   UNL     1       6.169   9.363   4.548  0.00  0.00    +0.000 A 
ATOM     22  C   UNL     1       7.161  10.358   4.432  0.00  0.00    +0.000 A 
ATOM     23  C   UNL     1       6.836  11.719   4.414  0.00  0.00    +0.000 A 
ATOM     24  C   UNL     1       5.506  12.116   4.514  0.00  0.00    +0.000 A 
ATOM     25  C   UNL     1       4.519  11.150   4.632  0.00  0.00    +0.000 A 
ATOM     26  F   UNL     1       3.237  11.523   4.737  0.00  0.00    +0.000 F 
ATOM     27  C   UNL     1       4.834   9.794   4.652  0.00  0.00    +0.000 A 
ENDBRANCH  19  21
ENDBRANCH   1  15
TORSDOF 4
