REMARK  Name = 
REMARK  7 active torsions:
REMARK  status: ('A' for Active; 'I' for Inactive)
REMARK    1  A    between atoms: C_1  and  C_2
REMARK    2  A    between atoms: C_2  and  N_3
REMARK    3  A    between atoms: C_2  and  C_11
REMARK    4  A    between atoms: C_4  and  C_6
REMARK    5  A    between atoms: C_14  and  C_15
REMARK    6  A    between atoms: C_15  and  N_16
REMARK    7  A    between atoms: C_17  and  C_19
REMARK                            x       y       z     vdW  Elec       q    Type
REMARK                         _______ _______ _______ _____ _____    ______ ____
ROOT
ATOM      1  C   UNL     1       2.832   1.154   1.010  0.00  0.00    +0.000 A 
ATOM      2  C   UNL     1       2.751   2.510   0.655  0.00  0.00    +0.000 A 
ATOM      3  C   UNL     1       3.061   3.516   1.577  0.00  0.00    +0.000 A 
ATOM      4  C   UNL     1       3.478   3.188   2.872  0.00  0.00    +0.000 A 
ATOM      5  C   UNL     1       3.574   1.837   3.226  0.00  0.00    +0.000 A 
ATOM      6  C   UNL     1       3.270   0.833   2.303  0.00  0.00    +0.000 A 
ENDROOT
BRANCH   1   8
ATOM      7  C   UNL     1       1.761  -1.123   0.570  0.00  0.00    +0.000 C 
ATOM      8  C   UNL     1       2.479   0.094  -0.022  0.00  0.00    +0.000 C 
BRANCH   8   9
ATOM      9  N   UNL     1       3.680  -0.294  -0.742  0.00  0.00    +0.000 N 
ATOM     10  C   UNL     1       3.649  -0.713  -2.050  0.00  0.00    +0.000 C 
ATOM     11  O   UNL     1       2.604  -0.837  -2.683  0.00  0.00    +0.000 OA
ATOM     12  H   UNL     1       4.558  -0.255  -0.250  0.00  0.00    +0.000 HD
BRANCH  10  13
ATOM     13  C   UNL     1       4.934  -0.989  -2.640  0.00  0.00    +0.000 A 
ATOM     14  C   UNL     1       6.236  -0.870  -2.192  0.00  0.00    +0.000 A 
ATOM     15  C   UNL     1       7.037  -1.299  -3.269  0.00  0.00    +0.000 A 
ATOM     16  N   UNL     1       6.312  -1.662  -4.324  0.00  0.00    +0.000 NA
ATOM     17  N   UNL     1       5.045  -1.455  -3.925  0.00  0.00    +0.000 N 
ATOM     18  H   UNL     1       4.285  -1.647  -4.571  0.00  0.00    +0.000 HD
ENDBRANCH  10  13
ENDBRANCH   8   9
ENDBRANCH   1   8
BRANCH   4  19
ATOM     19  C   UNL     1       3.750   4.261   3.894  0.00  0.00    +0.000 C 
BRANCH  19  20
ATOM     20  N   UNL     1       2.548   4.582   4.621  0.00  0.00    +0.000 N 
ATOM     21  C   UNL     1       2.515   5.593   5.544  0.00  0.00    +0.000 C 
ATOM     22  O   UNL     1       3.495   6.299   5.771  0.00  0.00    +0.000 OA
ATOM     23  H   UNL     1       1.808   3.887   4.613  0.00  0.00    +0.000 HD
BRANCH  21  24
ATOM     24  C   UNL     1       1.225   5.834   6.203  0.00  0.00    +0.000 A 
ATOM     25  C   UNL     1       0.960   7.080   6.757  0.00  0.00    +0.000 A 
ATOM     26  S   UNL     1      -0.603   7.212   7.427  0.00  0.00    +0.000 S 
ATOM     27  C   UNL     1      -0.963   5.594   7.046  0.00  0.00    +0.000 A 
ATOM     28  N   UNL     1      -2.166   5.050   7.372  0.00  0.00    +0.000 NA
ATOM     29  C   UNL     1      -2.296   3.807   7.051  0.00  0.00    +0.000 A 
ATOM     30  N   UNL     1      -1.329   3.056   6.430  0.00  0.00    +0.000 N 
ATOM     31  C   UNL     1      -0.109   3.569   6.059  0.00  0.00    +0.000 A 
ATOM     32  O   UNL     1       0.719   2.879   5.471  0.00  0.00    +0.000 OA
ATOM     33  C   UNL     1       0.089   4.963   6.404  0.00  0.00    +0.000 A 
ATOM     34  H   UNL     1      -1.496   2.088   6.200  0.00  0.00    +0.000 HD
ENDBRANCH  21  24
ENDBRANCH  19  20
ENDBRANCH   4  19
TORSDOF 6
