REMARK  Name = 
REMARK  5 active torsions:
REMARK  status: ('A' for Active; 'I' for Inactive)
REMARK    1  A    between atoms: C_2  and  C_4
REMARK    2  A    between atoms: C_8  and  C_9
REMARK    3  A    between atoms: C_9  and  S_10
REMARK    4  A    between atoms: S_10  and  C_11
REMARK    5  A    between atoms: C_15  and  N_16
REMARK                            x       y       z     vdW  Elec       q    Type
REMARK                         _______ _______ _______ _____ _____    ______ ____
ROOT
ATOM      1  S   UNL     1       7.388   3.821   2.120  0.00  0.00    +0.000 S 
ENDROOT
BRANCH   1   2
ATOM      2  C   UNL     1       9.062   4.097   1.584  0.00  0.00    +0.000 A 
ATOM      3  C   UNL     1       9.907   3.014   1.389  0.00  0.00    +0.000 A 
ATOM      4  N   UNL     1      11.199   3.154   1.024  0.00  0.00    +0.000 NA
ATOM      5  C   UNL     1      11.604   4.440   0.860  0.00  0.00    +0.000 A 
ATOM      6  C   UNL     1      10.789   5.565   1.049  0.00  0.00    +0.000 A 
ATOM      7  N   UNL     1       9.497   5.369   1.419  0.00  0.00    +0.000 NA
BRANCH   6   8
ATOM      8  N   UNL     1      11.211   6.858   0.780  0.00  0.00    +0.000 N 
ATOM      9  C   UNL     1      10.291   7.955   1.135  0.00  0.00    +0.000 C 
ATOM     10  C   UNL     1      10.609   9.180   0.261  0.00  0.00    +0.000 C 
ATOM     11  O   UNL     1      11.987   9.575   0.373  0.00  0.00    +0.000 OA
ATOM     12  C   UNL     1      12.848   8.493  -0.016  0.00  0.00    +0.000 C 
ATOM     13  C   UNL     1      12.626   7.255   0.870  0.00  0.00    +0.000 C 
ENDBRANCH   6   8
ENDBRANCH   1   2
BRANCH   1  14
ATOM     14  C   UNL     1       6.567   5.298   1.437  0.00  0.00    +0.000 C 
BRANCH  14  19
ATOM     15  C   UNL     1       2.800   4.621   1.480  0.00  0.00    +0.000 A 
ATOM     16  C   UNL     1       2.413   5.288   2.647  0.00  0.00    +0.000 A 
ATOM     17  C   UNL     1       3.364   5.979   3.399  0.00  0.00    +0.000 A 
ATOM     18  C   UNL     1       4.700   5.999   2.994  0.00  0.00    +0.000 A 
ATOM     19  C   UNL     1       5.107   5.324   1.833  0.00  0.00    +0.000 A 
ATOM     20  C   UNL     1       4.144   4.633   1.081  0.00  0.00    +0.000 A 
BRANCH  15  22
ATOM     21  N   UNL     1       0.505   4.209   0.745  0.00  0.00    +0.000 N 
ATOM     22  C   UNL     1       1.822   3.851   0.657  0.00  0.00    +0.000 C 
ATOM     23  O   UNL     1       2.179   2.955  -0.095  0.00  0.00    +0.000 OA
ATOM     24  H   UNL     1      -0.128   3.737   0.112  0.00  0.00    +0.000 HD
ATOM     25  H   UNL     1       0.200   5.079   1.153  0.00  0.00    +0.000 HD
ENDBRANCH  15  22
ENDBRANCH  14  19
ENDBRANCH   1  14
TORSDOF 5
