REMARK  Name = 
REMARK  8 active torsions:
REMARK  status: ('A' for Active; 'I' for Inactive)
REMARK    1  A    between atoms: C_1  and  N_2
REMARK    2  A    between atoms: N_2  and  C_3
REMARK    3  A    between atoms: N_2  and  C_4
REMARK    4  A    between atoms: C_4  and  C_5
REMARK    5  A    between atoms: C_5  and  C_6
REMARK    6  A    between atoms: C_6  and  O_7
REMARK    7  A    between atoms: C_10  and  C_11
REMARK    8  A    between atoms: C_11  and  N_12
REMARK                            x       y       z     vdW  Elec       q    Type
REMARK                         _______ _______ _______ _____ _____    ______ ____
ROOT
ATOM      1  C   UNL     1       4.594   0.220  -1.423  0.00  0.00    +0.000 C 
ATOM      2  C   UNL     1       5.238  -1.044  -0.796  0.00  0.00    +0.000 C 
ATOM      3  C   UNL     1       6.747  -0.929  -0.561  0.00  0.00    +0.000 C 
ATOM      4  C   UNL     1       7.142   0.296   0.277  0.00  0.00    +0.000 C 
ATOM      5  C   UNL     1       6.563   1.565  -0.369  0.00  0.00    +0.000 C 
ATOM      6  C   UNL     1       5.050   1.479  -0.614  0.00  0.00    +0.000 C 
ENDROOT
BRANCH   1   7
ATOM      7  C   UNL     1       3.028   0.129  -1.290  0.00  0.00    +0.000 C 
BRANCH   7   9
ATOM      8  C   UNL     1       0.866  -0.917  -1.423  0.00  0.00    +0.000 C 
ATOM      9  N   UNL     1       2.280  -1.035  -1.817  0.00  0.00    +0.000 NA
ATOM     10  C   UNL     1       2.337  -1.216  -3.265  0.00  0.00    +0.000 C 
ENDBRANCH   7   9
ENDBRANCH   1   7
BRANCH   1  11
ATOM     11  C   UNL     1       5.058   0.402  -2.890  0.00  0.00    +0.000 C 
BRANCH  11  12
ATOM     12  O   UNL     1       4.441   1.523  -3.518  0.00  0.00    +0.000 OA
ATOM     13  H   UNL     1       3.493   1.335  -3.610  0.00  0.00    +0.000 HD
ENDBRANCH  11  12
ENDBRANCH   1  11
BRANCH   4  14
ATOM     14  C   UNL     1       6.721   0.216   1.762  0.00  0.00    +0.000 C 
BRANCH  14  15
ATOM     15  N   UNL     1       7.209  -0.941   2.498  0.00  0.00    +0.000 N 
ATOM     16  C   UNL     1       8.535  -1.204   2.734  0.00  0.00    +0.000 A 
ATOM     17  C   UNL     1       8.614  -2.334   3.513  0.00  0.00    +0.000 A 
ATOM     18  C   UNL     1       7.289  -2.759   3.799  0.00  0.00    +0.000 A 
ATOM     19  C   UNL     1       6.750  -3.816   4.561  0.00  0.00    +0.000 A 
ATOM     20  C   UNL     1       5.362  -3.950   4.675  0.00  0.00    +0.000 A 
ATOM     21  C   UNL     1       4.518  -3.049   4.035  0.00  0.00    +0.000 A 
ATOM     22 CL   UNL     1       2.811  -3.221   4.200  0.00  0.00    +0.000 Cl
ATOM     23  C   UNL     1       5.024  -1.999   3.264  0.00  0.00    +0.000 A 
ATOM     24  C   UNL     1       6.420  -1.868   3.157  0.00  0.00    +0.000 A 
ENDBRANCH  14  15
ENDBRANCH   4  14
TORSDOF 6
