REMARK  Name = 
REMARK  5 active torsions:
REMARK  status: ('A' for Active; 'I' for Inactive)
REMARK    1  A    between atoms: C_2  and  C_4
REMARK    2  A    between atoms: C_7  and  N_8
REMARK    3  A    between atoms: N_8  and  C_9
REMARK    4  A    between atoms: C_9  and  C_10
REMARK    5  A    between atoms: C_14  and  C_15
REMARK                            x       y       z     vdW  Elec       q    Type
REMARK                         _______ _______ _______ _____ _____    ______ ____
ROOT
ATOM      1  N   UNL     1       5.811  -4.061  -2.336  0.00  0.00    +0.000 N 
ATOM      2  H   UNL     1       4.906  -4.417  -2.637  0.00  0.00    +0.000 HD
ENDROOT
BRANCH   1   6
ATOM      3  C   UNL     1       5.906   0.036  -1.934  0.00  0.00    +0.000 A 
ATOM      4  N   UNL     1       6.940  -0.646  -1.394  0.00  0.00    +0.000 NA
ATOM      5  C   UNL     1       6.868  -1.990  -1.510  0.00  0.00    +0.000 A 
ATOM      6  C   UNL     1       5.831  -2.691  -2.108  0.00  0.00    +0.000 A 
ATOM      7  C   UNL     1       4.850  -1.858  -2.634  0.00  0.00    +0.000 A 
ATOM      8  N   UNL     1       4.846  -0.509  -2.554  0.00  0.00    +0.000 NA
BRANCH   3  10
ATOM      9  N   UNL     1       7.127   2.046  -1.271  0.00  0.00    +0.000 N 
ATOM     10  C   UNL     1       5.990   1.544  -1.865  0.00  0.00    +0.000 C 
ATOM     11  O   UNL     1       5.135   2.302  -2.306  0.00  0.00    +0.000 OA
ATOM     12  H   UNL     1       7.256   3.046  -1.227  0.00  0.00    +0.000 HD
ATOM     13  H   UNL     1       7.848   1.416  -0.937  0.00  0.00    +0.000 HD
ENDBRANCH   3  10
ENDBRANCH   1   6
BRANCH   1  14
ATOM     14  C   UNL     1       6.490  -4.986  -1.432  0.00  0.00    +0.000 C 
BRANCH  14  15
ATOM     15  C   UNL     1       6.874  -6.220  -2.196  0.00  0.00    +0.000 A 
ATOM     16  C   UNL     1       6.434  -7.477  -1.811  0.00  0.00    +0.000 A 
ATOM     17  N   UNL     1       6.761  -8.613  -2.457  0.00  0.00    +0.000 NA
ATOM     18  C   UNL     1       7.568  -8.492  -3.541  0.00  0.00    +0.000 A 
ATOM     19  C   UNL     1       8.097  -7.293  -4.027  0.00  0.00    +0.000 A 
ATOM     20  C   UNL     1       7.726  -6.145  -3.310  0.00  0.00    +0.000 A 
BRANCH  19  21
ATOM     21  C   UNL     1       8.980  -7.235  -5.209  0.00  0.00    +0.000 A 
ATOM     22  C   UNL     1       9.016  -6.126  -6.069  0.00  0.00    +0.000 A 
ATOM     23  C   UNL     1       9.865  -6.106  -7.177  0.00  0.00    +0.000 A 
ATOM     24  C   UNL     1      10.664  -7.209  -7.411  0.00  0.00    +0.000 A 
ATOM     25  N   UNL     1      10.673  -8.300  -6.622  0.00  0.00    +0.000 NA
ATOM     26  C   UNL     1       9.842  -8.283  -5.550  0.00  0.00    +0.000 A 
ENDBRANCH  19  21
ENDBRANCH  14  15
ENDBRANCH   1  14
TORSDOF 5
