REMARK  Name = 
REMARK  8 active torsions:
REMARK  status: ('A' for Active; 'I' for Inactive)
REMARK    1  A    between atoms: C_2  and  C_21
REMARK    2  A    between atoms: N_3  and  C_4
REMARK    3  A    between atoms: C_4  and  C_5
REMARK    4  A    between atoms: C_8  and  C_9
REMARK    5  A    between atoms: C_9  and  C_10
REMARK    6  A    between atoms: C_10  and  O_11
REMARK    7  A    between atoms: C_10  and  C_12
REMARK    8  A    between atoms: C_12  and  C_13
REMARK                            x       y       z     vdW  Elec       q    Type
REMARK                         _______ _______ _______ _____ _____    ______ ____
ROOT
ATOM      1  C   UNL     1       3.042   3.418   1.426  0.00  0.00    +0.000 A 
ATOM      2  N   UNL     1       2.716   4.716   1.271  0.00  0.00    +0.000 NA
ATOM      3  C   UNL     1       3.606   5.617   1.726  0.00  0.00    +0.000 A 
ATOM      4  C   UNL     1       4.803   5.277   2.324  0.00  0.00    +0.000 A 
ATOM      5  C   UNL     1       5.056   3.923   2.390  0.00  0.00    +0.000 A 
ATOM      6  N   UNL     1       4.208   2.983   1.947  0.00  0.00    +0.000 NA
ENDROOT
BRANCH   1   7
ATOM      7  C   UNL     1       2.120   2.370   0.858  0.00  0.00    +0.000 C 
BRANCH   7  10
ATOM      8  O   UNL     1       0.765   0.586  -0.779  0.00  0.00    +0.000 OA
ATOM      9  C   UNL     1       1.813   1.072  -1.182  0.00  0.00    +0.000 C 
ATOM     10  N   UNL     1       2.561   1.953  -0.455  0.00  0.00    +0.000 N 
ATOM     11  H   UNL     1       3.533   2.088  -0.693  0.00  0.00    +0.000 HD
BRANCH   9  12
ATOM     12  C   UNL     1       2.310   0.835  -2.526  0.00  0.00    +0.000 A 
ATOM     13  C   UNL     1       2.909   1.795  -3.322  0.00  0.00    +0.000 A 
ATOM     14  S   UNL     1       2.921   1.344  -4.975  0.00  0.00    +0.000 S 
ATOM     15  C   UNL     1       2.242  -0.179  -4.618  0.00  0.00    +0.000 A 
ATOM     16  N   UNL     1       1.872  -1.051  -5.589  0.00  0.00    +0.000 NA
ATOM     17  C   UNL     1       1.455  -2.189  -5.141  0.00  0.00    +0.000 A 
ATOM     18  N   UNL     1       1.424  -2.555  -3.814  0.00  0.00    +0.000 N 
ATOM     19  C   UNL     1       1.797  -1.709  -2.790  0.00  0.00    +0.000 A 
ATOM     20  O   UNL     1       1.906  -2.093  -1.638  0.00  0.00    +0.000 OA
ATOM     21  C   UNL     1       2.142  -0.381  -3.256  0.00  0.00    +0.000 A 
ATOM     22  H   UNL     1       1.204  -3.500  -3.545  0.00  0.00    +0.000 HD
ENDBRANCH   9  12
ENDBRANCH   7  10
ENDBRANCH   1   7
BRANCH   4  23
ATOM     23  C   UNL     1       5.721   6.300   2.928  0.00  0.00    +0.000 C 
BRANCH  23  24
ATOM     24  C   UNL     1       5.361   6.668   4.385  0.00  0.00    +0.000 C 
BRANCH  24  25
ATOM     25  O   UNL     1       4.030   7.193   4.404  0.00  0.00    +0.000 OA
ATOM     26  H   UNL     1       3.410   6.442   4.409  0.00  0.00    +0.000 HD
ENDBRANCH  24  25
BRANCH  24  27
ATOM     27  C   UNL     1       5.526   5.491   5.368  0.00  0.00    +0.000 C 
BRANCH  27  28
ATOM     28  C   UNL     1       5.251   5.848   6.811  0.00  0.00    +0.000 A 
ATOM     29  C   UNL     1       3.953   5.732   7.333  0.00  0.00    +0.000 A 
ATOM     30  C   UNL     1       3.697   6.019   8.674  0.00  0.00    +0.000 A 
ATOM     31  C   UNL     1       4.734   6.431   9.509  0.00  0.00    +0.000 A 
ATOM     32  C   UNL     1       6.023   6.568   8.997  0.00  0.00    +0.000 A 
ATOM     33  C   UNL     1       6.281   6.282   7.654  0.00  0.00    +0.000 A 
ENDBRANCH  27  28
ENDBRANCH  24  27
ENDBRANCH  23  24
ENDBRANCH   4  23
TORSDOF 8
