REMARK  Name = 
REMARK  4 active torsions:
REMARK  status: ('A' for Active; 'I' for Inactive)
REMARK    1  A    between atoms: C_2  and  C_4
REMARK    2  A    between atoms: C_7  and  C_8
REMARK    3  A    between atoms: C_8  and  N_9
REMARK    4  A    between atoms: C_14  and  C_15
REMARK                            x       y       z     vdW  Elec       q    Type
REMARK                         _______ _______ _______ _____ _____    ______ ____
ROOT
ATOM      1  N   UNL     1       4.996  -5.205   2.877  0.00  0.00    +0.000 N 
ATOM      2  C   UNL     1       5.745  -6.182   3.513  0.00  0.00    +0.000 A 
ATOM      3  N   UNL     1       5.596  -7.431   3.051  0.00  0.00    +0.000 NA
ATOM      4  C   UNL     1       6.283  -8.413   3.669  0.00  0.00    +0.000 A 
ATOM      5  C   UNL     1       7.123  -8.195   4.726  0.00  0.00    +0.000 A 
ATOM      6  C   UNL     1       7.216  -6.882   5.115  0.00  0.00    +0.000 A 
ATOM      7  N   UNL     1       6.548  -5.858   4.529  0.00  0.00    +0.000 NA
ATOM      8  H   UNL     1       4.696  -5.592   1.989  0.00  0.00    +0.000 HD
ENDROOT
BRANCH   6   9
ATOM      9  C   UNL     1       8.104  -6.512   6.259  0.00  0.00    +0.000 C 
ATOM     10  N   UNL     1       8.140  -5.179   6.567  0.00  0.00    +0.000 N 
ATOM     11  O   UNL     1       8.754  -7.340   6.884  0.00  0.00    +0.000 OA
ATOM     12  H   UNL     1       7.549  -4.531   6.058  0.00  0.00    +0.000 HD
ATOM     13  H   UNL     1       8.681  -4.864   7.358  0.00  0.00    +0.000 HD
ENDBRANCH   6   9
BRANCH   1  14
ATOM     14  C   UNL     1       5.635  -3.910   2.808  0.00  0.00    +0.000 C 
BRANCH  14  18
ATOM     15  C   UNL     1       3.105  -1.103   0.699  0.00  0.00    +0.000 A 
ATOM     16  C   UNL     1       2.987  -1.250   2.085  0.00  0.00    +0.000 A 
ATOM     17  C   UNL     1       3.799  -2.166   2.762  0.00  0.00    +0.000 A 
ATOM     18  C   UNL     1       4.746  -2.936   2.068  0.00  0.00    +0.000 A 
ATOM     19  C   UNL     1       4.838  -2.801   0.675  0.00  0.00    +0.000 A 
ATOM     20  C   UNL     1       4.022  -1.893  -0.004  0.00  0.00    +0.000 A 
BRANCH  15  22
ATOM     21  N   UNL     1       1.806   0.959   0.590  0.00  0.00    +0.000 N 
ATOM     22  C   UNL     1       2.263  -0.149  -0.069  0.00  0.00    +0.000 C 
ATOM     23  O   UNL     1       2.018  -0.318  -1.256  0.00  0.00    +0.000 OA
ATOM     24  H   UNL     1       1.331   1.649   0.023  0.00  0.00    +0.000 HD
ATOM     25  H   UNL     1       2.192   1.262   1.472  0.00  0.00    +0.000 HD
ENDBRANCH  15  22
ENDBRANCH  14  18
ENDBRANCH   1  14
TORSDOF 4
