REMARK  Name = 
REMARK  11 active torsions:
REMARK  status: ('A' for Active; 'I' for Inactive)
REMARK    1  A    between atoms: C_1  and  C_2
REMARK    2  A    between atoms: C_2  and  N_3
REMARK    3  A    between atoms: C_2  and  C_22
REMARK    4  A    between atoms: N_3  and  C_4
REMARK    5  A    between atoms: C_4  and  C_5
REMARK    6  A    between atoms: C_8  and  C_9
REMARK    7  A    between atoms: C_9  and  N_10
REMARK    8  A    between atoms: N_10  and  CA_11
REMARK    9  A    between atoms: CA_11  and  C_12
REMARK   10  A    between atoms: CA_11  and  C_14
REMARK   11  A    between atoms: C_12  and  O_13
REMARK                            x       y       z     vdW  Elec       q    Type
REMARK                         _______ _______ _______ _____ _____    ______ ____
ROOT
ATOM      1  C   UNL     1       9.852  11.521  -2.788  0.00  0.00    +0.000 A 
ATOM      2  C   UNL     1       9.067  10.384  -3.007  0.00  0.00    +0.000 A 
ATOM      3  C   UNL     1       7.838  10.232  -2.361  0.00  0.00    +0.000 A 
ATOM      4  C   UNL     1       7.369  11.215  -1.477  0.00  0.00    +0.000 A 
ATOM      5  C   UNL     1       8.146  12.361  -1.271  0.00  0.00    +0.000 A 
ATOM      6  C   UNL     1       9.374  12.515  -1.923  0.00  0.00    +0.000 A 
ENDROOT
BRANCH   1   7
ATOM      7  C   UNL     1      11.205  11.651  -3.443  0.00  0.00    +0.000 C 
BRANCH   7   8
ATOM      8  N   UNL     1      11.145  12.278  -4.768  0.00  0.00    +0.000 NA
ATOM      9  H   UNL     1      10.902  13.267  -4.665  0.00  0.00    +0.000 HD
BRANCH   8  11
ATOM     10  C   UNL     1      13.616  12.891  -4.806  0.00  0.00    +0.000 C 
ATOM     11  C   UNL     1      12.427  12.159  -5.465  0.00  0.00    +0.000 C 
BRANCH  11  12
ATOM     12  C   UNL     1      12.276  12.625  -6.900  0.00  0.00    +0.000 A 
ATOM     13  C   UNL     1      12.408  11.792  -8.003  0.00  0.00    +0.000 A 
ATOM     14  S   UNL     1      12.653  12.655  -9.457  0.00  0.00    +0.000 S 
ATOM     15  C   UNL     1      12.511  14.154  -8.659  0.00  0.00    +0.000 A 
ATOM     16  N   UNL     1      12.772  15.332  -9.289  0.00  0.00    +0.000 NA
ATOM     17  C   UNL     1      12.571  16.377  -8.555  0.00  0.00    +0.000 A 
ATOM     18  N   UNL     1      12.082  16.355  -7.272  0.00  0.00    +0.000 N 
ATOM     19  C   UNL     1      11.794  15.189  -6.599  0.00  0.00    +0.000 A 
ATOM     20  O   UNL     1      11.298  15.194  -5.477  0.00  0.00    +0.000 OA
ATOM     21  C   UNL     1      12.125  13.989  -7.344  0.00  0.00    +0.000 A 
ATOM     22  H   UNL     1      11.871  17.213  -6.784  0.00  0.00    +0.000 HD
ENDBRANCH  11  12
ENDBRANCH   8  11
ENDBRANCH   7   8
ENDBRANCH   1   7
BRANCH   4  23
ATOM     23  C   UNL     1       6.009  11.071  -0.821  0.00  0.00    +0.000 C 
BRANCH  23  24
ATOM     24  N   UNL     1       5.896   9.811  -0.058  0.00  0.00    +0.000 NA
ATOM     25  H   UNL     1       6.620   9.838   0.659  0.00  0.00    +0.000 HD
BRANCH  24  26
ATOM     26  CA  UNL     1       4.566   9.726   0.614  0.00  0.00    +0.000 C 
BRANCH  26  27
ATOM     27  C   UNL     1       3.397   9.663  -0.363  0.00  0.00    +0.000 A 
ATOM     28  C   UNL     1       3.278   8.641  -1.292  0.00  0.00    +0.000 A 
ATOM     29  C   UNL     1       2.215   8.718  -2.161  0.00  0.00    +0.000 A 
ATOM     30  N   UNL     1       1.318   9.719  -2.151  0.00  0.00    +0.000 NA
ATOM     31  C   UNL     1       1.526  10.668  -1.228  0.00  0.00    +0.000 A 
ATOM     32  N   UNL     1       2.522  10.695  -0.326  0.00  0.00    +0.000 NA
ENDBRANCH  26  27
BRANCH  26  33
ATOM     33  C   UNL     1       4.556   8.524   1.589  0.00  0.00    +0.000 C 
BRANCH  33  34
ATOM     34  O   UNL     1       4.952   7.306   0.953  0.00  0.00    +0.000 OA
ATOM     35  H   UNL     1       5.669   7.555   0.337  0.00  0.00    +0.000 HD
ENDBRANCH  33  34
ENDBRANCH  26  33
ENDBRANCH  24  26
ENDBRANCH  23  24
ENDBRANCH   4  23
TORSDOF 10
