REMARK  Name = 
REMARK  4 active torsions:
REMARK  status: ('A' for Active; 'I' for Inactive)
REMARK    1  A    between atoms: N_1  and  C_2
REMARK    2  A    between atoms: C_2  and  C_3
REMARK    3  A    between atoms: C_6  and  C_7
REMARK    4  A    between atoms: C_7  and  N_8
REMARK                            x       y       z     vdW  Elec       q    Type
REMARK                         _______ _______ _______ _____ _____    ______ ____
ROOT
ATOM      1  C   UNL     1       2.600   4.574   3.453  0.00  0.00    +0.000 C 
ENDROOT
BRANCH   1   2
ATOM      2  N   UNL     1       1.850   4.611   4.699  0.00  0.00    +0.000 N 
ATOM      3  C   UNL     1       2.210   3.914   5.825  0.00  0.00    +0.000 A 
ATOM      4  C   UNL     1       1.404   4.325   6.860  0.00  0.00    +0.000 A 
ATOM      5  C   UNL     1       0.531   5.324   6.355  0.00  0.00    +0.000 A 
ATOM      6  C   UNL     1      -0.462   6.132   6.947  0.00  0.00    +0.000 A 
ATOM      7  C   UNL     1      -1.161   7.049   6.158  0.00  0.00    +0.000 A 
ATOM      8  C   UNL     1      -0.893   7.144   4.800  0.00  0.00    +0.000 A 
ATOM      9  F   UNL     1      -1.584   8.022   4.059  0.00  0.00    +0.000 F 
ATOM     10  C   UNL     1       0.081   6.359   4.182  0.00  0.00    +0.000 A 
ATOM     11  C   UNL     1       0.800   5.462   4.988  0.00  0.00    +0.000 A 
ENDBRANCH   1   2
BRANCH   1  15
ATOM     12  C   UNL     1       3.015   1.136   0.769  0.00  0.00    +0.000 C 
ATOM     13  C   UNL     1       2.087   0.980   1.983  0.00  0.00    +0.000 C 
ATOM     14  C   UNL     1       2.287   2.077   3.026  0.00  0.00    +0.000 C 
ATOM     15  C   UNL     1       2.163   3.495   2.442  0.00  0.00    +0.000 C 
ATOM     16  C   UNL     1       3.006   3.657   1.161  0.00  0.00    +0.000 C 
ATOM     17  C   UNL     1       2.797   2.527   0.155  0.00  0.00    +0.000 C 
BRANCH  12  18
ATOM     18  C   UNL     1       4.505   0.897   1.098  0.00  0.00    +0.000 C 
BRANCH  18  19
ATOM     19  N   UNL     1       4.741  -0.448   1.612  0.00  0.00    +0.000 NA
ATOM     20  H   UNL     1       5.739  -0.580   1.774  0.00  0.00    +0.000 HD
ATOM     21  H   UNL     1       4.472  -1.137   0.910  0.00  0.00    +0.000 HD
ENDBRANCH  18  19
ENDBRANCH  12  18
ENDBRANCH   1  15
TORSDOF 4
