REMARK  Name = 
REMARK  5 active torsions:
REMARK  status: ('A' for Active; 'I' for Inactive)
REMARK    1  A    between atoms: C_2  and  C_3
REMARK    2  A    between atoms: C_6  and  C_7
REMARK    3  A    between atoms: C_11  and  C_12
REMARK    4  A    between atoms: C_12  and  N_13
REMARK    5  A    between atoms: C_17  and  C_18
REMARK                            x       y       z     vdW  Elec       q    Type
REMARK                         _______ _______ _______ _____ _____    ______ ____
ROOT
ATOM      1  C   UNL     1      -6.421   0.858  -2.316  0.00  0.00    +0.000 C 
ATOM      2  C   UNL     1      -7.416   2.009  -2.286  0.00  0.00    +0.000 C 
ATOM      3  C   UNL     1      -7.892   0.637  -2.634  0.00  0.00    +0.000 C 
ENDROOT
BRANCH   1   4
ATOM      4  N   UNL     1      -5.445   0.789  -3.412  0.00  0.00    +0.000 N 
ATOM      5  C   UNL     1      -5.249  -0.335  -4.219  0.00  0.00    +0.000 A 
ATOM      6  C   UNL     1      -5.544  -1.636  -3.816  0.00  0.00    +0.000 A 
ATOM      7  C   UNL     1      -5.261  -2.712  -4.663  0.00  0.00    +0.000 A 
ATOM      8  C   UNL     1      -4.693  -2.463  -5.908  0.00  0.00    +0.000 A 
ATOM      9  C   UNL     1      -4.437  -1.141  -6.239  0.00  0.00    +0.000 A 
ATOM     10  N   UNL     1      -4.706  -0.084  -5.427  0.00  0.00    +0.000 NA
ATOM     11  H   UNL     1      -5.230   1.615  -3.960  0.00  0.00    +0.000 HD
BRANCH   8  12
ATOM     12  C   UNL     1      -4.308  -3.525  -6.860  0.00  0.00    +0.000 C 
ATOM     13  N   UNL     1      -4.937  -4.735  -6.756  0.00  0.00    +0.000 N 
ATOM     14  O   UNL     1      -3.468  -3.327  -7.728  0.00  0.00    +0.000 OA
ATOM     15  H   UNL     1      -5.760  -4.893  -6.193  0.00  0.00    +0.000 HD
ATOM     16  H   UNL     1      -4.706  -5.428  -7.457  0.00  0.00    +0.000 HD
ENDBRANCH   8  12
ENDBRANCH   1   4
BRANCH   1  21
ATOM     17  C   UNL     1      -5.839  -1.297   0.635  0.00  0.00    +0.000 A 
ATOM     18  N   UNL     1      -5.064  -0.590   1.472  0.00  0.00    +0.000 NA
ATOM     19  C   UNL     1      -4.703   0.634   1.047  0.00  0.00    +0.000 A 
ATOM     20  C   UNL     1      -5.087   1.164  -0.163  0.00  0.00    +0.000 A 
ATOM     21  C   UNL     1      -5.897   0.376  -0.961  0.00  0.00    +0.000 A 
ATOM     22  N   UNL     1      -6.269  -0.856  -0.555  0.00  0.00    +0.000 NA
BRANCH  17  26
ATOM     23  C   UNL     1      -7.177  -5.176   1.656  0.00  0.00    +0.000 A 
ATOM     24  C   UNL     1      -6.450  -4.473   2.605  0.00  0.00    +0.000 A 
ATOM     25  C   UNL     1      -5.992  -3.196   2.281  0.00  0.00    +0.000 A 
ATOM     26  C   UNL     1      -6.272  -2.639   1.027  0.00  0.00    +0.000 A 
ATOM     27  C   UNL     1      -7.011  -3.441   0.151  0.00  0.00    +0.000 A 
ATOM     28  N   UNL     1      -7.466  -4.689   0.428  0.00  0.00    +0.000 NA
BRANCH  23  30
ATOM     29  N   UNL     1      -8.067  -7.553   2.207  0.00  0.00    +0.000 NA
ATOM     30  C   UNL     1      -7.678  -6.489   1.941  0.00  0.00    +0.000 C 
ENDBRANCH  23  30
ENDBRANCH  17  26
ENDBRANCH   1  21
TORSDOF 5
