REMARK  Name = 
REMARK  7 active torsions:
REMARK  status: ('A' for Active; 'I' for Inactive)
REMARK    1  A    between atoms: C_1  and  O_2
REMARK    2  A    between atoms: O_2  and  C_3
REMARK    3  A    between atoms: C_6  and  C_7
REMARK    4  A    between atoms: C_7  and  N_8
REMARK    5  A    between atoms: C_11  and  C_12
REMARK    6  A    between atoms: C_12  and  N_13
REMARK    7  A    between atoms: C_14  and  C_16
REMARK                            x       y       z     vdW  Elec       q    Type
REMARK                         _______ _______ _______ _____ _____    ______ ____
ROOT
ATOM      1  C   UNL     1       2.016  -6.509   1.662  0.00  0.00    +0.000 C 
ENDROOT
BRANCH   1   5
ATOM      2  N   UNL     1       5.062  -4.911   3.113  0.00  0.00    +0.000 NA
ATOM      3  C   UNL     1       3.771  -4.989   3.816  0.00  0.00    +0.000 C 
ATOM      4  C   UNL     1       3.246  -6.422   3.922  0.00  0.00    +0.000 C 
ATOM      5  C   UNL     1       3.124  -7.105   2.554  0.00  0.00    +0.000 C 
ATOM      6  C   UNL     1       4.492  -7.017   1.865  0.00  0.00    +0.000 C 
ATOM      7  C   UNL     1       5.028  -5.583   1.802  0.00  0.00    +0.000 C 
BRANCH   2   8
ATOM      8  C   UNL     1       5.486  -3.507   2.926  0.00  0.00    +0.000 C 
BRANCH   8  12
ATOM      9  C   UNL     1       6.315  -1.310   6.472  0.00  0.00    +0.000 A 
ATOM     10  C   UNL     1       7.056  -2.459   6.238  0.00  0.00    +0.000 A 
ATOM     11  C   UNL     1       6.789  -3.198   5.086  0.00  0.00    +0.000 A 
ATOM     12  C   UNL     1       5.794  -2.769   4.204  0.00  0.00    +0.000 A 
ATOM     13  C   UNL     1       5.113  -1.599   4.535  0.00  0.00    +0.000 A 
ATOM     14  N   UNL     1       5.344  -0.864   5.644  0.00  0.00    +0.000 NA
BRANCH   9  16
ATOM     15  C   UNL     1       5.799   0.546   7.790  0.00  0.00    +0.000 C 
ATOM     16  O   UNL     1       6.610  -0.612   7.624  0.00  0.00    +0.000 OA
ENDBRANCH   9  16
ENDBRANCH   8  12
ENDBRANCH   2   8
ENDBRANCH   1   5
BRANCH   1  17
ATOM     17  N   UNL     1       0.694  -6.619   2.243  0.00  0.00    +0.000 N 
ATOM     18  C   UNL     1      -0.083  -7.745   2.118  0.00  0.00    +0.000 C 
ATOM     19  O   UNL     1       0.312  -8.752   1.536  0.00  0.00    +0.000 OA
ATOM     20  H   UNL     1       0.270  -5.767   2.595  0.00  0.00    +0.000 HD
BRANCH  18  21
ATOM     21  C   UNL     1      -1.399  -7.706   2.771  0.00  0.00    +0.000 A 
ATOM     22  C   UNL     1      -2.013  -8.892   3.147  0.00  0.00    +0.000 A 
ATOM     23  S   UNL     1      -3.508  -8.669   3.938  0.00  0.00    +0.000 S 
ATOM     24  C   UNL     1      -3.414  -6.980   3.755  0.00  0.00    +0.000 A 
ATOM     25  N   UNL     1      -4.410  -6.172   4.208  0.00  0.00    +0.000 NA
ATOM     26  C   UNL     1      -4.233  -4.917   3.962  0.00  0.00    +0.000 A 
ATOM     27  N   UNL     1      -3.145  -4.397   3.309  0.00  0.00    +0.000 N 
ATOM     28  C   UNL     1      -2.088  -5.168   2.884  0.00  0.00    +0.000 A 
ATOM     29  O   UNL     1      -1.088  -4.660   2.386  0.00  0.00    +0.000 OA
ATOM     30  C   UNL     1      -2.251  -6.591   3.114  0.00  0.00    +0.000 A 
ATOM     31  H   UNL     1      -3.061  -3.401   3.163  0.00  0.00    +0.000 HD
ENDBRANCH  18  21
ENDBRANCH   1  17
TORSDOF 6
