REMARK  Name = 
REMARK  8 active torsions:
REMARK  status: ('A' for Active; 'I' for Inactive)
REMARK    1  A    between atoms: C_1  and  N_2
REMARK    2  A    between atoms: C_3  and  C_5
REMARK    3  A    between atoms: C_8  and  C_9
REMARK    4  A    between atoms: C_9  and  N_10
REMARK    5  A    between atoms: C_9  and  C_11
REMARK    6  A    between atoms: C_11  and  C_12
REMARK    7  A    between atoms: C_15  and  O_16
REMARK    8  A    between atoms: C_19  and  C_20
REMARK                            x       y       z     vdW  Elec       q    Type
REMARK                         _______ _______ _______ _____ _____    ______ ____
ROOT
ATOM      1  C   UNL     1       1.531   6.237   2.183  0.00  0.00    +0.000 C 
ENDROOT
BRANCH   1   5
ATOM      2  C   UNL     1       2.793   2.437   0.643  0.00  0.00    +0.000 A 
ATOM      3  C   UNL     1       1.736   2.470   1.531  0.00  0.00    +0.000 A 
ATOM      4  C   UNL     1       1.339   3.706   2.030  0.00  0.00    +0.000 A 
ATOM      5  C   UNL     1       2.022   4.884   1.674  0.00  0.00    +0.000 A 
ATOM      6  C   UNL     1       3.114   4.743   0.793  0.00  0.00    +0.000 A 
ATOM      7  C   UNL     1       3.971   5.890   0.335  0.00  0.00    +0.000 C 
ATOM      8  N   UNL     1       3.481   3.544   0.253  0.00  0.00    +0.000 NA
BRANCH   2  11
ATOM      9  C   UNL     1       4.603   0.018  -1.643  0.00  0.00    +0.000 C 
ATOM     10  N   UNL     1       4.109   1.200  -0.989  0.00  0.00    +0.000 N 
ATOM     11  C   UNL     1       3.210   1.122   0.055  0.00  0.00    +0.000 C 
ATOM     12  O   UNL     1       2.758   0.063   0.478  0.00  0.00    +0.000 OA
ATOM     13  H   UNL     1       4.382   2.129  -1.296  0.00  0.00    +0.000 HD
ENDBRANCH   2  11
ENDBRANCH   1   5
BRANCH   1  14
ATOM     14  N   UNL     1       0.562   6.792   1.217  0.00  0.00    +0.000 NA
ATOM     15  H   UNL     1      -0.196   6.122   1.079  0.00  0.00    +0.000 HD
ATOM     16  H   UNL     1       1.011   6.895   0.308  0.00  0.00    +0.000 HD
ENDBRANCH   1  14
BRANCH   1  17
ATOM     17  C   UNL     1       0.886   6.263   3.587  0.00  0.00    +0.000 C 
BRANCH  17  18
ATOM     18  C   UNL     1       1.828   5.815   4.673  0.00  0.00    +0.000 A 
ATOM     19  N   UNL     1       2.951   6.535   4.872  0.00  0.00    +0.000 NA
ATOM     20  C   UNL     1       3.751   6.130   5.882  0.00  0.00    +0.000 A 
ATOM     21  C   UNL     1       3.470   5.052   6.687  0.00  0.00    +0.000 A 
ATOM     22  C   UNL     1       2.303   4.385   6.402  0.00  0.00    +0.000 A 
ATOM     23  N   UNL     1       1.466   4.744   5.406  0.00  0.00    +0.000 NA
BRANCH  21  24
ATOM     24  O   UNL     1       4.262   4.643   7.710  0.00  0.00    +0.000 OA
ATOM     25  H   UNL     1       5.037   5.226   7.772  0.00  0.00    +0.000 HD
ENDBRANCH  21  24
ENDBRANCH  17  18
ENDBRANCH   1  17
TORSDOF 6
