REMARK  Name = 
REMARK  8 active torsions:
REMARK  status: ('A' for Active; 'I' for Inactive)
REMARK    1  A    between atoms: C_1  and  C_2
REMARK    2  A    between atoms: C_6  and  C_7
REMARK    3  A    between atoms: C_7  and  N_8
REMARK    4  A    between atoms: N_8  and  C_9
REMARK    5  A    between atoms: C_9  and  C_10
REMARK    6  A    between atoms: C_13  and  C_14
REMARK    7  A    between atoms: C_14  and  N_15
REMARK    8  A    between atoms: C_16  and  C_18
REMARK                            x       y       z     vdW  Elec       q    Type
REMARK                         _______ _______ _______ _____ _____    ______ ____
ROOT
ATOM      1  C   UNL     1       3.708  -4.201   0.056  0.00  0.00    +0.000 A 
ATOM      2  C   UNL     1       4.479  -3.042   0.033  0.00  0.00    +0.000 A 
ATOM      3  C   UNL     1       5.869  -3.124   0.060  0.00  0.00    +0.000 A 
ATOM      4  C   UNL     1       6.479  -4.373   0.118  0.00  0.00    +0.000 A 
ATOM      5  N   UNL     1       5.748  -5.519   0.129  0.00  0.00    +0.000 NA
ATOM      6  C   UNL     1       4.395  -5.406   0.094  0.00  0.00    +0.000 A 
ENDROOT
BRANCH   1   7
ATOM      7  C   UNL     1       2.206  -4.148   0.079  0.00  0.00    +0.000 C 
BRANCH   7   8
ATOM      8  N   UNL     1       1.630  -4.795   1.263  0.00  0.00    +0.000 NA
ATOM      9  H   UNL     1       0.613  -4.745   1.207  0.00  0.00    +0.000 HD
BRANCH   8  10
ATOM     10  C   UNL     1       2.025  -4.183   2.533  0.00  0.00    +0.000 C 
BRANCH  10  16
ATOM     11  C   UNL     1      -0.114  -3.259   4.938  0.00  0.00    +0.000 C 
ATOM     12  C   UNL     1       0.497  -4.588   4.667  0.00  0.00    +0.000 A 
ATOM     13  C   UNL     1       0.252  -5.757   5.445  0.00  0.00    +0.000 A 
ATOM     14  C   UNL     1       0.972  -6.789   4.891  0.00  0.00    +0.000 A 
ATOM     15  N   UNL     1       1.649  -6.293   3.813  0.00  0.00    +0.000 N 
ATOM     16  C   UNL     1       1.382  -4.950   3.654  0.00  0.00    +0.000 A 
ATOM     17  H   UNL     1       2.250  -6.834   3.202  0.00  0.00    +0.000 HD
ENDBRANCH  10  16
ENDBRANCH   8  10
ENDBRANCH   7   8
ENDBRANCH   1   7
BRANCH   4  18
ATOM     18  C   UNL     1       7.987  -4.499   0.192  0.00  0.00    +0.000 C 
BRANCH  18  19
ATOM     19  N   UNL     1       8.633  -4.594  -1.102  0.00  0.00    +0.000 N 
ATOM     20  C   UNL     1       9.092  -3.509  -1.790  0.00  0.00    +0.000 C 
ATOM     21  O   UNL     1       8.987  -2.355  -1.368  0.00  0.00    +0.000 OA
ATOM     22  H   UNL     1       8.415  -5.422  -1.645  0.00  0.00    +0.000 HD
BRANCH  20  23
ATOM     23  C   UNL     1       9.777  -3.812  -3.051  0.00  0.00    +0.000 A 
ATOM     24  C   UNL     1      10.777  -2.978  -3.526  0.00  0.00    +0.000 A 
ATOM     25  S   UNL     1      11.464  -3.510  -4.995  0.00  0.00    +0.000 S 
ATOM     26  C   UNL     1      10.426  -4.858  -5.062  0.00  0.00    +0.000 A 
ATOM     27  N   UNL     1      10.467  -5.729  -6.103  0.00  0.00    +0.000 NA
ATOM     28  C   UNL     1       9.604  -6.692  -6.033  0.00  0.00    +0.000 A 
ATOM     29  N   UNL     1       8.713  -6.863  -5.005  0.00  0.00    +0.000 N 
ATOM     30  C   UNL     1       8.683  -6.046  -3.908  0.00  0.00    +0.000 A 
ATOM     31  O   UNL     1       7.952  -6.296  -2.942  0.00  0.00    +0.000 OA
ATOM     32  C   UNL     1       9.592  -4.921  -3.960  0.00  0.00    +0.000 A 
ATOM     33  H   UNL     1       8.090  -7.660  -4.993  0.00  0.00    +0.000 HD
ENDBRANCH  20  23
ENDBRANCH  18  19
ENDBRANCH   4  18
TORSDOF 7
