REMARK  Name = 
REMARK  5 active torsions:
REMARK  status: ('A' for Active; 'I' for Inactive)
REMARK    1  A    between atoms: C_2  and  C_4
REMARK    2  A    between atoms: C_7  and  N_8
REMARK    3  A    between atoms: N_8  and  C_9
REMARK    4  A    between atoms: C_9  and  C_10
REMARK    5  A    between atoms: C_14  and  C_15
REMARK                            x       y       z     vdW  Elec       q    Type
REMARK                         _______ _______ _______ _____ _____    ______ ____
ROOT
ATOM      1  C   UNL     1       4.903   5.993   1.351  0.00  0.00    +0.000 C 
ENDROOT
BRANCH   1   2
ATOM      2  C   UNL     1       5.801   7.198   1.221  0.00  0.00    +0.000 A 
ATOM      3  C   UNL     1       5.660   8.072   0.137  0.00  0.00    +0.000 A 
ATOM      4  C   UNL     1       6.406   9.246   0.085  0.00  0.00    +0.000 A 
ATOM      5  C   UNL     1       7.299   9.555   1.114  0.00  0.00    +0.000 A 
ATOM      6  C   UNL     1       7.490   8.691   2.208  0.00  0.00    +0.000 A 
ATOM      7  C   UNL     1       6.738   7.500   2.227  0.00  0.00    +0.000 A 
BRANCH   6   8
ATOM      8  C   UNL     1       8.398   9.064   3.314  0.00  0.00    +0.000 A 
ATOM      9  C   UNL     1       9.117   8.123   4.063  0.00  0.00    +0.000 A 
ATOM     10  C   UNL     1       9.912   8.553   5.126  0.00  0.00    +0.000 A 
ATOM     11  C   UNL     1       9.969   9.905   5.416  0.00  0.00    +0.000 A 
ATOM     12  F   UNL     1      10.713  10.349   6.435  0.00  0.00    +0.000 F 
ATOM     13  C   UNL     1       9.246  10.782   4.632  0.00  0.00    +0.000 A 
ATOM     14  N   UNL     1       8.470  10.393   3.591  0.00  0.00    +0.000 NA
ENDBRANCH   6   8
ENDBRANCH   1   2
BRANCH   1  15
ATOM     15  N   UNL     1       5.473   4.828   0.698  0.00  0.00    +0.000 N 
ATOM     16  H   UNL     1       5.933   5.026  -0.189  0.00  0.00    +0.000 HD
BRANCH  15  20
ATOM     17  C   UNL     1       3.456   1.108   0.759  0.00  0.00    +0.000 A 
ATOM     18  C   UNL     1       2.892   2.208   1.405  0.00  0.00    +0.000 A 
ATOM     19  C   UNL     1       3.540   3.447   1.375  0.00  0.00    +0.000 A 
ATOM     20  C   UNL     1       4.745   3.632   0.680  0.00  0.00    +0.000 A 
ATOM     21  C   UNL     1       5.308   2.510   0.055  0.00  0.00    +0.000 A 
ATOM     22  C   UNL     1       4.676   1.259   0.095  0.00  0.00    +0.000 A 
BRANCH  17  24
ATOM     23  N   UNL     1       1.456  -0.271   0.941  0.00  0.00    +0.000 N 
ATOM     24  C   UNL     1       2.817  -0.232   0.801  0.00  0.00    +0.000 C 
ATOM     25  O   UNL     1       3.468  -1.262   0.685  0.00  0.00    +0.000 OA
ATOM     26  H   UNL     1       1.024  -1.184   0.872  0.00  0.00    +0.000 HD
ATOM     27  H   UNL     1       0.871   0.538   0.792  0.00  0.00    +0.000 HD
ENDBRANCH  17  24
ENDBRANCH  15  20
ENDBRANCH   1  15
TORSDOF 5
