REMARK  Name = 
REMARK  7 active torsions:
REMARK  status: ('A' for Active; 'I' for Inactive)
REMARK    1  A    between atoms: C_1  and  N_2
REMARK    2  A    between atoms: N_2  and  C_3
REMARK    3  A    between atoms: C_4  and  C_6
REMARK    4  A    between atoms: C_9  and  C_10
REMARK    5  A    between atoms: C_10  and  N_11
REMARK    6  A    between atoms: N_11  and  C_12
REMARK    7  A    between atoms: C_15  and  C_16
REMARK                            x       y       z     vdW  Elec       q    Type
REMARK                         _______ _______ _______ _____ _____    ______ ____
ROOT
ATOM      1  C   UNL     1       8.871   0.154   1.161  0.00  0.00    +0.000 C 
ENDROOT
BRANCH   1   5
ATOM      2  C   UNL     1       4.606   0.377   1.170  0.00  0.00    +0.000 A 
ATOM      3  N   UNL     1       5.241  -0.455   2.049  0.00  0.00    +0.000 NA
ATOM      4  C   UNL     1       6.593  -0.473   2.036  0.00  0.00    +0.000 A 
ATOM      5  C   UNL     1       7.370   0.269   1.157  0.00  0.00    +0.000 A 
ATOM      6  C   UNL     1       6.700   1.134   0.286  0.00  0.00    +0.000 A 
ATOM      7  C   UNL     1       5.302   1.204   0.290  0.00  0.00    +0.000 A 
ATOM      8 CL   UNL     1       4.573   2.364  -0.761  0.00  0.00    +0.000 Cl
BRANCH   2  12
ATOM      9  C   UNL     1       0.940  -0.011   2.244  0.00  0.00    +0.000 C 
ATOM     10  N   UNL     1       2.389   0.031   2.333  0.00  0.00    +0.000 N 
ATOM     11  C   UNL     1       2.985   0.016   3.661  0.00  0.00    +0.000 C 
ATOM     12  C   UNL     1       3.103   0.279   1.151  0.00  0.00    +0.000 C 
ATOM     13  O   UNL     1       2.515   0.397   0.071  0.00  0.00    +0.000 OA
ENDBRANCH   2  12
ENDBRANCH   1   5
BRANCH   1  14
ATOM     14  N   UNL     1       9.441   1.149   2.053  0.00  0.00    +0.000 N 
ATOM     15  H   UNL     1       8.997   2.062   1.982  0.00  0.00    +0.000 HD
BRANCH  14  16
ATOM     16  C   UNL     1      10.828   1.276   2.180  0.00  0.00    +0.000 A 
ATOM     17  C   UNL     1      11.756   0.380   1.637  0.00  0.00    +0.000 A 
ATOM     18  C   UNL     1      13.133   0.542   1.847  0.00  0.00    +0.000 A 
ATOM     19  C   UNL     1      13.618   1.587   2.643  0.00  0.00    +0.000 A 
ATOM     20  C   UNL     1      12.694   2.464   3.223  0.00  0.00    +0.000 A 
ATOM     21  C   UNL     1      11.323   2.301   2.999  0.00  0.00    +0.000 A 
BRANCH  19  22
ATOM     22  C   UNL     1      15.095   1.768   2.894  0.00  0.00    +0.000 C 
ATOM     23  F   UNL     1      15.872   0.828   2.286  0.00  0.00    +0.000 F 
ATOM     24  F   UNL     1      15.555   2.972   2.454  0.00  0.00    +0.000 F 
ATOM     25  F   UNL     1      15.409   1.710   4.218  0.00  0.00    +0.000 F 
ENDBRANCH  19  22
ENDBRANCH  14  16
ENDBRANCH   1  14
TORSDOF 5
