REMARK  Name = 
REMARK  4 active torsions:
REMARK  status: ('A' for Active; 'I' for Inactive)
REMARK    1  A    between atoms: C_2  and  C_3
REMARK    2  A    between atoms: C_6  and  C_7
REMARK    3  A    between atoms: C_7  and  N_8
REMARK    4  A    between atoms: C_12  and  C_13
REMARK                            x       y       z     vdW  Elec       q    Type
REMARK                         _______ _______ _______ _____ _____    ______ ____
ROOT
ATOM      1  N   UNL     1      -4.037  -1.432   0.737  0.00  0.00    +0.000 N 
ATOM      2  C   UNL     1      -4.078  -2.693   0.143  0.00  0.00    +0.000 A 
ATOM      3  N   UNL     1      -3.395  -2.935  -0.984  0.00  0.00    +0.000 NA
ATOM      4  C   UNL     1      -3.447  -4.180  -1.498  0.00  0.00    +0.000 A 
ATOM      5  C   UNL     1      -4.171  -5.199  -0.931  0.00  0.00    +0.000 A 
ATOM      6  C   UNL     1      -4.866  -4.853   0.201  0.00  0.00    +0.000 A 
ATOM      7  N   UNL     1      -4.830  -3.618   0.760  0.00  0.00    +0.000 NA
ATOM      8  H   UNL     1      -4.769  -1.391   1.433  0.00  0.00    +0.000 HD
ENDROOT
BRANCH   5   9
ATOM      9  C   UNL     1      -4.191  -6.528  -1.562  0.00  0.00    +0.000 C 
ATOM     10  N   UNL     1      -4.524  -7.604  -0.787  0.00  0.00    +0.000 N 
ATOM     11  O   UNL     1      -3.884  -6.682  -2.739  0.00  0.00    +0.000 OA
ATOM     12  H   UNL     1      -4.544  -7.589   0.219  0.00  0.00    +0.000 HD
ATOM     13  H   UNL     1      -4.424  -8.512  -1.231  0.00  0.00    +0.000 HD
ENDBRANCH   5   9
BRANCH   1  14
ATOM     14  C   UNL     1      -3.677  -0.230  -0.034  0.00  0.00    +0.000 C 
ATOM     15  C   UNL     1      -4.581   0.262  -1.151  0.00  0.00    +0.000 C 
ATOM     16  C   UNL     1      -4.573   0.987   0.154  0.00  0.00    +0.000 C 
BRANCH  14  20
ATOM     17  C   UNL     1       0.587   0.139  -0.436  0.00  0.00    +0.000 A 
ATOM     18  C   UNL     1      -0.025   0.791   0.625  0.00  0.00    +0.000 A 
ATOM     19  C   UNL     1      -1.416   0.709   0.746  0.00  0.00    +0.000 A 
ATOM     20  C   UNL     1      -2.174  -0.016  -0.183  0.00  0.00    +0.000 A 
ATOM     21  C   UNL     1      -1.446  -0.588  -1.232  0.00  0.00    +0.000 A 
ATOM     22  N   UNL     1      -0.099  -0.533  -1.385  0.00  0.00    +0.000 NA
BRANCH  17  24
ATOM     23  N   UNL     1       3.179   0.102  -0.617  0.00  0.00    +0.000 NA
ATOM     24  C   UNL     1       2.019   0.113  -0.560  0.00  0.00    +0.000 C 
ENDBRANCH  17  24
ENDBRANCH  14  20
ENDBRANCH   1  14
TORSDOF 4
