REMARK  Name = 
REMARK  9 active torsions:
REMARK  status: ('A' for Active; 'I' for Inactive)
REMARK    1  A    between atoms: C_2  and  C_21
REMARK    2  A    between atoms: N_3  and  C_4
REMARK    3  A    between atoms: C_4  and  C_5
REMARK    4  A    between atoms: C_8  and  C_9
REMARK    5  A    between atoms: C_9  and  N_10
REMARK    6  A    between atoms: N_10  and  CA_11
REMARK    7  A    between atoms: CA_11  and  C_12
REMARK    8  A    between atoms: CA_11  and  C_14
REMARK    9  A    between atoms: C_12  and  O_13
REMARK                            x       y       z     vdW  Elec       q    Type
REMARK                         _______ _______ _______ _____ _____    ______ ____
ROOT
ATOM      1  C   UNL     1       3.122   3.082   1.818  0.00  0.00    +0.000 A 
ATOM      2  C   UNL     1       2.879   4.437   1.560  0.00  0.00    +0.000 A 
ATOM      3  C   UNL     1       3.697   5.427   2.112  0.00  0.00    +0.000 A 
ATOM      4  C   UNL     1       4.780   5.080   2.929  0.00  0.00    +0.000 A 
ATOM      5  C   UNL     1       5.040   3.722   3.163  0.00  0.00    +0.000 A 
ATOM      6  C   UNL     1       4.224   2.732   2.607  0.00  0.00    +0.000 A 
ENDROOT
BRANCH   1   7
ATOM      7  C   UNL     1       2.217   2.026   1.242  0.00  0.00    +0.000 C 
BRANCH   7  10
ATOM      8  O   UNL     1       1.186   3.058  -1.160  0.00  0.00    +0.000 OA
ATOM      9  C   UNL     1       2.079   2.217  -1.210  0.00  0.00    +0.000 C 
ATOM     10  N   UNL     1       2.617   1.644  -0.087  0.00  0.00    +0.000 N 
ATOM     11  H   UNL     1       3.468   1.098  -0.165  0.00  0.00    +0.000 HD
BRANCH   9  12
ATOM     12  C   UNL     1       2.587   1.724  -2.495  0.00  0.00    +0.000 A 
ATOM     13  C   UNL     1       1.792   1.814  -3.630  0.00  0.00    +0.000 A 
ATOM     14  S   UNL     1       2.538   1.205  -5.037  0.00  0.00    +0.000 S 
ATOM     15  C   UNL     1       3.963   0.833  -4.186  0.00  0.00    +0.000 A 
ATOM     16  N   UNL     1       5.043   0.311  -4.823  0.00  0.00    +0.000 NA
ATOM     17  C   UNL     1       6.070   0.118  -4.066  0.00  0.00    +0.000 A 
ATOM     18  N   UNL     1       6.108   0.382  -2.718  0.00  0.00    +0.000 N 
ATOM     19  C   UNL     1       5.018   0.834  -2.021  0.00  0.00    +0.000 A 
ATOM     20  O   UNL     1       5.040   0.919  -0.796  0.00  0.00    +0.000 OA
ATOM     21  C   UNL     1       3.857   1.131  -2.838  0.00  0.00    +0.000 A 
ATOM     22  H   UNL     1       6.929   0.168  -2.179  0.00  0.00    +0.000 HD
ENDBRANCH   9  12
ENDBRANCH   7  10
ENDBRANCH   1   7
BRANCH   4  23
ATOM     23  C   UNL     1       5.685   6.134   3.520  0.00  0.00    +0.000 C 
BRANCH  23  24
ATOM     24  N   UNL     1       5.043   7.101   4.410  0.00  0.00    +0.000 NA
ATOM     25  H   UNL     1       4.353   7.642   3.877  0.00  0.00    +0.000 HD
BRANCH  24  26
ATOM     26  CA  UNL     1       4.313   6.534   5.576  0.00  0.00    +0.000 C 
BRANCH  26  27
ATOM     27  C   UNL     1       3.587   7.722   6.263  0.00  0.00    +0.000 C 
ATOM     28  C   UNL     1       2.777   7.372   7.502  0.00  0.00    +0.000 C 
ATOM     29  C   UNL     1       1.756   8.483   7.527  0.00  0.00    +0.000 C 
ATOM     30  C   UNL     1       1.459   8.682   6.057  0.00  0.00    +0.000 C 
ATOM     31  O   UNL     1       2.638   8.304   5.332  0.00  0.00    +0.000 OA
ENDBRANCH  26  27
BRANCH  26  32
ATOM     32  C   UNL     1       5.249   5.788   6.545  0.00  0.00    +0.000 C 
BRANCH  32  33
ATOM     33  O   UNL     1       6.266   6.651   7.048  0.00  0.00    +0.000 OA
ATOM     34  H   UNL     1       6.593   7.142   6.269  0.00  0.00    +0.000 HD
ENDBRANCH  32  33
ENDBRANCH  26  32
ENDBRANCH  24  26
ENDBRANCH  23  24
ENDBRANCH   4  23
TORSDOF 9
