REMARK  Name = 
REMARK  7 active torsions:
REMARK  status: ('A' for Active; 'I' for Inactive)
REMARK    1  A    between atoms: C_2  and  C_20
REMARK    2  A    between atoms: N_3  and  C_4
REMARK    3  A    between atoms: C_4  and  C_5
REMARK    4  A    between atoms: C_8  and  C_9
REMARK    5  A    between atoms: C_9  and  N_10
REMARK    6  A    between atoms: N_10  and  C_11
REMARK    7  A    between atoms: C_11  and  C_12
REMARK                            x       y       z     vdW  Elec       q    Type
REMARK                         _______ _______ _______ _____ _____    ______ ____
ROOT
ATOM      1  C   UNL     1       2.213   0.533   2.525  0.00  0.00    +0.000 C 
ENDROOT
BRANCH   1   2
ATOM      2  C   UNL     1       3.176   0.823   3.649  0.00  0.00    +0.000 A 
ATOM      3  C   UNL     1       3.414   2.139   4.033  0.00  0.00    +0.000 A 
ATOM      4  C   UNL     1       4.312   2.387   5.068  0.00  0.00    +0.000 A 
ATOM      5  C   UNL     1       4.958   1.320   5.697  0.00  0.00    +0.000 A 
ATOM      6  C   UNL     1       4.675   0.042   5.227  0.00  0.00    +0.000 A 
ATOM      7  N   UNL     1       3.811  -0.231   4.222  0.00  0.00    +0.000 NA
BRANCH   5   8
ATOM      8  C   UNL     1       5.930   1.536   6.828  0.00  0.00    +0.000 C 
BRANCH   8   9
ATOM      9  N   UNL     1       5.281   2.203   7.953  0.00  0.00    +0.000 NA
ATOM     10  H   UNL     1       4.491   1.638   8.266  0.00  0.00    +0.000 HD
BRANCH   9  11
ATOM     11  C   UNL     1       6.193   2.408   9.078  0.00  0.00    +0.000 C 
BRANCH  11  12
ATOM     12  C   UNL     1       5.479   3.092  10.213  0.00  0.00    +0.000 A 
ATOM     13  C   UNL     1       4.878   4.345  10.051  0.00  0.00    +0.000 A 
ATOM     14  C   UNL     1       4.181   4.923  11.108  0.00  0.00    +0.000 A 
ATOM     15  C   UNL     1       4.119   4.233  12.306  0.00  0.00    +0.000 A 
ATOM     16  N   UNL     1       4.707   3.035  12.514  0.00  0.00    +0.000 NA
ATOM     17  C   UNL     1       5.372   2.495  11.466  0.00  0.00    +0.000 A 
ENDBRANCH  11  12
ENDBRANCH   9  11
ENDBRANCH   8   9
ENDBRANCH   5   8
ENDBRANCH   1   2
BRANCH   1  20
ATOM     18  O   UNL     1       2.563   2.774   0.845  0.00  0.00    +0.000 OA
ATOM     19  C   UNL     1       2.967   1.678   0.472  0.00  0.00    +0.000 C 
ATOM     20  N   UNL     1       2.872   0.551   1.244  0.00  0.00    +0.000 N 
ATOM     21  H   UNL     1       3.183  -0.344   0.895  0.00  0.00    +0.000 HD
BRANCH  19  22
ATOM     22  C   UNL     1       3.623   1.495  -0.820  0.00  0.00    +0.000 A 
ATOM     23  C   UNL     1       4.291   2.544  -1.432  0.00  0.00    +0.000 A 
ATOM     24  S   UNL     1       5.015   2.107  -2.916  0.00  0.00    +0.000 S 
ATOM     25  C   UNL     1       4.430   0.513  -2.798  0.00  0.00    +0.000 A 
ATOM     26  N   UNL     1       4.700  -0.413  -3.758  0.00  0.00    +0.000 NA
ATOM     27  C   UNL     1       4.195  -1.580  -3.530  0.00  0.00    +0.000 A 
ATOM     28  N   UNL     1       3.434  -1.905  -2.437  0.00  0.00    +0.000 N 
ATOM     29  C   UNL     1       3.108  -0.997  -1.459  0.00  0.00    +0.000 A 
ATOM     30  O   UNL     1       2.403  -1.321  -0.512  0.00  0.00    +0.000 OA
ATOM     31  C   UNL     1       3.689   0.319  -1.648  0.00  0.00    +0.000 A 
ATOM     32  H   UNL     1       3.064  -2.835  -2.311  0.00  0.00    +0.000 HD
ENDBRANCH  19  22
ENDBRANCH   1  20
TORSDOF 7
