REMARK  Name = 
REMARK  5 active torsions:
REMARK  status: ('A' for Active; 'I' for Inactive)
REMARK    1  A    between atoms: C_2  and  C_4
REMARK    2  A    between atoms: C_7  and  N_8
REMARK    3  A    between atoms: N_8  and  C_9
REMARK    4  A    between atoms: C_9  and  C_10
REMARK    5  A    between atoms: C_14  and  C_15
REMARK                            x       y       z     vdW  Elec       q    Type
REMARK                         _______ _______ _______ _____ _____    ______ ____
ROOT
ATOM      1  N   UNL     1       5.173   0.737   4.820  0.00  0.00    +0.000 N 
ATOM      2  H   UNL     1       5.980   0.274   4.413  0.00  0.00    +0.000 HD
ENDROOT
BRANCH   1   6
ATOM      3  C   UNL     1       2.428   1.888   1.992  0.00  0.00    +0.000 A 
ATOM      4  C   UNL     1       2.031   1.190   3.118  0.00  0.00    +0.000 A 
ATOM      5  N   UNL     1       2.911   0.752   4.058  0.00  0.00    +0.000 NA
ATOM      6  C   UNL     1       4.214   1.034   3.847  0.00  0.00    +0.000 A 
ATOM      7  C   UNL     1       4.595   1.734   2.692  0.00  0.00    +0.000 A 
ATOM      8  N   UNL     1       3.734   2.171   1.735  0.00  0.00    +0.000 NA
BRANCH   3  10
ATOM      9  N   UNL     1       1.895   3.049  -0.065  0.00  0.00    +0.000 N 
ATOM     10  C   UNL     1       1.408   2.382   1.027  0.00  0.00    +0.000 C 
ATOM     11  O   UNL     1       0.209   2.210   1.198  0.00  0.00    +0.000 OA
ATOM     12  H   UNL     1       1.251   3.420  -0.749  0.00  0.00    +0.000 HD
ATOM     13  H   UNL     1       2.894   3.181  -0.177  0.00  0.00    +0.000 HD
ENDBRANCH   3  10
ENDBRANCH   1   6
BRANCH   1  14
ATOM     14  C   UNL     1       4.693   0.056   6.016  0.00  0.00    +0.000 C 
BRANCH  14  15
ATOM     15  C   UNL     1       5.609   0.397   7.163  0.00  0.00    +0.000 A 
ATOM     16  C   UNL     1       6.312  -0.575   7.856  0.00  0.00    +0.000 A 
ATOM     17  N   UNL     1       7.123  -0.309   8.904  0.00  0.00    +0.000 NA
ATOM     18  C   UNL     1       7.230   0.991   9.283  0.00  0.00    +0.000 A 
ATOM     19  C   UNL     1       6.568   2.064   8.682  0.00  0.00    +0.000 A 
ATOM     20  C   UNL     1       5.746   1.725   7.597  0.00  0.00    +0.000 A 
BRANCH  19  21
ATOM     21  C   UNL     1       6.706   3.455   9.156  0.00  0.00    +0.000 A 
ATOM     22  C   UNL     1       6.645   4.554   8.283  0.00  0.00    +0.000 A 
ATOM     23  C   UNL     1       6.749   5.859   8.766  0.00  0.00    +0.000 A 
ATOM     24  C   UNL     1       6.927   6.043  10.124  0.00  0.00    +0.000 A 
ATOM     25  N   UNL     1       7.004   5.030  11.007  0.00  0.00    +0.000 NA
ATOM     26  C   UNL     1       6.887   3.773  10.505  0.00  0.00    +0.000 A 
ENDBRANCH  19  21
ENDBRANCH  14  15
ENDBRANCH   1  14
TORSDOF 5
