REMARK  Name = 
REMARK  3 active torsions:
REMARK  status: ('A' for Active; 'I' for Inactive)
REMARK    1  A    between atoms: C_2  and  C_4
REMARK    2  A    between atoms: N_8  and  C_9
REMARK    3  A    between atoms: C_9  and  C_10
REMARK                            x       y       z     vdW  Elec       q    Type
REMARK                         _______ _______ _______ _____ _____    ______ ____
ROOT
ATOM      1  C   UNL     1       3.899  -2.774   1.491  0.00  0.00    +0.000 A 
ATOM      2  C   UNL     1       3.223  -2.932   2.676  0.00  0.00    +0.000 A 
ATOM      3  N   UNL     1       3.515  -2.241   3.800  0.00  0.00    +0.000 NA
ATOM      4  C   UNL     1       4.549  -1.383   3.742  0.00  0.00    +0.000 A 
ATOM      5  N   UNL     1       4.735  -0.602   4.885  0.00  0.00    +0.000 N 
ATOM      6  N   UNL     1       5.318  -1.220   2.653  0.00  0.00    +0.000 NA
ATOM      7  C   UNL     1       4.974  -1.918   1.545  0.00  0.00    +0.000 A 
ATOM      8  H   UNL     1       4.152  -1.029   5.597  0.00  0.00    +0.000 HD
ENDROOT
BRANCH   1  10
ATOM      9  N   UNL     1       2.210  -3.789   0.076  0.00  0.00    +0.000 N 
ATOM     10  C   UNL     1       3.525  -3.443   0.241  0.00  0.00    +0.000 C 
ATOM     11  O   UNL     1       4.346  -3.629  -0.646  0.00  0.00    +0.000 OA
ATOM     12  H   UNL     1       1.956  -4.130  -0.845  0.00  0.00    +0.000 HD
ATOM     13  H   UNL     1       1.461  -3.423   0.648  0.00  0.00    +0.000 HD
ENDBRANCH   1  10
BRANCH   5  14
ATOM     14  C   UNL     1       6.079  -0.173   5.304  0.00  0.00    +0.000 C 
ATOM     15  C   UNL     1       6.212   1.297   5.690  0.00  0.00    +0.000 C 
ATOM     16  C   UNL     1       6.905   0.788   4.470  0.00  0.00    +0.000 C 
BRANCH  14  17
ATOM     17  C   UNL     1       6.783  -1.203   6.169  0.00  0.00    +0.000 A 
ATOM     18  C   UNL     1       6.649  -1.220   7.566  0.00  0.00    +0.000 A 
ATOM     19  C   UNL     1       7.226  -2.234   8.328  0.00  0.00    +0.000 A 
ATOM     20  C   UNL     1       7.934  -3.222   7.670  0.00  0.00    +0.000 A 
ATOM     21  N   UNL     1       8.111  -3.248   6.333  0.00  0.00    +0.000 NA
ATOM     22  C   UNL     1       7.534  -2.245   5.623  0.00  0.00    +0.000 A 
ENDBRANCH  14  17
ENDBRANCH   5  14
TORSDOF 3
