REMARK  Name = 
REMARK  6 active torsions:
REMARK  status: ('A' for Active; 'I' for Inactive)
REMARK    1  A    between atoms: C_1  and  C_2
REMARK    2  A    between atoms: C_2  and  C_3
REMARK    3  A    between atoms: C_2  and  C_14
REMARK    4  A    between atoms: C_3  and  N_4
REMARK    5  A    between atoms: C_8  and  C_9
REMARK    6  A    between atoms: C_18  and  C_19
REMARK                            x       y       z     vdW  Elec       q    Type
REMARK                         _______ _______ _______ _____ _____    ______ ____
ROOT
ATOM      1  C   UNL     1       3.092  -1.236  -0.948  0.00  0.00    +0.000 C 
ENDROOT
BRANCH   1   2
ATOM      2  N   UNL     1       2.514  -1.579  -2.244  0.00  0.00    +0.000 N 
ATOM      3  C   UNL     1       3.173  -2.634  -2.897  0.00  0.00    +0.000 A 
ATOM      4  C   UNL     1       2.745  -3.043  -4.169  0.00  0.00    +0.000 A 
ATOM      5  N   UNL     1       3.331  -4.032  -4.897  0.00  0.00    +0.000 NA
ATOM      6  C   UNL     1       4.387  -4.627  -4.277  0.00  0.00    +0.000 A 
ATOM      7  C   UNL     1       4.806  -4.259  -3.011  0.00  0.00    +0.000 A 
ATOM      8  N   UNL     1       4.208  -3.266  -2.302  0.00  0.00    +0.000 NA
ATOM      9  H   UNL     1       2.493  -0.769  -2.857  0.00  0.00    +0.000 HD
BRANCH   6  10
ATOM     10  C   UNL     1       5.121  -5.693  -5.012  0.00  0.00    +0.000 C 
ATOM     11  N   UNL     1       4.651  -5.985  -6.264  0.00  0.00    +0.000 N 
ATOM     12  O   UNL     1       6.092  -6.266  -4.536  0.00  0.00    +0.000 OA
ATOM     13  H   UNL     1       3.853  -5.485  -6.639  0.00  0.00    +0.000 HD
ATOM     14  H   UNL     1       5.124  -6.683  -6.821  0.00  0.00    +0.000 HD
ENDBRANCH   6  10
ENDBRANCH   1   2
BRANCH   1  16
ATOM     15  C   UNL     1       0.922  -0.201  -0.025  0.00  0.00    +0.000 C 
ATOM     16  C   UNL     1       2.351  -0.036  -0.435  0.00  0.00    +0.000 C 
BRANCH  16  17
ATOM     17  C   UNL     1       2.951   1.305  -0.496  0.00  0.00    +0.000 A 
ATOM     18  C   UNL     1       4.275   1.531  -0.100  0.00  0.00    +0.000 A 
ATOM     19  C   UNL     1       4.832   2.811  -0.163  0.00  0.00    +0.000 A 
ATOM     20  C   UNL     1       4.077   3.881  -0.642  0.00  0.00    +0.000 A 
ATOM     21  C   UNL     1       2.756   3.680  -1.059  0.00  0.00    +0.000 A 
ATOM     22  C   UNL     1       2.200   2.392  -0.963  0.00  0.00    +0.000 A 
BRANCH  21  23
ATOM     23  C   UNL     1       1.929   4.805  -1.628  0.00  0.00    +0.000 C 
ATOM     24  F   UNL     1       2.589   5.994  -1.689  0.00  0.00    +0.000 F 
ATOM     25  F   UNL     1       1.513   4.544  -2.899  0.00  0.00    +0.000 F 
ATOM     26  F   UNL     1       0.798   5.040  -0.907  0.00  0.00    +0.000 F 
ENDBRANCH  21  23
ENDBRANCH  16  17
ENDBRANCH   1  16
TORSDOF 5
