REMARK  Name = 
REMARK  6 active torsions:
REMARK  status: ('A' for Active; 'I' for Inactive)
REMARK    1  A    between atoms: C_2  and  C_4
REMARK    2  A    between atoms: N_8  and  C_9
REMARK    3  A    between atoms: C_9  and  C_10
REMARK    4  A    between atoms: C_10  and  C_13
REMARK    5  A    between atoms: C_17  and  O_18
REMARK    6  A    between atoms: O_18  and  C_19
REMARK                            x       y       z     vdW  Elec       q    Type
REMARK                         _______ _______ _______ _____ _____    ______ ____
ROOT
ATOM      1  C   UNL     1       5.052  -1.038   6.030  0.00  0.00    +0.000 C 
ENDROOT
BRANCH   1   6
ATOM      2  C   UNL     1       2.969   0.164   1.472  0.00  0.00    +0.000 A 
ATOM      3  C   UNL     1       2.655  -0.838   2.383  0.00  0.00    +0.000 A 
ATOM      4  C   UNL     1       3.410  -0.953   3.552  0.00  0.00    +0.000 A 
ATOM      5  C   UNL     1       4.461  -0.073   3.791  0.00  0.00    +0.000 A 
ATOM      6  N   UNL     1       5.233  -0.112   4.919  0.00  0.00    +0.000 N 
ATOM      7  N   UNL     1       4.783   0.886   2.904  0.00  0.00    +0.000 NA
ATOM      8  C   UNL     1       4.047   0.985   1.765  0.00  0.00    +0.000 A 
ATOM      9  H   UNL     1       5.969   0.587   4.951  0.00  0.00    +0.000 HD
BRANCH   2  11
ATOM     10  N   UNL     1       0.913  -0.033   0.194  0.00  0.00    +0.000 N 
ATOM     11  C   UNL     1       2.218   0.373   0.217  0.00  0.00    +0.000 C 
ATOM     12  O   UNL     1       2.730   0.915  -0.754  0.00  0.00    +0.000 OA
ATOM     13  H   UNL     1       0.386   0.215  -0.634  0.00  0.00    +0.000 HD
ATOM     14  H   UNL     1       0.393  -0.244   1.034  0.00  0.00    +0.000 HD
ENDBRANCH   2  11
ENDBRANCH   1   6
BRANCH   1  15
ATOM     15  C   UNL     1       6.046  -0.816   7.199  0.00  0.00    +0.000 C 
ATOM     16  F   UNL     1       7.320  -0.872   6.709  0.00  0.00    +0.000 F 
ATOM     17  F   UNL     1       5.895   0.461   7.663  0.00  0.00    +0.000 F 
BRANCH  15  18
ATOM     18  C   UNL     1       5.815  -1.842   8.289  0.00  0.00    +0.000 A 
ATOM     19  C   UNL     1       4.936  -1.588   9.348  0.00  0.00    +0.000 A 
ATOM     20  C   UNL     1       4.743  -2.575  10.302  0.00  0.00    +0.000 A 
ATOM     21  N   UNL     1       5.356  -3.777  10.275  0.00  0.00    +0.000 NA
ATOM     22  C   UNL     1       6.204  -3.999   9.252  0.00  0.00    +0.000 A 
ATOM     23  C   UNL     1       6.460  -3.083   8.245  0.00  0.00    +0.000 A 
BRANCH  22  24
ATOM     24  O   UNL     1       6.851  -5.216   9.160  0.00  0.00    +0.000 OA
BRANCH  24  25
ATOM     25  C   UNL     1       6.922  -5.993  10.377  0.00  0.00    +0.000 C 
ATOM     26  C   UNL     1       7.903  -5.482  11.459  0.00  0.00    +0.000 C 
ATOM     27  C   UNL     1       8.465  -6.902  11.597  0.00  0.00    +0.000 C 
ATOM     28  C   UNL     1       7.793  -7.267  10.267  0.00  0.00    +0.000 C 
ENDBRANCH  24  25
ENDBRANCH  22  24
ENDBRANCH  15  18
ENDBRANCH   1  15
TORSDOF 6
