REMARK  Name = 
REMARK  8 active torsions:
REMARK  status: ('A' for Active; 'I' for Inactive)
REMARK    1  A    between atoms: C_1  and  C_2
REMARK    2  A    between atoms: C_2  and  C_3
REMARK    3  A    between atoms: C_2  and  C_4
REMARK    4  A    between atoms: C_2  and  C_5
REMARK    5  A    between atoms: N_7  and  C_8
REMARK    6  A    between atoms: C_8  and  C_9
REMARK    7  A    between atoms: C_12  and  C_13
REMARK    8  A    between atoms: C_13  and  N_14
REMARK                            x       y       z     vdW  Elec       q    Type
REMARK                         _______ _______ _______ _____ _____    ______ ____
ROOT
ATOM      1  C   UNL     1       3.068  -0.431   1.361  0.00  0.00    +0.000 A 
ATOM      2  N   UNL     1       3.568   0.415   2.275  0.00  0.00    +0.000 NA
ATOM      3  N   UNL     1       3.784  -0.349   3.369  0.00  0.00    +0.000 N 
ATOM      4  C   UNL     1       3.529  -1.685   3.167  0.00  0.00    +0.000 A 
ATOM      5  C   UNL     1       3.666  -2.809   3.997  0.00  0.00    +0.000 A 
ATOM      6  C   UNL     1       3.268  -4.048   3.488  0.00  0.00    +0.000 A 
ATOM      7  C   UNL     1       2.761  -4.161   2.198  0.00  0.00    +0.000 A 
ATOM      8  C   UNL     1       2.643  -3.033   1.376  0.00  0.00    +0.000 A 
ATOM      9  C   UNL     1       3.035  -1.770   1.865  0.00  0.00    +0.000 A 
ENDROOT
BRANCH   1  11
ATOM     10  C   UNL     1       2.803   1.622  -0.120  0.00  0.00    +0.000 C 
ATOM     11  C   UNL     1       2.624   0.089  -0.004  0.00  0.00    +0.000 C 
ATOM     12  C   UNL     1       1.130  -0.216  -0.236  0.00  0.00    +0.000 C 
ATOM     13  C   UNL     1       3.450  -0.557  -1.133  0.00  0.00    +0.000 C 
ENDBRANCH   1  11
BRANCH   3  14
ATOM     14  C   UNL     1       4.261   0.281   4.596  0.00  0.00    +0.000 C 
BRANCH  14  15
ATOM     15  C   UNL     1       3.110   0.686   5.487  0.00  0.00    +0.000 A 
ATOM     16  C   UNL     1       2.581  -0.206   6.429  0.00  0.00    +0.000 A 
ATOM     17  C   UNL     1       1.435   0.125   7.157  0.00  0.00    +0.000 A 
ATOM     18  C   UNL     1       0.797   1.360   6.975  0.00  0.00    +0.000 A 
ATOM     19  C   UNL     1       1.354   2.267   6.062  0.00  0.00    +0.000 A 
ATOM     20  C   UNL     1       2.497   1.936   5.329  0.00  0.00    +0.000 A 
BRANCH  18  21
ATOM     21  C   UNL     1      -0.527   1.618   7.652  0.00  0.00    +0.000 C 
BRANCH  21  22
ATOM     22  N   UNL     1      -0.751   3.020   7.989  0.00  0.00    +0.000 NA
ATOM     23  H   UNL     1      -0.038   3.313   8.655  0.00  0.00    +0.000 HD
ATOM     24  H   UNL     1      -1.646   3.104   8.467  0.00  0.00    +0.000 HD
ENDBRANCH  21  22
ENDBRANCH  18  21
ENDBRANCH  14  15
ENDBRANCH   3  14
TORSDOF 5
