REMARK  Name = 
REMARK  4 active torsions:
REMARK  status: ('A' for Active; 'I' for Inactive)
REMARK    1  A    between atoms: C_2  and  C_3
REMARK    2  A    between atoms: N_7  and  C_8
REMARK    3  A    between atoms: C_8  and  C_9
REMARK    4  A    between atoms: C_14  and  C_15
REMARK                            x       y       z     vdW  Elec       q    Type
REMARK                         _______ _______ _______ _____ _____    ______ ____
ROOT
ATOM      1  C   UNL     1      -4.416   1.100  -0.208  0.00  0.00    +0.000 C 
ATOM      2  C   UNL     1      -4.655   2.259  -1.148  0.00  0.00    +0.000 C 
ATOM      3  C   UNL     1      -4.466   2.527   0.308  0.00  0.00    +0.000 C 
ENDROOT
BRANCH   1   8
ATOM      4  C   UNL     1      -1.607  -1.443  -3.657  0.00  0.00    +0.000 A 
ATOM      5  C   UNL     1      -1.459  -2.072  -2.423  0.00  0.00    +0.000 A 
ATOM      6  C   UNL     1      -2.000  -1.472  -1.285  0.00  0.00    +0.000 A 
ATOM      7  C   UNL     1      -2.694  -0.269  -1.405  0.00  0.00    +0.000 A 
ATOM      8  N   UNL     1      -3.141   0.368  -0.235  0.00  0.00    +0.000 N 
ATOM      9  N   UNL     1      -2.910   0.299  -2.607  0.00  0.00    +0.000 NA
ATOM     10  C   UNL     1      -2.351  -0.279  -3.699  0.00  0.00    +0.000 A 
ATOM     11  H   UNL     1      -2.382   0.660   0.367  0.00  0.00    +0.000 HD
BRANCH   4  13
ATOM     12  N   UNL     1      -0.454  -2.335  -5.793  0.00  0.00    +0.000 NA
ATOM     13  C   UNL     1      -0.983  -1.948  -4.838  0.00  0.00    +0.000 C 
ENDBRANCH   4  13
ENDBRANCH   1   8
BRANCH   1  14
ATOM     14  C   UNL     1      -5.519   0.149   0.232  0.00  0.00    +0.000 A 
ATOM     15  C   UNL     1      -5.799  -0.039   1.600  0.00  0.00    +0.000 A 
ATOM     16  C   UNL     1      -6.505  -1.156   2.049  0.00  0.00    +0.000 A 
ATOM     17  C   UNL     1      -6.939  -2.102   1.129  0.00  0.00    +0.000 A 
ATOM     18  F   UNL     1      -7.508  -3.227   1.587  0.00  0.00    +0.000 F 
ATOM     19  C   UNL     1      -6.737  -1.915  -0.234  0.00  0.00    +0.000 A 
ATOM     20  C   UNL     1      -6.064  -0.772  -0.681  0.00  0.00    +0.000 A 
BRANCH  19  21
ATOM     21  C   UNL     1      -7.101  -2.936  -1.165  0.00  0.00    +0.000 C 
ATOM     22  N   UNL     1      -7.352  -3.761  -1.943  0.00  0.00    +0.000 NA
ENDBRANCH  19  21
ENDBRANCH   1  14
TORSDOF 4
