REMARK  Name = 
REMARK  5 active torsions:
REMARK  status: ('A' for Active; 'I' for Inactive)
REMARK    1  A    between atoms: C_2  and  C_17
REMARK    2  A    between atoms: N_3  and  C_4
REMARK    3  A    between atoms: C_4  and  C_5
REMARK    4  A    between atoms: C_8  and  C_9
REMARK    5  A    between atoms: C_9  and  C_10
REMARK                            x       y       z     vdW  Elec       q    Type
REMARK                         _______ _______ _______ _____ _____    ______ ____
ROOT
ATOM      1  O   UNL     1       0.783  -0.368  -0.332  0.00  0.00    +0.000 OA
ATOM      2  C   UNL     1       1.944  -0.723  -0.507  0.00  0.00    +0.000 C 
ATOM      3  N   UNL     1       2.663  -1.395   0.453  0.00  0.00    +0.000 N 
ATOM      4  H   UNL     1       3.671  -1.451   0.383  0.00  0.00    +0.000 HD
ENDROOT
BRANCH   2   5
ATOM      5  C   UNL     1       2.635  -0.458  -1.768  0.00  0.00    +0.000 A 
ATOM      6  C   UNL     1       1.935  -0.362  -2.961  0.00  0.00    +0.000 A 
ATOM      7  S   UNL     1       2.923   0.042  -4.295  0.00  0.00    +0.000 S 
ATOM      8  C   UNL     1       4.313   0.112  -3.314  0.00  0.00    +0.000 A 
ATOM      9  N   UNL     1       5.526   0.470  -3.820  0.00  0.00    +0.000 NA
ATOM     10  C   UNL     1       6.470   0.515  -2.943  0.00  0.00    +0.000 A 
ATOM     11  N   UNL     1       6.327   0.216  -1.610  0.00  0.00    +0.000 N 
ATOM     12  C   UNL     1       5.144  -0.215  -1.074  0.00  0.00    +0.000 A 
ATOM     13  O   UNL     1       5.084  -0.597   0.090  0.00  0.00    +0.000 OA
ATOM     14  C   UNL     1       4.035  -0.214  -2.000  0.00  0.00    +0.000 A 
ATOM     15  H   UNL     1       7.119   0.217  -0.986  0.00  0.00    +0.000 HD
ENDBRANCH   2   5
BRANCH   3  16
ATOM     16  C   UNL     1       2.096  -1.587   1.765  0.00  0.00    +0.000 C 
BRANCH  16  17
ATOM     17  C   UNL     1       3.031  -2.296   2.707  0.00  0.00    +0.000 A 
ATOM     18  C   UNL     1       3.907  -1.560   3.516  0.00  0.00    +0.000 A 
ATOM     19  C   UNL     1       4.731  -2.198   4.452  0.00  0.00    +0.000 A 
ATOM     20  C   UNL     1       4.699  -3.590   4.597  0.00  0.00    +0.000 A 
ATOM     21  C   UNL     1       3.844  -4.327   3.762  0.00  0.00    +0.000 A 
ATOM     22  C   UNL     1       3.026  -3.690   2.820  0.00  0.00    +0.000 A 
BRANCH  20  23
ATOM     23  C   UNL     1       5.602  -4.307   5.583  0.00  0.00    +0.000 C 
BRANCH  23  24
ATOM     24  C   UNL     1       5.421  -3.939   7.071  0.00  0.00    +0.000 C 
ATOM     25  C   UNL     1       6.359  -4.737   7.976  0.00  0.00    +0.000 C 
ATOM     26  C   UNL     1       5.625  -4.830   9.301  0.00  0.00    +0.000 C 
ATOM     27  C   UNL     1       4.156  -4.670   8.957  0.00  0.00    +0.000 C 
ATOM     28  N   UNL     1       4.079  -4.283   7.553  0.00  0.00    +0.000 NA
ATOM     29  H   UNL     1       3.443  -3.497   7.416  0.00  0.00    +0.000 HD
ENDBRANCH  23  24
ENDBRANCH  20  23
ENDBRANCH  16  17
ENDBRANCH   3  16
TORSDOF 5
