REMARK  Name = 
REMARK  7 active torsions:
REMARK  status: ('A' for Active; 'I' for Inactive)
REMARK    1  A    between atoms: C_1  and  O_2
REMARK    2  A    between atoms: O_2  and  C_3
REMARK    3  A    between atoms: C_10  and  C_11
REMARK    4  A    between atoms: N_13  and  C_14
REMARK    5  A    between atoms: C_14  and  C_15
REMARK    6  A    between atoms: C_18  and  N_19
REMARK    7  A    between atoms: C_20  and  C_22
REMARK                            x       y       z     vdW  Elec       q    Type
REMARK                         _______ _______ _______ _____ _____    ______ ____
ROOT
ATOM      1  C   UNL     1       2.146  -3.478   0.264  0.00  0.00    +0.000 A 
ATOM      2  C   UNL     1       1.634  -4.761   0.482  0.00  0.00    +0.000 A 
ATOM      3  C   UNL     1       0.627  -4.984   1.430  0.00  0.00    +0.000 A 
ATOM      4  C   UNL     1       0.095  -3.928   2.170  0.00  0.00    +0.000 A 
ATOM      5  C   UNL     1       0.603  -2.641   1.953  0.00  0.00    +0.000 A 
ATOM      6  C   UNL     1       1.617  -2.417   1.008  0.00  0.00    +0.000 A 
ENDROOT
BRANCH   4   7
ATOM      7  N   UNL     1      -0.922  -4.082   3.143  0.00  0.00    +0.000 N 
ATOM      8  C   UNL     1      -1.576  -5.258   3.494  0.00  0.00    +0.000 C 
ATOM      9  O   UNL     1      -1.447  -6.337   2.924  0.00  0.00    +0.000 OA
ATOM     10  H   UNL     1      -1.216  -3.236   3.614  0.00  0.00    +0.000 HD
BRANCH   8  11
ATOM     11  C   UNL     1      -2.547  -5.089   4.674  0.00  0.00    +0.000 C 
ATOM     12  C   UNL     1      -1.839  -4.591   5.940  0.00  0.00    +0.000 C 
ATOM     13  C   UNL     1      -0.957  -5.682   6.546  0.00  0.00    +0.000 C 
ATOM     14  N   UNL     1      -1.738  -6.872   6.877  0.00  0.00    +0.000 NA
ATOM     15  C   UNL     1      -2.389  -7.427   5.688  0.00  0.00    +0.000 C 
ATOM     16  C   UNL     1      -3.291  -6.399   4.996  0.00  0.00    +0.000 C 
ATOM     17  H   UNL     1      -2.448  -6.635   7.569  0.00  0.00    +0.000 HD
ENDBRANCH   8  11
ENDBRANCH   4   7
BRANCH   1  18
ATOM     18  C   UNL     1       3.207  -3.255  -0.786  0.00  0.00    +0.000 C 
BRANCH  18  21
ATOM     19  C   UNL     1       3.371  -2.766  -3.194  0.00  0.00    +0.000 C 
ATOM     20  O   UNL     1       4.599  -2.829  -3.154  0.00  0.00    +0.000 OA
ATOM     21  N   UNL     1       2.617  -2.960  -2.070  0.00  0.00    +0.000 N 
ATOM     22  H   UNL     1       1.607  -2.977  -2.134  0.00  0.00    +0.000 HD
BRANCH  19  30
ATOM     23  C   UNL     1       0.039  -2.529  -4.039  0.00  0.00    +0.000 A 
ATOM     24  N   UNL     1      -1.159  -2.280  -4.604  0.00  0.00    +0.000 NA
ATOM     25  C   UNL     1      -1.181  -1.860  -5.873  0.00  0.00    +0.000 A 
ATOM     26  N   UNL     1      -0.135  -1.667  -6.670  0.00  0.00    +0.000 NA
ATOM     27  C   UNL     1       1.039  -1.919  -6.067  0.00  0.00    +0.000 A 
ATOM     28  S   UNL     1       2.484  -1.745  -6.941  0.00  0.00    +0.000 S 
ATOM     29  C   UNL     1       3.413  -2.178  -5.586  0.00  0.00    +0.000 A 
ATOM     30  C   UNL     1       2.662  -2.447  -4.447  0.00  0.00    +0.000 A 
ATOM     31  C   UNL     1       1.235  -2.331  -4.752  0.00  0.00    +0.000 A 
BRANCH  23  33
ATOM     32  C   UNL     1      -1.214  -3.167  -2.152  0.00  0.00    +0.000 C 
ATOM     33  O   UNL     1       0.072  -2.999  -2.742  0.00  0.00    +0.000 OA
ENDBRANCH  23  33
ENDBRANCH  19  30
ENDBRANCH  18  21
ENDBRANCH   1  18
TORSDOF 6
