REMARK  Name = 
REMARK  2 active torsions:
REMARK  status: ('A' for Active; 'I' for Inactive)
REMARK    1  A    between atoms: C_4  and  C_5
REMARK    2  A    between atoms: C_5  and  N_6
REMARK                            x       y       z     vdW  Elec       q    Type
REMARK                         _______ _______ _______ _____ _____    ______ ____
ROOT
ATOM      1  N   UNL     1      -0.506  -3.805   0.647  0.00  0.00    +0.000 N 
ATOM      2  C   UNL     1       0.556  -3.947   1.511  0.00  0.00    +0.000 A 
ATOM      3  C   UNL     1       0.729  -5.294   1.748  0.00  0.00    +0.000 A 
ATOM      4  C   UNL     1      -0.233  -5.988   0.977  0.00  0.00    +0.000 A 
ATOM      5  N   UNL     1      -0.470  -7.320   0.913  0.00  0.00    +0.000 NA
ATOM      6  C   UNL     1      -1.462  -7.674   0.069  0.00  0.00    +0.000 A 
ATOM      7  C   UNL     1      -2.190  -6.808  -0.734  0.00  0.00    +0.000 A 
ATOM      8  C   UNL     1      -1.935  -5.442  -0.668  0.00  0.00    +0.000 A 
ATOM      9  C   UNL     1      -0.950  -5.045   0.241  0.00  0.00    +0.000 A 
ENDROOT
BRANCH   1  10
ATOM     10  C   UNL     1      -1.090  -2.529   0.249  0.00  0.00    +0.000 C 
BRANCH  10  14
ATOM     11  C   UNL     1      -4.734  -1.391   2.169  0.00  0.00    +0.000 A 
ATOM     12  C   UNL     1      -3.836  -2.175   2.885  0.00  0.00    +0.000 A 
ATOM     13  C   UNL     1      -2.642  -2.572   2.284  0.00  0.00    +0.000 A 
ATOM     14  C   UNL     1      -2.378  -2.191   0.968  0.00  0.00    +0.000 A 
ATOM     15  N   UNL     1      -3.249  -1.416   0.268  0.00  0.00    +0.000 NA
ATOM     16  C   UNL     1      -4.396  -1.037   0.877  0.00  0.00    +0.000 A 
ENDBRANCH  10  14
ENDBRANCH   1  10
TORSDOF 2
