REMARK  Name = 
REMARK  11 active torsions:
REMARK  status: ('A' for Active; 'I' for Inactive)
REMARK    1  A    between atoms: N_1  and  C_2
REMARK    2  A    between atoms: C_2  and  C_3
REMARK    3  A    between atoms: C_3  and  N_4
REMARK    4  A    between atoms: N_4  and  C_5
REMARK    5  A    between atoms: C_5  and  C_6
REMARK    6  A    between atoms: C_10  and  C_11
REMARK    7  A    between atoms: C_11  and  O_12
REMARK    8  A    between atoms: O_12  and  C_13
REMARK    9  A    between atoms: C_16  and  C_17
REMARK   10  A    between atoms: C_17  and  N_18
REMARK   11  A    between atoms: C_19  and  C_21
REMARK                            x       y       z     vdW  Elec       q    Type
REMARK                         _______ _______ _______ _____ _____    ______ ____
ROOT
ATOM      1  C   UNL     1      11.593  -1.217   1.422  0.00  0.00    +0.000 A 
ATOM      2  C   UNL     1      11.573  -1.891   0.213  0.00  0.00    +0.000 A 
ATOM      3  C   UNL     1      12.440  -2.971   0.040  0.00  0.00    +0.000 A 
ATOM      4  C   UNL     1      13.330  -3.316   1.061  0.00  0.00    +0.000 A 
ATOM      5  C   UNL     1      13.265  -2.577   2.236  0.00  0.00    +0.000 A 
ATOM      6  N   UNL     1      12.418  -1.542   2.440  0.00  0.00    +0.000 NA
ENDROOT
BRANCH   1   7
ATOM      7  O   UNL     1      10.740  -0.137   1.555  0.00  0.00    +0.000 OA
BRANCH   7   8
ATOM      8  C   UNL     1      10.462   0.149   2.928  0.00  0.00    +0.000 C 
BRANCH   8  13
ATOM      9  C   UNL     1       7.518   2.586   2.616  0.00  0.00    +0.000 A 
ATOM     10  C   UNL     1       7.964   3.638   3.426  0.00  0.00    +0.000 A 
ATOM     11  C   UNL     1       9.213   3.577   4.040  0.00  0.00    +0.000 A 
ATOM     12  C   UNL     1      10.025   2.458   3.858  0.00  0.00    +0.000 A 
ATOM     13  C   UNL     1       9.603   1.390   3.052  0.00  0.00    +0.000 A 
ATOM     14  C   UNL     1       8.349   1.467   2.429  0.00  0.00    +0.000 A 
BRANCH   9  15
ATOM     15  C   UNL     1       6.155   2.657   1.966  0.00  0.00    +0.000 C 
BRANCH  15  16
ATOM     16  N   UNL     1       5.976   3.810   1.074  0.00  0.00    +0.000 NA
ATOM     17  H   UNL     1       5.045   3.716   0.660  0.00  0.00    +0.000 HD
BRANCH  16  18
ATOM     18  C   UNL     1       6.925   3.815  -0.054  0.00  0.00    +0.000 C 
BRANCH  18  19
ATOM     19  C   UNL     1       6.767   2.616  -1.009  0.00  0.00    +0.000 C 
BRANCH  19  20
ATOM     20  N   UNL     1       5.387   2.494  -1.495  0.00  0.00    +0.000 NA
ATOM     21  H   UNL     1       5.329   1.696  -2.125  0.00  0.00    +0.000 HD
ATOM     22  H   UNL     1       5.164   3.314  -2.058  0.00  0.00    +0.000 HD
ENDBRANCH  19  20
ENDBRANCH  18  19
ENDBRANCH  16  18
ENDBRANCH  15  16
ENDBRANCH   9  15
ENDBRANCH   8  13
ENDBRANCH   7   8
ENDBRANCH   1   7
BRANCH   4  23
ATOM     23  C   UNL     1      14.289  -4.463   0.927  0.00  0.00    +0.000 C 
BRANCH  23  24
ATOM     24  N   UNL     1      13.698  -5.683   1.410  0.00  0.00    +0.000 N 
ATOM     25  C   UNL     1      14.426  -6.838   1.537  0.00  0.00    +0.000 C 
ATOM     26  O   UNL     1      15.629  -6.881   1.288  0.00  0.00    +0.000 OA
ATOM     27  H   UNL     1      12.685  -5.745   1.378  0.00  0.00    +0.000 HD
BRANCH  25  28
ATOM     28  C   UNL     1      13.703  -8.007   2.052  0.00  0.00    +0.000 A 
ATOM     29  C   UNL     1      14.402  -9.044   2.662  0.00  0.00    +0.000 A 
ATOM     30  S   UNL     1      13.396 -10.275   3.273  0.00  0.00    +0.000 S 
ATOM     31  C   UNL     1      11.997  -9.500   2.695  0.00  0.00    +0.000 A 
ATOM     32  N   UNL     1      10.765 -10.046   2.882  0.00  0.00    +0.000 NA
ATOM     33  C   UNL     1       9.795  -9.365   2.367  0.00  0.00    +0.000 A 
ATOM     34  N   UNL     1       9.945  -8.187   1.682  0.00  0.00    +0.000 N 
ATOM     35  C   UNL     1      11.165  -7.589   1.489  0.00  0.00    +0.000 A 
ATOM     36  O   UNL     1      11.262  -6.515   0.899  0.00  0.00    +0.000 OA
ATOM     37  C   UNL     1      12.290  -8.313   2.048  0.00  0.00    +0.000 A 
ATOM     38  H   UNL     1       9.144  -7.701   1.307  0.00  0.00    +0.000 HD
ENDBRANCH  25  28
ENDBRANCH  23  24
ENDBRANCH   4  23
TORSDOF 11
