REMARK  Name = 
REMARK  10 active torsions:
REMARK  status: ('A' for Active; 'I' for Inactive)
REMARK    1  A    between atoms: N_1  and  C_2
REMARK    2  A    between atoms: C_2  and  C_3
REMARK    3  A    between atoms: C_3  and  N_4
REMARK    4  A    between atoms: N_4  and  C_5
REMARK    5  A    between atoms: C_5  and  C_6
REMARK    6  A    between atoms: C_9  and  C_10
REMARK    7  A    between atoms: C_10  and  C_11
REMARK    8  A    between atoms: C_14  and  C_15
REMARK    9  A    between atoms: C_15  and  N_16
REMARK   10  A    between atoms: C_17  and  C_19
REMARK                            x       y       z     vdW  Elec       q    Type
REMARK                         _______ _______ _______ _____ _____    ______ ____
ROOT
ATOM      1  C   UNL     1      11.259   2.730   1.561  0.00  0.00    +0.000 A 
ATOM      2  C   UNL     1      11.010   1.586   2.332  0.00  0.00    +0.000 A 
ATOM      3  C   UNL     1      11.550   1.459   3.616  0.00  0.00    +0.000 A 
ATOM      4  C   UNL     1      12.341   2.478   4.160  0.00  0.00    +0.000 A 
ATOM      5  C   UNL     1      12.633   3.598   3.370  0.00  0.00    +0.000 A 
ATOM      6  C   UNL     1      12.090   3.727   2.088  0.00  0.00    +0.000 A 
ENDROOT
BRANCH   1   7
ATOM      7  C   UNL     1      10.623   2.894   0.201  0.00  0.00    +0.000 C 
BRANCH   7  11
ATOM      8  C   UNL     1       6.871   4.930   0.226  0.00  0.00    +0.000 A 
ATOM      9  C   UNL     1       6.876   3.545   0.375  0.00  0.00    +0.000 A 
ATOM     10  C   UNL     1       8.096   2.871   0.378  0.00  0.00    +0.000 A 
ATOM     11  C   UNL     1       9.283   3.586   0.225  0.00  0.00    +0.000 A 
ATOM     12  C   UNL     1       9.182   4.967   0.100  0.00  0.00    +0.000 A 
ATOM     13  N   UNL     1       8.015   5.652   0.094  0.00  0.00    +0.000 NA
BRANCH   8  14
ATOM     14  C   UNL     1       5.558   5.689   0.288  0.00  0.00    +0.000 C 
BRANCH  14  15
ATOM     15  N   UNL     1       4.833   5.547   1.569  0.00  0.00    +0.000 NA
ATOM     16  H   UNL     1       4.034   6.187   1.520  0.00  0.00    +0.000 HD
BRANCH  15  17
ATOM     17  C   UNL     1       5.641   6.004   2.715  0.00  0.00    +0.000 C 
BRANCH  17  18
ATOM     18  C   UNL     1       5.950   7.513   2.692  0.00  0.00    +0.000 C 
BRANCH  18  19
ATOM     19  N   UNL     1       4.717   8.303   2.579  0.00  0.00    +0.000 NA
ATOM     20  H   UNL     1       4.963   9.292   2.568  0.00  0.00    +0.000 HD
ATOM     21  H   UNL     1       4.161   8.160   3.422  0.00  0.00    +0.000 HD
ENDBRANCH  18  19
ENDBRANCH  17  18
ENDBRANCH  15  17
ENDBRANCH  14  15
ENDBRANCH   8  14
ENDBRANCH   7  11
ENDBRANCH   1   7
BRANCH   4  22
ATOM     22  C   UNL     1      12.878   2.374   5.564  0.00  0.00    +0.000 C 
BRANCH  22  23
ATOM     23  N   UNL     1      14.171   1.743   5.590  0.00  0.00    +0.000 N 
ATOM     24  C   UNL     1      14.803   1.468   6.777  0.00  0.00    +0.000 C 
ATOM     25  O   UNL     1      14.274   1.685   7.862  0.00  0.00    +0.000 OA
ATOM     26  H   UNL     1      14.710   1.769   4.731  0.00  0.00    +0.000 HD
BRANCH  24  27
ATOM     27  C   UNL     1      16.129   0.844   6.683  0.00  0.00    +0.000 A 
ATOM     28  C   UNL     1      16.622   0.107   7.751  0.00  0.00    +0.000 A 
ATOM     29  S   UNL     1      18.155  -0.579   7.460  0.00  0.00    +0.000 S 
ATOM     30  C   UNL     1      18.237   0.124   5.914  0.00  0.00    +0.000 A 
ATOM     31  N   UNL     1      19.329  -0.053   5.122  0.00  0.00    +0.000 NA
ATOM     32  C   UNL     1      19.267   0.557   3.986  0.00  0.00    +0.000 A 
ATOM     33  N   UNL     1      18.214   1.323   3.566  0.00  0.00    +0.000 N 
ATOM     34  C   UNL     1      17.082   1.516   4.323  0.00  0.00    +0.000 A 
ATOM     35  O   UNL     1      16.142   2.183   3.902  0.00  0.00    +0.000 OA
ATOM     36  C   UNL     1      17.102   0.857   5.615  0.00  0.00    +0.000 A 
ATOM     37  H   UNL     1      18.225   1.767   2.660  0.00  0.00    +0.000 HD
ENDBRANCH  24  27
ENDBRANCH  22  23
ENDBRANCH   4  22
TORSDOF 10
