REMARK  Name = 
REMARK  7 active torsions:
REMARK  status: ('A' for Active; 'I' for Inactive)
REMARK    1  A    between atoms: C_2  and  C_4
REMARK    2  A    between atoms: C_7  and  N_8
REMARK    3  A    between atoms: N_8  and  C_9
REMARK    4  A    between atoms: C_9  and  C_10
REMARK    5  A    between atoms: C_10  and  C_13
REMARK    6  A    between atoms: C_17  and  N_18
REMARK    7  A    between atoms: N_18  and  C_19
REMARK                            x       y       z     vdW  Elec       q    Type
REMARK                         _______ _______ _______ _____ _____    ______ ____
ROOT
ATOM      1  C   UNL     1       5.249   6.225  -4.375  0.00  0.00    +0.000 C 
ATOM      2  F   UNL     1       6.581   6.248  -4.074  0.00  0.00    +0.000 F 
ATOM      3  F   UNL     1       5.164   5.583  -5.581  0.00  0.00    +0.000 F 
ENDROOT
BRANCH   1   4
ATOM      4  C   UNL     1       4.658   7.623  -4.428  0.00  0.00    +0.000 A 
ATOM      5  C   UNL     1       5.107   8.628  -3.561  0.00  0.00    +0.000 A 
ATOM      6  C   UNL     1       4.524   9.894  -3.592  0.00  0.00    +0.000 A 
ATOM      7  C   UNL     1       3.488  10.170  -4.488  0.00  0.00    +0.000 A 
ATOM      8  C   UNL     1       3.042   9.197  -5.388  0.00  0.00    +0.000 A 
ATOM      9  C   UNL     1       3.622   7.922  -5.329  0.00  0.00    +0.000 A 
BRANCH   8  10
ATOM     10  N   UNL     1       1.956   9.397  -6.256  0.00  0.00    +0.000 N 
ATOM     11  H   UNL     1       2.038   8.907  -7.141  0.00  0.00    +0.000 HD
BRANCH  10  12
ATOM     12  C   UNL     1       1.116  10.536  -6.350  0.00  0.00    +0.000 C 
ATOM     13  C   UNL     1      -0.003  10.505  -5.300  0.00  0.00    +0.000 C 
ATOM     14  C   UNL     1      -0.903  10.856  -6.481  0.00  0.00    +0.000 C 
ATOM     15  O   UNL     1       0.135  10.459  -7.416  0.00  0.00    +0.000 OA
ENDBRANCH  10  12
ENDBRANCH   8  10
ENDBRANCH   1   4
BRANCH   1  16
ATOM     16  C   UNL     1       4.505   5.366  -3.321  0.00  0.00    +0.000 C 
BRANCH  16  17
ATOM     17  N   UNL     1       5.002   3.979  -3.205  0.00  0.00    +0.000 N 
ATOM     18  H   UNL     1       5.253   3.545  -4.093  0.00  0.00    +0.000 HD
BRANCH  17  22
ATOM     19  C   UNL     1       3.386   1.313  -0.352  0.00  0.00    +0.000 A 
ATOM     20  C   UNL     1       2.881   2.608  -0.453  0.00  0.00    +0.000 A 
ATOM     21  C   UNL     1       3.397   3.491  -1.408  0.00  0.00    +0.000 A 
ATOM     22  C   UNL     1       4.403   3.101  -2.300  0.00  0.00    +0.000 A 
ATOM     23  C   UNL     1       4.918   1.802  -2.169  0.00  0.00    +0.000 A 
ATOM     24  C   UNL     1       4.420   0.915  -1.203  0.00  0.00    +0.000 A 
BRANCH  19  26
ATOM     25  N   UNL     1       1.579   0.536   1.075  0.00  0.00    +0.000 N 
ATOM     26  C   UNL     1       2.875   0.363   0.670  0.00  0.00    +0.000 C 
ATOM     27  O   UNL     1       3.562  -0.546   1.110  0.00  0.00    +0.000 OA
ATOM     28  H   UNL     1       1.206  -0.164   1.707  0.00  0.00    +0.000 HD
ATOM     29  H   UNL     1       0.919   1.110   0.567  0.00  0.00    +0.000 HD
ENDBRANCH  19  26
ENDBRANCH  17  22
ENDBRANCH  16  17
ENDBRANCH   1  16
TORSDOF 7
