REMARK  Name = 
REMARK  5 active torsions:
REMARK  status: ('A' for Active; 'I' for Inactive)
REMARK    1  A    between atoms: C_2  and  C_17
REMARK    2  A    between atoms: N_3  and  C_4
REMARK    3  A    between atoms: C_4  and  C_5
REMARK    4  A    between atoms: C_8  and  C_9
REMARK    5  A    between atoms: C_9  and  C_10
REMARK                            x       y       z     vdW  Elec       q    Type
REMARK                         _______ _______ _______ _____ _____    ______ ____
ROOT
ATOM      1  O   UNL     1       3.943  -0.064  -0.335  0.00  0.00    +0.000 OA
ATOM      2  C   UNL     1       3.432   0.760   0.416  0.00  0.00    +0.000 C 
ATOM      3  N   UNL     1       2.596   1.746  -0.040  0.00  0.00    +0.000 N 
ATOM      4  H   UNL     1       2.346   2.508   0.581  0.00  0.00    +0.000 HD
ENDROOT
BRANCH   2   5
ATOM      5  C   UNL     1       3.630   0.705   1.869  0.00  0.00    +0.000 A 
ATOM      6  C   UNL     1       4.004  -0.490   2.468  0.00  0.00    +0.000 A 
ATOM      7  S   UNL     1       4.154  -0.386   4.164  0.00  0.00    +0.000 S 
ATOM      8  C   UNL     1       3.777   1.274   4.152  0.00  0.00    +0.000 A 
ATOM      9  N   UNL     1       3.754   1.996   5.302  0.00  0.00    +0.000 NA
ATOM     10  C   UNL     1       3.498   3.251   5.140  0.00  0.00    +0.000 A 
ATOM     11  N   UNL     1       3.251   3.848   3.932  0.00  0.00    +0.000 N 
ATOM     12  C   UNL     1       3.187   3.143   2.752  0.00  0.00    +0.000 A 
ATOM     13  O   UNL     1       2.835   3.687   1.709  0.00  0.00    +0.000 OA
ATOM     14  C   UNL     1       3.513   1.733   2.873  0.00  0.00    +0.000 A 
ATOM     15  H   UNL     1       3.029   4.831   3.877  0.00  0.00    +0.000 HD
ENDBRANCH   2   5
BRANCH   3  16
ATOM     16  C   UNL     1       2.344   1.959  -1.442  0.00  0.00    +0.000 C 
BRANCH  16  17
ATOM     17  C   UNL     1       3.232   3.030  -1.998  0.00  0.00    +0.000 A 
ATOM     18  C   UNL     1       2.863   4.373  -1.953  0.00  0.00    +0.000 A 
ATOM     19  C   UNL     1       3.700   5.337  -2.509  0.00  0.00    +0.000 A 
ATOM     20  C   UNL     1       4.924   4.952  -3.049  0.00  0.00    +0.000 A 
ATOM     21  N   UNL     1       5.314   3.655  -3.073  0.00  0.00    +0.000 NA
ATOM     22  C   UNL     1       4.467   2.730  -2.558  0.00  0.00    +0.000 A 
BRANCH  20  23
ATOM     23  C   UNL     1       5.841   5.956  -3.708  0.00  0.00    +0.000 C 
BRANCH  23  24
ATOM     24  C   UNL     1       6.464   7.013  -2.778  0.00  0.00    +0.000 C 
ATOM     25  C   UNL     1       5.469   7.994  -2.170  0.00  0.00    +0.000 C 
ATOM     26  C   UNL     1       6.302   9.216  -1.845  0.00  0.00    +0.000 C 
ATOM     27  C   UNL     1       7.437   9.188  -2.853  0.00  0.00    +0.000 C 
ATOM     28  N   UNL     1       7.350   7.906  -3.549  0.00  0.00    +0.000 NA
ATOM     29  H   UNL     1       8.272   7.487  -3.658  0.00  0.00    +0.000 HD
ENDBRANCH  23  24
ENDBRANCH  20  23
ENDBRANCH  16  17
ENDBRANCH   3  16
TORSDOF 5
