REMARK  Name = 
REMARK  5 active torsions:
REMARK  status: ('A' for Active; 'I' for Inactive)
REMARK    1  A    between atoms: C_2  and  C_4
REMARK    2  A    between atoms: N_8  and  C_9
REMARK    3  A    between atoms: C_9  and  C_10
REMARK    4  A    between atoms: C_10  and  C_11
REMARK    5  A    between atoms: C_15  and  C_16
REMARK                            x       y       z     vdW  Elec       q    Type
REMARK                         _______ _______ _______ _____ _____    ______ ____
ROOT
ATOM      1  C   UNL     1       5.146  -2.651   5.241  0.00  0.00    +0.000 C 
ENDROOT
BRANCH   1   6
ATOM      2  C   UNL     1       3.007  -0.285   1.296  0.00  0.00    +0.000 A 
ATOM      3  C   UNL     1       2.400  -1.006   2.318  0.00  0.00    +0.000 A 
ATOM      4  C   UNL     1       3.165  -1.406   3.415  0.00  0.00    +0.000 A 
ATOM      5  C   UNL     1       4.521  -1.096   3.460  0.00  0.00    +0.000 A 
ATOM      6  N   UNL     1       5.332  -1.386   4.547  0.00  0.00    +0.000 N 
ATOM      7  N   UNL     1       5.126  -0.424   2.461  0.00  0.00    +0.000 NA
ATOM      8  C   UNL     1       4.367  -0.039   1.402  0.00  0.00    +0.000 A 
ATOM      9  H   UNL     1       6.284  -1.174   4.250  0.00  0.00    +0.000 HD
BRANCH   2  11
ATOM     10  N   UNL     1       0.932   0.455   0.275  0.00  0.00    +0.000 N 
ATOM     11  C   UNL     1       2.270   0.218   0.120  0.00  0.00    +0.000 C 
ATOM     12  O   UNL     1       2.835   0.449  -0.941  0.00  0.00    +0.000 OA
ATOM     13  H   UNL     1       0.462   0.904  -0.501  0.00  0.00    +0.000 HD
ATOM     14  H   UNL     1       0.491   0.522   1.183  0.00  0.00    +0.000 HD
ENDBRANCH   2  11
ENDBRANCH   1   6
BRANCH   1  15
ATOM     15  C   UNL     1       6.214  -2.813   6.329  0.00  0.00    +0.000 C 
BRANCH  15  16
ATOM     16  C   UNL     1       5.985  -4.049   7.156  0.00  0.00    +0.000 A 
ATOM     17  C   UNL     1       5.216  -4.006   8.311  0.00  0.00    +0.000 A 
ATOM     18  N   UNL     1       4.962  -5.081   9.082  0.00  0.00    +0.000 NA
ATOM     19  C   UNL     1       5.501  -6.260   8.684  0.00  0.00    +0.000 A 
ATOM     20  C   UNL     1       6.274  -6.447   7.536  0.00  0.00    +0.000 A 
ATOM     21  C   UNL     1       6.503  -5.292   6.769  0.00  0.00    +0.000 A 
BRANCH  20  22
ATOM     22  C   UNL     1       6.809  -7.767   7.146  0.00  0.00    +0.000 A 
ATOM     23  C   UNL     1       8.034  -7.913   6.477  0.00  0.00    +0.000 A 
ATOM     24  C   UNL     1       8.501  -9.174   6.105  0.00  0.00    +0.000 A 
ATOM     25  C   UNL     1       7.732 -10.278   6.422  0.00  0.00    +0.000 A 
ATOM     26  N   UNL     1       6.553 -10.200   7.068  0.00  0.00    +0.000 NA
ATOM     27  C   UNL     1       6.124  -8.958   7.407  0.00  0.00    +0.000 A 
ENDBRANCH  20  22
ENDBRANCH  15  16
ENDBRANCH   1  15
TORSDOF 5
