REMARK  Name = 
REMARK  6 active torsions:
REMARK  status: ('A' for Active; 'I' for Inactive)
REMARK    1  A    between atoms: C_1  and  N_2
REMARK    2  A    between atoms: C_3  and  C_5
REMARK    3  A    between atoms: N_9  and  C_10
REMARK    4  A    between atoms: C_10  and  C_11
REMARK    5  A    between atoms: C_10  and  C_12
REMARK    6  A    between atoms: C_16  and  C_17
REMARK                            x       y       z     vdW  Elec       q    Type
REMARK                         _______ _______ _______ _____ _____    ______ ____
ROOT
ATOM      1  C   UNL     1      13.070   2.139  -4.212  0.00  0.00    +0.000 A 
ATOM      2  C   UNL     1      13.313   1.451  -3.025  0.00  0.00    +0.000 A 
ATOM      3  C   UNL     1      12.273   0.748  -2.412  0.00  0.00    +0.000 A 
ATOM      4  C   UNL     1      11.009   0.751  -2.986  0.00  0.00    +0.000 A 
ATOM      5  N   UNL     1       9.952   0.022  -2.497  0.00  0.00    +0.000 N 
ATOM      6  N   UNL     1      10.760   1.421  -4.128  0.00  0.00    +0.000 NA
ATOM      7  C   UNL     1      11.780   2.106  -4.712  0.00  0.00    +0.000 A 
ATOM      8  H   UNL     1       9.140   0.209  -3.077  0.00  0.00    +0.000 HD
ENDROOT
BRANCH   1  11
ATOM      9  C   UNL     1      16.531   3.210  -5.302  0.00  0.00    +0.000 C 
ATOM     10  N   UNL     1      15.417   2.492  -4.733  0.00  0.00    +0.000 N 
ATOM     11  C   UNL     1      14.117   2.918  -4.919  0.00  0.00    +0.000 C 
ATOM     12  O   UNL     1      13.806   3.871  -5.619  0.00  0.00    +0.000 OA
ATOM     13  H   UNL     1      15.603   1.607  -4.285  0.00  0.00    +0.000 HD
ENDBRANCH   1  11
BRANCH   5  14
ATOM     14  C   UNL     1       9.666  -0.147  -1.079  0.00  0.00    +0.000 C 
ATOM     15  C   UNL     1       9.011   1.100  -0.480  0.00  0.00    +0.000 C 
BRANCH  14  16
ATOM     16  C   UNL     1       8.773  -1.372  -0.932  0.00  0.00    +0.000 A 
ATOM     17  C   UNL     1       9.267  -2.518  -0.291  0.00  0.00    +0.000 A 
ATOM     18  C   UNL     1       8.490  -3.674  -0.202  0.00  0.00    +0.000 A 
ATOM     19  C   UNL     1       7.210  -3.700  -0.754  0.00  0.00    +0.000 A 
ATOM     20  C   UNL     1       6.689  -2.568  -1.386  0.00  0.00    +0.000 A 
ATOM     21  C   UNL     1       5.315  -2.585  -1.989  0.00  0.00    +0.000 C 
ATOM     22  C   UNL     1       7.473  -1.408  -1.467  0.00  0.00    +0.000 A 
ENDBRANCH  14  16
ENDBRANCH   5  14
TORSDOF 3
