REMARK  Name = 
REMARK  7 active torsions:
REMARK  status: ('A' for Active; 'I' for Inactive)
REMARK    1  A    between atoms: C_2  and  C_19
REMARK    2  A    between atoms: N_3  and  C_4
REMARK    3  A    between atoms: C_4  and  C_5
REMARK    4  A    between atoms: C_8  and  C_9
REMARK    5  A    between atoms: C_9  and  N_10
REMARK    6  A    between atoms: N_10  and  C_11
REMARK    7  A    between atoms: C_11  and  C_12
REMARK                            x       y       z     vdW  Elec       q    Type
REMARK                         _______ _______ _______ _____ _____    ______ ____
ROOT
ATOM      1  C   UNL     1       2.382   1.446   2.037  0.00  0.00    +0.000 C 
ENDROOT
BRANCH   1   2
ATOM      2  C   UNL     1       3.288   2.119   3.033  0.00  0.00    +0.000 A 
ATOM      3  C   UNL     1       4.167   1.371   3.807  0.00  0.00    +0.000 A 
ATOM      4  N   UNL     1       5.006   1.928   4.712  0.00  0.00    +0.000 NA
ATOM      5  C   UNL     1       4.952   3.284   4.815  0.00  0.00    +0.000 A 
ATOM      6  C   UNL     1       4.042   4.027   4.070  0.00  0.00    +0.000 A 
ATOM      7  N   UNL     1       3.200   3.469   3.169  0.00  0.00    +0.000 NA
BRANCH   5   8
ATOM      8  C   UNL     1       5.901   3.982   5.768  0.00  0.00    +0.000 C 
BRANCH   8   9
ATOM      9  N   UNL     1       7.186   3.292   5.982  0.00  0.00    +0.000 NA
ATOM     10  H   UNL     1       6.960   2.341   6.283  0.00  0.00    +0.000 HD
BRANCH   9  11
ATOM     11  C   UNL     1       7.974   3.201   4.741  0.00  0.00    +0.000 C 
BRANCH  11  12
ATOM     12  C   UNL     1       9.294   2.441   4.966  0.00  0.00    +0.000 C 
ATOM     13  C   UNL     1      10.215   3.109   5.974  0.00  0.00    +0.000 C 
ATOM     14  C   UNL     1      11.556   2.475   5.664  0.00  0.00    +0.000 C 
ATOM     15  C   UNL     1      11.506   2.190   4.169  0.00  0.00    +0.000 C 
ATOM     16  N   UNL     1      10.118   2.391   3.747  0.00  0.00    +0.000 NA
ATOM     17  H   UNL     1       9.809   1.632   3.141  0.00  0.00    +0.000 HD
ENDBRANCH  11  12
ENDBRANCH   9  11
ENDBRANCH   8   9
ENDBRANCH   5   8
ENDBRANCH   1   2
BRANCH   1  20
ATOM     18  O   UNL     1       1.803  -1.059   3.134  0.00  0.00    +0.000 OA
ATOM     19  C   UNL     1       0.938  -0.189   3.179  0.00  0.00    +0.000 C 
ATOM     20  N   UNL     1       1.125   1.051   2.627  0.00  0.00    +0.000 N 
ATOM     21  H   UNL     1       0.504   1.812   2.887  0.00  0.00    +0.000 HD
BRANCH  19  22
ATOM     22  C   UNL     1      -0.373  -0.438   3.784  0.00  0.00    +0.000 A 
ATOM     23  C   UNL     1      -0.885  -1.728   3.832  0.00  0.00    +0.000 A 
ATOM     24  S   UNL     1      -2.412  -1.826   4.587  0.00  0.00    +0.000 S 
ATOM     25  C   UNL     1      -2.425  -0.154   4.905  0.00  0.00    +0.000 A 
ATOM     26  N   UNL     1      -3.453   0.428   5.581  0.00  0.00    +0.000 NA
ATOM     27  C   UNL     1      -3.312   1.697   5.782  0.00  0.00    +0.000 A 
ATOM     28  N   UNL     1      -2.242   2.438   5.355  0.00  0.00    +0.000 N 
ATOM     29  C   UNL     1      -1.217   1.908   4.611  0.00  0.00    +0.000 A 
ATOM     30  O   UNL     1      -0.341   2.622   4.137  0.00  0.00    +0.000 OA
ATOM     31  C   UNL     1      -1.299   0.475   4.407  0.00  0.00    +0.000 A 
ATOM     32  H   UNL     1      -2.211   3.440   5.510  0.00  0.00    +0.000 HD
ENDBRANCH  19  22
ENDBRANCH   1  20
TORSDOF 7
