REMARK  Name = 
REMARK  5 active torsions:
REMARK  status: ('A' for Active; 'I' for Inactive)
REMARK    1  A    between atoms: C_1  and  C_2
REMARK    2  A    between atoms: C_2  and  N_3
REMARK    3  A    between atoms: C_2  and  C_13
REMARK    4  A    between atoms: N_3  and  C_4
REMARK    5  A    between atoms: C_7  and  C_8
REMARK                            x       y       z     vdW  Elec       q    Type
REMARK                         _______ _______ _______ _____ _____    ______ ____
ROOT
ATOM      1  C   UNL     1       2.440   1.033  -2.385  0.00  0.00    +0.000 A 
ATOM      2  C   UNL     1       2.309   2.234  -3.094  0.00  0.00    +0.000 A 
ATOM      3  C   UNL     1       2.079   2.241  -4.472  0.00  0.00    +0.000 A 
ATOM      4  C   UNL     1       2.036   1.040  -5.181  0.00  0.00    +0.000 A 
ATOM      5  C   UNL     1       2.235  -0.164  -4.500  0.00  0.00    +0.000 A 
ATOM      6  C   UNL     1       2.442  -0.162  -3.112  0.00  0.00    +0.000 A 
ENDROOT
BRANCH   4   7
ATOM      7  C   UNL     1       1.744   1.102  -6.640  0.00  0.00    +0.000 C 
ATOM      8  N   UNL     1       2.203   0.081  -7.424  0.00  0.00    +0.000 N 
ATOM      9  O   UNL     1       1.142   2.044  -7.133  0.00  0.00    +0.000 OA
ATOM     10  H   UNL     1       2.870  -0.606  -7.109  0.00  0.00    +0.000 HD
ATOM     11  H   UNL     1       2.077   0.198  -8.421  0.00  0.00    +0.000 HD
ENDBRANCH   4   7
BRANCH   1  12
ATOM     12  N   UNL     1       2.676   1.118  -1.010  0.00  0.00    +0.000 N 
ATOM     13  H   UNL     1       3.642   1.419  -0.889  0.00  0.00    +0.000 HD
BRANCH  12  15
ATOM     14  C   UNL     1       0.795  -0.174  -0.082  0.00  0.00    +0.000 C 
ATOM     15  C   UNL     1       2.319   0.020  -0.092  0.00  0.00    +0.000 C 
BRANCH  15  16
ATOM     16  C   UNL     1       2.849   0.324   1.349  0.00  0.00    +0.000 C 
ATOM     17  C   UNL     1       2.245   1.607   1.956  0.00  0.00    +0.000 C 
ATOM     18  C   UNL     1       2.858   1.976   3.305  0.00  0.00    +0.000 C 
ATOM     19  C   UNL     1       4.375   2.059   3.220  0.00  0.00    +0.000 C 
ATOM     20  C   UNL     1       4.956   0.732   2.751  0.00  0.00    +0.000 C 
ATOM     21  C   UNL     1       4.392   0.334   1.390  0.00  0.00    +0.000 C 
ENDBRANCH  15  16
ENDBRANCH  12  15
ENDBRANCH   1  12
TORSDOF 4
