REMARK  Name = 
REMARK  7 active torsions:
REMARK  status: ('A' for Active; 'I' for Inactive)
REMARK    1  A    between atoms: C_1  and  C_2
REMARK    2  A    between atoms: C_2  and  C_3
REMARK    3  A    between atoms: C_2  and  C_4
REMARK    4  A    between atoms: C_2  and  C_5
REMARK    5  A    between atoms: C_7  and  C_8
REMARK    6  A    between atoms: C_8  and  N_9
REMARK    7  A    between atoms: C_14  and  C_15
REMARK                            x       y       z     vdW  Elec       q    Type
REMARK                         _______ _______ _______ _____ _____    ______ ____
ROOT
ATOM      1  N   UNL     1       3.134   1.113   5.626  0.00  0.00    +0.000 N 
ATOM      2  N   UNL     1       3.185   2.413   5.243  0.00  0.00    +0.000 NA
ATOM      3  C   UNL     1       2.710   3.074   6.300  0.00  0.00    +0.000 A 
ATOM      4  C   UNL     1       2.308   2.216   7.343  0.00  0.00    +0.000 A 
ATOM      5  C   UNL     1       1.836   2.380   8.647  0.00  0.00    +0.000 A 
ATOM      6  C   UNL     1       1.559   1.212   9.343  0.00  0.00    +0.000 A 
ATOM      7  N   UNL     1       1.658  -0.048   8.825  0.00  0.00    +0.000 NA
ATOM      8  C   UNL     1       2.120  -0.198   7.559  0.00  0.00    +0.000 A 
ATOM      9  C   UNL     1       2.489   0.933   6.836  0.00  0.00    +0.000 A 
ENDROOT
BRANCH   6  10
ATOM     10  C   UNL     1       1.173   1.319  10.793  0.00  0.00    +0.000 C 
ATOM     11  N   UNL     1       0.865   0.143  11.419  0.00  0.00    +0.000 N 
ATOM     12  O   UNL     1       1.154   2.385  11.394  0.00  0.00    +0.000 OA
ATOM     13  H   UNL     1       0.919  -0.733  10.909  0.00  0.00    +0.000 HD
ATOM     14  H   UNL     1       0.647   0.150  12.405  0.00  0.00    +0.000 HD
ENDBRANCH   6  10
BRANCH   1  15
ATOM     15  C   UNL     1       4.074   0.179   5.004  0.00  0.00    +0.000 C 
BRANCH  15  18
ATOM     16  C   UNL     1       2.848  -0.565   1.458  0.00  0.00    +0.000 A 
ATOM     17  C   UNL     1       3.258   0.151   2.591  0.00  0.00    +0.000 A 
ATOM     18  C   UNL     1       3.554  -0.532   3.782  0.00  0.00    +0.000 A 
ATOM     19  C   UNL     1       3.450  -1.924   3.788  0.00  0.00    +0.000 A 
ATOM     20  C   UNL     1       3.055  -2.562   2.628  0.00  0.00    +0.000 A 
ATOM     21  N   UNL     1       2.756  -1.918   1.484  0.00  0.00    +0.000 NA
BRANCH  16  23
ATOM     22  C   UNL     1       3.662   0.888  -0.452  0.00  0.00    +0.000 C 
ATOM     23  C   UNL     1       2.460   0.134   0.148  0.00  0.00    +0.000 C 
ATOM     24  C   UNL     1       1.306   1.122   0.403  0.00  0.00    +0.000 C 
ATOM     25  C   UNL     1       1.975  -0.886  -0.911  0.00  0.00    +0.000 C 
ENDBRANCH  16  23
ENDBRANCH  15  18
ENDBRANCH   1  15
TORSDOF 4
