REMARK  Name = 
REMARK  7 active torsions:
REMARK  status: ('A' for Active; 'I' for Inactive)
REMARK    1  A    between atoms: C_2  and  C_3
REMARK    2  A    between atoms: C_7  and  C_8
REMARK    3  A    between atoms: N_10  and  C_11
REMARK    4  A    between atoms: C_11  and  C_12
REMARK    5  A    between atoms: C_15  and  C_16
REMARK    6  A    between atoms: C_16  and  N_17
REMARK    7  A    between atoms: C_18  and  C_20
REMARK                            x       y       z     vdW  Elec       q    Type
REMARK                         _______ _______ _______ _____ _____    ______ ____
ROOT
ATOM      1  C   UNL     1       4.059   6.163   1.335  0.00  0.00    +0.000 A 
ATOM      2  C   UNL     1       5.204   6.783   1.855  0.00  0.00    +0.000 A 
ATOM      3  C   UNL     1       5.092   7.848   2.757  0.00  0.00    +0.000 A 
ATOM      4  C   UNL     1       3.834   8.303   3.173  0.00  0.00    +0.000 A 
ATOM      5  C   UNL     1       2.690   7.699   2.636  0.00  0.00    +0.000 A 
ATOM      6  C   UNL     1       2.801   6.633   1.738  0.00  0.00    +0.000 A 
ENDROOT
BRANCH   1   7
ATOM      7  C   UNL     1       4.166   5.022   0.356  0.00  0.00    +0.000 C 
BRANCH   7  10
ATOM      8  C   UNL     1       3.056   2.968   1.157  0.00  0.00    +0.000 C 
ATOM      9  O   UNL     1       1.948   3.340   0.789  0.00  0.00    +0.000 OA
ATOM     10  N   UNL     1       4.194   3.726   1.004  0.00  0.00    +0.000 N 
ATOM     11  H   UNL     1       5.054   3.442   1.454  0.00  0.00    +0.000 HD
BRANCH   8  16
ATOM     12  C   UNL     1       1.987   0.798   1.907  0.00  0.00    +0.000 C 
ATOM     13  C   UNL     1       2.440  -0.658   2.007  0.00  0.00    +0.000 C 
ATOM     14  C   UNL     1       3.838  -0.712   1.396  0.00  0.00    +0.000 C 
ATOM     15  C   UNL     1       4.173   0.706   0.950  0.00  0.00    +0.000 C 
ATOM     16  C   UNL     1       3.287   1.609   1.804  0.00  0.00    +0.000 C 
BRANCH  12  18
ATOM     17  N   UNL     1       0.533   1.577   4.145  0.00  0.00    +0.000 NA
ATOM     18  C   UNL     1       1.192   1.224   3.130  0.00  0.00    +0.000 C 
ENDBRANCH  12  18
ENDBRANCH   8  16
ENDBRANCH   7  10
ENDBRANCH   1   7
BRANCH   4  19
ATOM     19  C   UNL     1       3.705   9.434   4.163  0.00  0.00    +0.000 C 
BRANCH  19  20
ATOM     20  N   UNL     1       3.670  10.714   3.502  0.00  0.00    +0.000 N 
ATOM     21  C   UNL     1       3.629  11.882   4.225  0.00  0.00    +0.000 C 
ATOM     22  O   UNL     1       3.696  11.893   5.451  0.00  0.00    +0.000 OA
ATOM     23  H   UNL     1       3.382  10.719   2.530  0.00  0.00    +0.000 HD
BRANCH  21  24
ATOM     24  C   UNL     1       3.561  13.130   3.452  0.00  0.00    +0.000 A 
ATOM     25  C   UNL     1       3.988  14.320   4.027  0.00  0.00    +0.000 A 
ATOM     26  S   UNL     1       3.896  15.660   2.976  0.00  0.00    +0.000 S 
ATOM     27  C   UNL     1       3.236  14.706   1.730  0.00  0.00    +0.000 A 
ATOM     28  N   UNL     1       2.901  15.254   0.530  0.00  0.00    +0.000 NA
ATOM     29  C   UNL     1       2.381  14.424  -0.311  0.00  0.00    +0.000 A 
ATOM     30  N   UNL     1       2.169  13.093  -0.062  0.00  0.00    +0.000 N 
ATOM     31  C   UNL     1       2.518  12.489   1.123  0.00  0.00    +0.000 A 
ATOM     32  O   UNL     1       2.355  11.286   1.294  0.00  0.00    +0.000 OA
ATOM     33  C   UNL     1       3.100  13.382   2.109  0.00  0.00    +0.000 A 
ATOM     34  H   UNL     1       1.761  12.493  -0.764  0.00  0.00    +0.000 HD
ENDBRANCH  21  24
ENDBRANCH  19  20
ENDBRANCH   4  19
TORSDOF 7
