REMARK  Name = 
REMARK  7 active torsions:
REMARK  status: ('A' for Active; 'I' for Inactive)
REMARK    1  A    between atoms: N_1  and  C_2
REMARK    2  A    between atoms: C_2  and  C_3
REMARK    3  A    between atoms: C_7  and  C_8
REMARK    4  A    between atoms: C_8  and  C_9
REMARK    5  A    between atoms: C_9  and  O_10
REMARK    6  A    between atoms: O_10  and  C_11
REMARK    7  A    between atoms: C_14  and  C_15
REMARK                            x       y       z     vdW  Elec       q    Type
REMARK                         _______ _______ _______ _____ _____    ______ ____
ROOT
ATOM      1  C   UNL     1       3.273  -5.775  -2.131  0.00  0.00    +0.000 C 
ENDROOT
BRANCH   1   2
ATOM      2  C   UNL     1       2.521  -4.784  -1.250  0.00  0.00    +0.000 C 
BRANCH   2   7
ATOM      3  C   UNL     1       2.428  -1.292  -2.818  0.00  0.00    +0.000 A 
ATOM      4  C   UNL     1       3.478  -0.669  -2.129  0.00  0.00    +0.000 A 
ATOM      5  C   UNL     1       4.235  -1.378  -1.197  0.00  0.00    +0.000 A 
ATOM      6  C   UNL     1       3.937  -2.714  -0.923  0.00  0.00    +0.000 A 
ATOM      7  C   UNL     1       2.873  -3.351  -1.573  0.00  0.00    +0.000 A 
ATOM      8  C   UNL     1       2.139  -2.638  -2.536  0.00  0.00    +0.000 A 
BRANCH   3   9
ATOM      9  C   UNL     1       1.589  -0.513  -3.800  0.00  0.00    +0.000 C 
BRANCH   9  10
ATOM     10  N   UNL     1       2.394   0.067  -4.870  0.00  0.00    +0.000 NA
ATOM     11  H   UNL     1       1.776   0.515  -5.543  0.00  0.00    +0.000 HD
ATOM     12  H   UNL     1       2.867  -0.686  -5.368  0.00  0.00    +0.000 HD
ENDBRANCH   9  10
ENDBRANCH   3   9
ENDBRANCH   2   7
ENDBRANCH   1   2
BRANCH   1  13
ATOM     13  O   UNL     1       2.867  -7.116  -1.811  0.00  0.00    +0.000 OA
BRANCH  13  14
ATOM     14  C   UNL     1       3.526  -8.044  -2.595  0.00  0.00    +0.000 A 
ATOM     15  C   UNL     1       3.248  -9.386  -2.386  0.00  0.00    +0.000 A 
ATOM     16  C   UNL     1       3.911 -10.329  -3.176  0.00  0.00    +0.000 A 
ATOM     17  C   UNL     1       4.828  -9.903  -4.148  0.00  0.00    +0.000 A 
ATOM     18  C   UNL     1       5.030  -8.541  -4.273  0.00  0.00    +0.000 A 
ATOM     19  N   UNL     1       4.404  -7.608  -3.522  0.00  0.00    +0.000 NA
BRANCH  17  20
ATOM     20  C   UNL     1       5.535 -10.899  -4.987  0.00  0.00    +0.000 C 
ATOM     21  N   UNL     1       6.424 -10.463  -5.932  0.00  0.00    +0.000 N 
ATOM     22  O   UNL     1       5.334 -12.100  -4.843  0.00  0.00    +0.000 OA
ATOM     23  H   UNL     1       6.661  -9.505  -6.132  0.00  0.00    +0.000 HD
ATOM     24  H   UNL     1       6.886 -11.177  -6.481  0.00  0.00    +0.000 HD
ENDBRANCH  17  20
ENDBRANCH  13  14
ENDBRANCH   1  13
TORSDOF 7
