REMARK  Name = 
REMARK  10 active torsions:
REMARK  status: ('A' for Active; 'I' for Inactive)
REMARK    1  A    between atoms: C_1  and  O_2
REMARK    2  A    between atoms: O_2  and  C_3
REMARK    3  A    between atoms: C_5  and  C_6
REMARK    4  A    between atoms: C_6  and  O_7
REMARK    5  A    between atoms: O_7  and  C_8
REMARK    6  A    between atoms: C_13  and  C_14
REMARK    7  A    between atoms: C_17  and  C_18
REMARK    8  A    between atoms: C_19  and  O_20
REMARK    9  A    between atoms: C_24  and  O_25
REMARK   10  A    between atoms: O_25  and  C_26
REMARK                            x       y       z     vdW  Elec       q    Type
REMARK                         _______ _______ _______ _____ _____    ______ ____
ROOT
ATOM      1  C   UNL     1       1.186   2.910   5.189  0.00  0.00    +0.000 A 
ATOM      2  C   UNL     1       1.137   4.262   5.515  0.00  0.00    +0.000 A 
ATOM      3  C   UNL     1       0.352   4.685   6.584  0.00  0.00    +0.000 A 
ATOM      4  C   UNL     1      -0.403   3.757   7.304  0.00  0.00    +0.000 A 
ATOM      5  F   UNL     1      -1.121   4.214   8.341  0.00  0.00    +0.000 F 
ATOM      6  C   UNL     1      -0.434   2.397   6.956  0.00  0.00    +0.000 A 
ATOM      7  C   UNL     1       0.383   2.000   5.882  0.00  0.00    +0.000 A 
ENDROOT
BRANCH   6   8
ATOM      8  C   UNL     1      -1.332   1.409   7.593  0.00  0.00    +0.000 A 
ATOM      9  C   UNL     1      -2.622   1.767   8.008  0.00  0.00    +0.000 A 
ATOM     10  C   UNL     1      -3.529   0.815   8.487  0.00  0.00    +0.000 A 
ATOM     11  C   UNL     1      -3.184  -0.538   8.546  0.00  0.00    +0.000 A 
ATOM     12  C   UNL     1      -4.193  -1.532   9.033  0.00  0.00    +0.000 C 
ATOM     13  C   UNL     1      -1.900  -0.905   8.142  0.00  0.00    +0.000 A 
ATOM     14  C   UNL     1      -0.983   0.052   7.706  0.00  0.00    +0.000 A 
BRANCH  13  15
ATOM     15  O   UNL     1      -1.473  -2.203   8.116  0.00  0.00    +0.000 OA
ATOM     16  H   UNL     1      -2.239  -2.789   8.219  0.00  0.00    +0.000 HD
ENDBRANCH  13  15
ENDBRANCH   6   8
BRANCH   1  17
ATOM     17  O   UNL     1       2.021   2.566   4.164  0.00  0.00    +0.000 OA
BRANCH  17  18
ATOM     18  C   UNL     1       2.469   1.208   4.186  0.00  0.00    +0.000 C 
BRANCH  18  21
ATOM     19  C   UNL     1       6.040   0.726   2.974  0.00  0.00    +0.000 A 
ATOM     20  C   UNL     1       4.931   0.809   3.813  0.00  0.00    +0.000 A 
ATOM     21  C   UNL     1       3.664   1.096   3.283  0.00  0.00    +0.000 A 
ATOM     22  C   UNL     1       3.516   1.300   1.905  0.00  0.00    +0.000 A 
ATOM     23  C   UNL     1       4.622   1.236   1.065  0.00  0.00    +0.000 A 
ATOM     24  C   UNL     1       5.875   0.928   1.601  0.00  0.00    +0.000 A 
BRANCH  19  26
ATOM     25  C   UNL     1       7.541   0.320   4.773  0.00  0.00    +0.000 C 
ATOM     26  O   UNL     1       7.325   0.471   3.373  0.00  0.00    +0.000 OA
ENDBRANCH  19  26
BRANCH  23  27
ATOM     27  O   UNL     1       4.585   1.439  -0.288  0.00  0.00    +0.000 OA
ATOM     28  C   UNL     1       3.537   2.292  -0.742  0.00  0.00    +0.000 C 
ENDBRANCH  23  27
ENDBRANCH  18  21
ENDBRANCH  17  18
ENDBRANCH   1  17
TORSDOF 7
