REMARK  Name = 
REMARK  7 active torsions:
REMARK  status: ('A' for Active; 'I' for Inactive)
REMARK    1  A    between atoms: C_2  and  C_4
REMARK    2  A    between atoms: C_7  and  N_8
REMARK    3  A    between atoms: N_8  and  C_9
REMARK    4  A    between atoms: C_9  and  C_10
REMARK    5  A    between atoms: C_14  and  C_15
REMARK    6  A    between atoms: C_19  and  O_20
REMARK    7  A    between atoms: O_20  and  C_21
REMARK                            x       y       z     vdW  Elec       q    Type
REMARK                         _______ _______ _______ _____ _____    ______ ____
ROOT
ATOM      1  C   UNL     1       4.480  -5.077   3.678  0.00  0.00    +0.000 C 
ATOM      2  C   UNL     1       3.903  -3.727   3.251  0.00  0.00    +0.000 C 
ATOM      3  C   UNL     1       4.364  -4.679   2.208  0.00  0.00    +0.000 C 
ENDROOT
BRANCH   1   4
ATOM      4  C   UNL     1       5.820  -4.922   4.398  0.00  0.00    +0.000 A 
ATOM      5  C   UNL     1       7.044  -5.169   3.758  0.00  0.00    +0.000 A 
ATOM      6  C   UNL     1       8.232  -4.656   4.275  0.00  0.00    +0.000 A 
ATOM      7  C   UNL     1       8.214  -3.901   5.449  0.00  0.00    +0.000 A 
ATOM      8  C   UNL     1       7.024  -3.700   6.166  0.00  0.00    +0.000 A 
ATOM      9  C   UNL     1       5.854  -4.279   5.652  0.00  0.00    +0.000 A 
BRANCH   8  10
ATOM     10  C   UNL     1       6.948  -2.765   7.304  0.00  0.00    +0.000 A 
ATOM     11  C   UNL     1       7.531  -1.497   7.210  0.00  0.00    +0.000 A 
ATOM     12  N   UNL     1       7.479  -0.543   8.167  0.00  0.00    +0.000 NA
ATOM     13  C   UNL     1       6.794  -0.860   9.285  0.00  0.00    +0.000 A 
ATOM     14  C   UNL     1       6.138  -2.068   9.487  0.00  0.00    +0.000 A 
ATOM     15  C   UNL     1       6.235  -3.039   8.486  0.00  0.00    +0.000 A 
BRANCH  14  16
ATOM     16  O   UNL     1       5.483  -2.191  10.676  0.00  0.00    +0.000 OA
BRANCH  16  17
ATOM     17  C   UNL     1       4.355  -3.047  10.675  0.00  0.00    +0.000 C 
ATOM     18  F   UNL     1       4.775  -4.319  10.872  0.00  0.00    +0.000 F 
ATOM     19  F   UNL     1       3.598  -2.712  11.751  0.00  0.00    +0.000 F 
ENDBRANCH  16  17
ENDBRANCH  14  16
ENDBRANCH   8  10
ENDBRANCH   1   4
BRANCH   1  20
ATOM     20  N   UNL     1       3.668  -6.238   4.064  0.00  0.00    +0.000 N 
ATOM     21  H   UNL     1       4.095  -7.157   3.953  0.00  0.00    +0.000 HD
BRANCH  20  25
ATOM     22  C   UNL     1       1.293  -6.486   7.399  0.00  0.00    +0.000 A 
ATOM     23  C   UNL     1       1.937  -7.590   6.878  0.00  0.00    +0.000 A 
ATOM     24  N   UNL     1       2.735  -7.522   5.775  0.00  0.00    +0.000 NA
ATOM     25  C   UNL     1       2.864  -6.298   5.207  0.00  0.00    +0.000 A 
ATOM     26  C   UNL     1       2.185  -5.199   5.738  0.00  0.00    +0.000 A 
ATOM     27  N   UNL     1       1.398  -5.249   6.843  0.00  0.00    +0.000 NA
BRANCH  22  29
ATOM     28  N   UNL     1      -0.157  -5.444   9.025  0.00  0.00    +0.000 N 
ATOM     29  C   UNL     1       0.456  -6.605   8.628  0.00  0.00    +0.000 C 
ATOM     30  O   UNL     1       0.337  -7.653   9.242  0.00  0.00    +0.000 OA
ATOM     31  H   UNL     1      -0.748  -5.449   9.846  0.00  0.00    +0.000 HD
ATOM     32  H   UNL     1      -0.053  -4.600   8.476  0.00  0.00    +0.000 HD
ENDBRANCH  22  29
ENDBRANCH  20  25
ENDBRANCH   1  20
TORSDOF 7
