REMARK  Name = 
REMARK  8 active torsions:
REMARK  status: ('A' for Active; 'I' for Inactive)
REMARK    1  A    between atoms: C_1  and  O_2
REMARK    2  A    between atoms: O_2  and  C_3
REMARK    3  A    between atoms: C_10  and  C_11
REMARK    4  A    between atoms: N_13  and  C_14
REMARK    5  A    between atoms: C_14  and  C_15
REMARK    6  A    between atoms: C_18  and  N_19
REMARK    7  A    between atoms: N_19  and  C_20
REMARK    8  A    between atoms: C_20  and  C_21
REMARK                            x       y       z     vdW  Elec       q    Type
REMARK                         _______ _______ _______ _____ _____    ______ ____
ROOT
ATOM      1  C   UNL     1       3.260  -3.269   0.095  0.00  0.00    +0.000 C 
ENDROOT
BRANCH   1   2
ATOM      2  C   UNL     1       2.252  -3.187   1.221  0.00  0.00    +0.000 A 
ATOM      3  C   UNL     1       1.542  -4.332   1.598  0.00  0.00    +0.000 A 
ATOM      4  C   UNL     1       0.509  -4.269   2.547  0.00  0.00    +0.000 A 
ATOM      5  C   UNL     1       0.142  -3.057   3.139  0.00  0.00    +0.000 A 
ATOM      6  C   UNL     1       0.886  -1.922   2.787  0.00  0.00    +0.000 A 
ATOM      7  C   UNL     1       1.955  -1.988   1.878  0.00  0.00    +0.000 A 
BRANCH   5   8
ATOM      8  N   UNL     1      -1.008  -2.879   3.930  0.00  0.00    +0.000 N 
ATOM      9  H   UNL     1      -0.903  -2.048   4.505  0.00  0.00    +0.000 HD
BRANCH   8  10
ATOM     10  C   UNL     1      -1.505  -4.022   4.698  0.00  0.00    +0.000 C 
BRANCH  10  11
ATOM     11  C   UNL     1      -2.787  -3.681   5.498  0.00  0.00    +0.000 C 
ATOM     12  C   UNL     1      -2.641  -2.547   6.528  0.00  0.00    +0.000 C 
ATOM     13  C   UNL     1      -1.700  -2.950   7.659  0.00  0.00    +0.000 C 
ATOM     14  C   UNL     1      -2.161  -4.258   8.303  0.00  0.00    +0.000 C 
ATOM     15  N   UNL     1      -2.335  -5.327   7.315  0.00  0.00    +0.000 NA
ATOM     16  C   UNL     1      -3.264  -4.941   6.247  0.00  0.00    +0.000 C 
ATOM     17  H   UNL     1      -2.685  -6.162   7.785  0.00  0.00    +0.000 HD
ENDBRANCH  10  11
ENDBRANCH   8  10
ENDBRANCH   5   8
ENDBRANCH   1   2
BRANCH   1  20
ATOM     18  C   UNL     1       3.157  -3.551  -2.374  0.00  0.00    +0.000 C 
ATOM     19  O   UNL     1       4.147  -4.267  -2.395  0.00  0.00    +0.000 OA
ATOM     20  N   UNL     1       2.654  -3.014  -1.206  0.00  0.00    +0.000 N 
ATOM     21  H   UNL     1       1.788  -2.498  -1.233  0.00  0.00    +0.000 HD
BRANCH  18  29
ATOM     22  C   UNL     1      -0.076  -2.693  -3.122  0.00  0.00    +0.000 A 
ATOM     23  N   UNL     1      -1.225  -2.221  -3.654  0.00  0.00    +0.000 NA
ATOM     24  C   UNL     1      -1.220  -1.832  -4.932  0.00  0.00    +0.000 A 
ATOM     25  N   UNL     1      -0.201  -1.882  -5.776  0.00  0.00    +0.000 NA
ATOM     26  C   UNL     1       0.923  -2.350  -5.211  0.00  0.00    +0.000 A 
ATOM     27  S   UNL     1       2.341  -2.506  -6.136  0.00  0.00    +0.000 S 
ATOM     28  C   UNL     1       3.221  -3.079  -4.799  0.00  0.00    +0.000 A 
ATOM     29  C   UNL     1       2.480  -3.137  -3.622  0.00  0.00    +0.000 A 
ATOM     30  C   UNL     1       1.099  -2.751  -3.887  0.00  0.00    +0.000 A 
BRANCH  22  32
ATOM     31  C   UNL     1      -1.349  -2.909  -1.181  0.00  0.00    +0.000 C 
ATOM     32  O   UNL     1      -0.076  -3.090  -1.802  0.00  0.00    +0.000 OA
ENDBRANCH  22  32
ENDBRANCH  18  29
ENDBRANCH   1  20
TORSDOF 7
