REMARK  Name = 
REMARK  9 active torsions:
REMARK  status: ('A' for Active; 'I' for Inactive)
REMARK    1  A    between atoms: C_1  and  C_2
REMARK    2  A    between atoms: C_2  and  C_3
REMARK    3  A    between atoms: C_3  and  N_4
REMARK    4  A    between atoms: C_3  and  C_26
REMARK    5  A    between atoms: N_4  and  C_5
REMARK    6  A    between atoms: C_5  and  C_6
REMARK    7  A    between atoms: C_9  and  C_10
REMARK    8  A    between atoms: C_10  and  N_11
REMARK    9  A    between atoms: C_12  and  C_14
REMARK                            x       y       z     vdW  Elec       q    Type
REMARK                         _______ _______ _______ _____ _____    ______ ____
ROOT
ATOM      1  C   UNL     1       0.639   3.649   1.227  0.00  0.00    +0.000 A 
ATOM      2  C   UNL     1       0.245   3.366   2.544  0.00  0.00    +0.000 A 
ATOM      3  C   UNL     1      -0.058   4.397   3.436  0.00  0.00    +0.000 A 
ATOM      4  C   UNL     1       0.037   5.735   3.035  0.00  0.00    +0.000 A 
ATOM      5  C   UNL     1       0.469   6.022   1.734  0.00  0.00    +0.000 A 
ATOM      6  C   UNL     1       0.758   4.991   0.837  0.00  0.00    +0.000 A 
ENDROOT
BRANCH   1   7
ATOM      7  C   UNL     1       0.973   2.539   0.252  0.00  0.00    +0.000 C 
BRANCH   7   8
ATOM      8  N   UNL     1      -0.159   1.625   0.071  0.00  0.00    +0.000 NA
ATOM      9  H   UNL     1      -0.410   1.232   0.973  0.00  0.00    +0.000 HD
BRANCH   8  10
ATOM     10  C   UNL     1       0.115   0.522  -0.870  0.00  0.00    +0.000 C 
BRANCH  10  11
ATOM     11  C   UNL     1       0.407   1.012  -2.292  0.00  0.00    +0.000 A 
ATOM     12  C   UNL     1      -0.636   1.375  -3.140  0.00  0.00    +0.000 A 
ATOM     13  C   UNL     1      -0.334   1.840  -4.419  0.00  0.00    +0.000 A 
ATOM     14  C   UNL     1       0.995   1.942  -4.809  0.00  0.00    +0.000 A 
ATOM     15  C   UNL     1       1.974   1.583  -3.903  0.00  0.00    +0.000 A 
ATOM     16  N   UNL     1       1.714   1.126  -2.662  0.00  0.00    +0.000 NA
ENDBRANCH  10  11
BRANCH  10  18
ATOM     17  C   UNL     1       0.966  -1.099   0.961  0.00  0.00    +0.000 C 
ATOM     18  C   UNL     1       1.195  -0.489  -0.413  0.00  0.00    +0.000 C 
ENDBRANCH  10  18
ENDBRANCH   8  10
ENDBRANCH   7   8
ENDBRANCH   1   7
BRANCH   4  19
ATOM     19  C   UNL     1      -0.264   6.851   3.997  0.00  0.00    +0.000 C 
BRANCH  19  20
ATOM     20  N   UNL     1       0.921   7.246   4.715  0.00  0.00    +0.000 N 
ATOM     21  C   UNL     1       0.858   8.189   5.707  0.00  0.00    +0.000 C 
ATOM     22  O   UNL     1      -0.207   8.692   6.058  0.00  0.00    +0.000 OA
ATOM     23  H   UNL     1       1.816   7.005   4.302  0.00  0.00    +0.000 HD
BRANCH  21  24
ATOM     24  C   UNL     1       2.119   8.532   6.373  0.00  0.00    +0.000 A 
ATOM     25  C   UNL     1       2.089   9.070   7.653  0.00  0.00    +0.000 A 
ATOM     26  S   UNL     1       3.634   9.388   8.298  0.00  0.00    +0.000 S 
ATOM     27  C   UNL     1       4.398   8.861   6.873  0.00  0.00    +0.000 A 
ATOM     28  N   UNL     1       5.751   8.904   6.750  0.00  0.00    +0.000 NA
ATOM     29  C   UNL     1       6.196   8.501   5.608  0.00  0.00    +0.000 A 
ATOM     30  N   UNL     1       5.409   8.049   4.579  0.00  0.00    +0.000 N 
ATOM     31  C   UNL     1       4.041   7.960   4.667  0.00  0.00    +0.000 A 
ATOM     32  O   UNL     1       3.370   7.508   3.744  0.00  0.00    +0.000 OA
ATOM     33  C   UNL     1       3.489   8.424   5.925  0.00  0.00    +0.000 A 
ATOM     34  H   UNL     1       5.822   7.736   3.714  0.00  0.00    +0.000 HD
ENDBRANCH  21  24
ENDBRANCH  19  20
ENDBRANCH   4  19
TORSDOF 8
