REMARK  Name = 
REMARK  8 active torsions:
REMARK  status: ('A' for Active; 'I' for Inactive)
REMARK    1  A    between atoms: C_1  and  C_2
REMARK    2  A    between atoms: C_2  and  C_3
REMARK    3  A    between atoms: C_2  and  N_18
REMARK    4  A    between atoms: C_3  and  C_4
REMARK    5  A    between atoms: C_7  and  O_8
REMARK    6  A    between atoms: O_8  and  C_9
REMARK    7  A    between atoms: C_9  and  C_10
REMARK    8  A    between atoms: C_19  and  C_21
REMARK                            x       y       z     vdW  Elec       q    Type
REMARK                         _______ _______ _______ _____ _____    ______ ____
ROOT
ATOM      1  C   UNL     1       2.955  -1.272  -0.813  0.00  0.00    +0.000 C 
ATOM      2  C   UNL     1       2.579  -0.079   0.070  0.00  0.00    +0.000 C 
ENDROOT
BRANCH   2   3
ATOM      3  N   UNL     1       3.067   1.176  -0.494  0.00  0.00    +0.000 N 
ATOM      4  C   UNL     1       4.395   1.468  -0.685  0.00  0.00    +0.000 C 
ATOM      5  O   UNL     1       5.292   0.667  -0.440  0.00  0.00    +0.000 OA
ATOM      6  H   UNL     1       2.407   1.949  -0.472  0.00  0.00    +0.000 HD
BRANCH   4   7
ATOM      7  C   UNL     1       4.701   2.790  -1.240  0.00  0.00    +0.000 A 
ATOM      8  C   UNL     1       5.886   2.976  -1.938  0.00  0.00    +0.000 A 
ATOM      9  S   UNL     1       6.083   4.560  -2.535  0.00  0.00    +0.000 S 
ATOM     10  C   UNL     1       4.615   5.063  -1.838  0.00  0.00    +0.000 A 
ATOM     11  N   UNL     1       4.193   6.350  -1.953  0.00  0.00    +0.000 NA
ATOM     12  C   UNL     1       3.087   6.605  -1.339  0.00  0.00    +0.000 A 
ATOM     13  N   UNL     1       2.360   5.688  -0.626  0.00  0.00    +0.000 N 
ATOM     14  C   UNL     1       2.710   4.362  -0.540  0.00  0.00    +0.000 A 
ATOM     15  O   UNL     1       1.981   3.541   0.005  0.00  0.00    +0.000 OA
ATOM     16  C   UNL     1       3.969   4.030  -1.181  0.00  0.00    +0.000 A 
ATOM     17  H   UNL     1       1.488   5.946  -0.187  0.00  0.00    +0.000 HD
ENDBRANCH   4   7
ENDBRANCH   2   3
BRANCH   2  18
ATOM     18  C   UNL     1       3.026  -0.319   1.524  0.00  0.00    +0.000 C 
BRANCH  18  19
ATOM     19  C   UNL     1       2.632   0.774   2.491  0.00  0.00    +0.000 A 
ATOM     20  C   UNL     1       1.410   0.739   3.172  0.00  0.00    +0.000 A 
ATOM     21  C   UNL     1       1.115   1.706   4.139  0.00  0.00    +0.000 A 
ATOM     22  C   UNL     1       2.033   2.715   4.430  0.00  0.00    +0.000 A 
ATOM     23  C   UNL     1       3.211   2.805   3.689  0.00  0.00    +0.000 A 
ATOM     24  C   UNL     1       3.515   1.832   2.740  0.00  0.00    +0.000 A 
BRANCH  22  25
ATOM     25  O   UNL     1       1.701   3.551   5.464  0.00  0.00    +0.000 OA
BRANCH  25  26
ATOM     26  C   UNL     1       2.820   4.171   6.103  0.00  0.00    +0.000 C 
BRANCH  26  27
ATOM     27  C   UNL     1       2.461   4.562   7.506  0.00  0.00    +0.000 A 
ATOM     28  C   UNL     1       2.011   3.616   8.431  0.00  0.00    +0.000 A 
ATOM     29  C   UNL     1       1.770   4.000   9.746  0.00  0.00    +0.000 A 
ATOM     30  C   UNL     1       1.988   5.323  10.092  0.00  0.00    +0.000 A 
ATOM     31  N   UNL     1       2.419   6.266   9.227  0.00  0.00    +0.000 NA
ATOM     32  C   UNL     1       2.647   5.864   7.957  0.00  0.00    +0.000 A 
ENDBRANCH  26  27
ENDBRANCH  25  26
ENDBRANCH  22  25
ENDBRANCH  18  19
ENDBRANCH   2  18
TORSDOF 7
