REMARK  Name = 
REMARK  10 active torsions:
REMARK  status: ('A' for Active; 'I' for Inactive)
REMARK    1  A    between atoms: C_1  and  O_2
REMARK    2  A    between atoms: O_2  and  C_3
REMARK    3  A    between atoms: C_10  and  C_11
REMARK    4  A    between atoms: N_13  and  C_14
REMARK    5  A    between atoms: C_14  and  C_15
REMARK    6  A    between atoms: C_18  and  C_19
REMARK    7  A    between atoms: C_19  and  O_20
REMARK    8  A    between atoms: O_20  and  C_21
REMARK    9  A    between atoms: C_21  and  C_22
REMARK   10  A    between atoms: C_24  and  C_25
REMARK                            x       y       z     vdW  Elec       q    Type
REMARK                         _______ _______ _______ _____ _____    ______ ____
ROOT
ATOM      1  C   UNL     1       1.754  -2.369  -2.373  0.00  0.00    +0.000 A 
ATOM      2  C   UNL     1       1.808  -3.761  -2.227  0.00  0.00    +0.000 A 
ATOM      3  C   UNL     1       0.754  -4.460  -1.619  0.00  0.00    +0.000 A 
ATOM      4  C   UNL     1      -0.375  -3.779  -1.142  0.00  0.00    +0.000 A 
ATOM      5  C   UNL     1      -0.452  -2.397  -1.347  0.00  0.00    +0.000 A 
ATOM      6  C   UNL     1       0.589  -1.702  -1.974  0.00  0.00    +0.000 A 
ENDROOT
BRANCH   1   7
ATOM      7  C   UNL     1       2.928  -1.596  -2.925  0.00  0.00    +0.000 C 
BRANCH   7  10
ATOM      8  C   UNL     1       3.850  -0.831  -5.073  0.00  0.00    +0.000 C 
ATOM      9  O   UNL     1       4.807  -0.312  -4.516  0.00  0.00    +0.000 OA
ATOM     10  N   UNL     1       2.875  -1.479  -4.363  0.00  0.00    +0.000 N 
ATOM     11  H   UNL     1       2.018  -1.761  -4.820  0.00  0.00    +0.000 HD
BRANCH   8  19
ATOM     12  C   UNL     1       1.489  -2.058  -7.274  0.00  0.00    +0.000 A 
ATOM     13  N   UNL     1       0.774  -2.469  -8.342  0.00  0.00    +0.000 NA
ATOM     14  C   UNL     1       1.204  -2.152  -9.552  0.00  0.00    +0.000 A 
ATOM     15  N   UNL     1       2.292  -1.451  -9.854  0.00  0.00    +0.000 NA
ATOM     16  C   UNL     1       2.989  -1.073  -8.768  0.00  0.00    +0.000 A 
ATOM     17  S   UNL     1       4.409  -0.165  -8.965  0.00  0.00    +0.000 S 
ATOM     18  C   UNL     1       4.664  -0.109  -7.286  0.00  0.00    +0.000 A 
ATOM     19  C   UNL     1       3.695  -0.774  -6.542  0.00  0.00    +0.000 A 
ATOM     20  C   UNL     1       2.679  -1.332  -7.435  0.00  0.00    +0.000 A 
BRANCH  12  22
ATOM     21  C   UNL     1      -0.269  -3.025  -6.088  0.00  0.00    +0.000 C 
ATOM     22  O   UNL     1       0.980  -2.335  -6.021  0.00  0.00    +0.000 OA
ENDBRANCH  12  22
ENDBRANCH   8  19
ENDBRANCH   7  10
ENDBRANCH   1   7
BRANCH   4  23
ATOM     23  C   UNL     1      -1.492  -4.497  -0.421  0.00  0.00    +0.000 C 
BRANCH  23  24
ATOM     24  O   UNL     1      -0.979  -5.101   0.762  0.00  0.00    +0.000 OA
BRANCH  24  25
ATOM     25  C   UNL     1      -1.996  -5.784   1.503  0.00  0.00    +0.000 C 
BRANCH  25  26
ATOM     26  C   UNL     1      -1.409  -6.413   2.749  0.00  0.00    +0.000 A 
ATOM     27  C   UNL     1      -0.086  -6.847   2.777  0.00  0.00    +0.000 A 
ATOM     28  C   UNL     1       0.408  -7.426   3.945  0.00  0.00    +0.000 A 
ATOM     29  C   UNL     1      -0.429  -7.577   5.046  0.00  0.00    +0.000 A 
ATOM     30  C   UNL     1      -1.735  -7.139   4.929  0.00  0.00    +0.000 A 
ATOM     31  N   UNL     1      -2.239  -6.570   3.812  0.00  0.00    +0.000 NA
BRANCH  28  32
ATOM     32  C   UNL     1       1.772  -7.859   4.009  0.00  0.00    +0.000 C 
ATOM     33  N   UNL     1       2.876  -8.214   4.063  0.00  0.00    +0.000 NA
ENDBRANCH  28  32
ENDBRANCH  25  26
ENDBRANCH  24  25
ENDBRANCH  23  24
ENDBRANCH   4  23
TORSDOF 9
