REMARK  Name = 
REMARK  7 active torsions:
REMARK  status: ('A' for Active; 'I' for Inactive)
REMARK    1  A    between atoms: C_1  and  C_2
REMARK    2  A    between atoms: C_2  and  C_3
REMARK    3  A    between atoms: C_2  and  C_4
REMARK    4  A    between atoms: C_2  and  C_20
REMARK    5  A    between atoms: C_4  and  N_5
REMARK    6  A    between atoms: C_10  and  C_11
REMARK    7  A    between atoms: C_23  and  O_24
REMARK                            x       y       z     vdW  Elec       q    Type
REMARK                         _______ _______ _______ _____ _____    ______ ____
ROOT
ATOM      1  N   UNL     1       2.710   2.020  -1.552  0.00  0.00    +0.000 N 
ATOM      2  C   UNL     1       3.131   3.318  -1.792  0.00  0.00    +0.000 A 
ATOM      3  N   UNL     1       2.310   4.040  -2.560  0.00  0.00    +0.000 NA
ATOM      4  C   UNL     1       2.701   5.286  -2.870  0.00  0.00    +0.000 A 
ATOM      5  C   UNL     1       3.874   5.840  -2.426  0.00  0.00    +0.000 A 
ATOM      6  C   UNL     1       4.661   5.041  -1.624  0.00  0.00    +0.000 A 
ATOM      7  N   UNL     1       4.293   3.775  -1.303  0.00  0.00    +0.000 NA
ATOM      8  H   UNL     1       1.714   2.016  -1.754  0.00  0.00    +0.000 HD
ENDROOT
BRANCH   6   9
ATOM      9  C   UNL     1       5.973   5.488  -1.105  0.00  0.00    +0.000 A 
ATOM     10  C   UNL     1       6.253   6.842  -0.849  0.00  0.00    +0.000 A 
ATOM     11  C   UNL     1       7.520   7.243  -0.416  0.00  0.00    +0.000 A 
ATOM     12  F   UNL     1       7.753   8.545  -0.198  0.00  0.00    +0.000 F 
ATOM     13  C   UNL     1       8.532   6.324  -0.216  0.00  0.00    +0.000 A 
ATOM     14  C   UNL     1       8.264   4.984  -0.441  0.00  0.00    +0.000 A 
ATOM     15  F   UNL     1       9.233   4.078  -0.253  0.00  0.00    +0.000 F 
ATOM     16  C   UNL     1       7.007   4.562  -0.875  0.00  0.00    +0.000 A 
ENDBRANCH   6   9
BRANCH   1  17
ATOM     17  C   UNL     1       3.072   1.449  -0.265  0.00  0.00    +0.000 C 
BRANCH  17  19
ATOM     18  C   UNL     1       3.290  -0.907  -1.202  0.00  0.00    +0.000 C 
ATOM     19  C   UNL     1       2.595  -0.035  -0.124  0.00  0.00    +0.000 C 
ATOM     20  C   UNL     1       3.119  -0.552   1.243  0.00  0.00    +0.000 C 
BRANCH  19  21
ATOM     21  C   UNL     1       1.055  -0.164  -0.206  0.00  0.00    +0.000 A 
ATOM     22  C   UNL     1       0.238  -0.025   0.933  0.00  0.00    +0.000 A 
ATOM     23  C   UNL     1      -1.149  -0.204   0.868  0.00  0.00    +0.000 A 
ATOM     24  C   UNL     1      -1.747  -0.505  -0.347  0.00  0.00    +0.000 A 
ATOM     25  C   UNL     1      -0.981  -0.620  -1.495  0.00  0.00    +0.000 A 
ATOM     26  C   UNL     1       0.404  -0.445  -1.425  0.00  0.00    +0.000 A 
BRANCH  24  27
ATOM     27  O   UNL     1      -3.091  -0.696  -0.455  0.00  0.00    +0.000 OA
ATOM     28  H   UNL     1      -3.489  -0.589   0.425  0.00  0.00    +0.000 HD
ENDBRANCH  24  27
ENDBRANCH  19  21
ENDBRANCH  17  19
ENDBRANCH   1  17
TORSDOF 5
