REMARK  Name = 
REMARK  7 active torsions:
REMARK  status: ('A' for Active; 'I' for Inactive)
REMARK    1  A    between atoms: C_1  and  C_2
REMARK    2  A    between atoms: C_2  and  C_3
REMARK    3  A    between atoms: C_8  and  C_9
REMARK    4  A    between atoms: N_11  and  C_12
REMARK    5  A    between atoms: C_12  and  C_13
REMARK    6  A    between atoms: C_16  and  C_17
REMARK    7  A    between atoms: C_17  and  C_18
REMARK                            x       y       z     vdW  Elec       q    Type
REMARK                         _______ _______ _______ _____ _____    ______ ____
ROOT
ATOM      1  C   UNL     1       2.838  -5.947  -2.312  0.00  0.00    +0.000 C 
ATOM      2  O   UNL     1       2.293  -6.479  -3.270  0.00  0.00    +0.000 OA
ATOM      3  N   UNL     1       2.946  -6.579  -1.092  0.00  0.00    +0.000 N 
ATOM      4  H   UNL     1       3.548  -6.178  -0.381  0.00  0.00    +0.000 HD
ENDROOT
BRANCH   1  10
ATOM      5  C   UNL     1       5.134  -1.747   0.117  0.00  0.00    +0.000 A 
ATOM      6  N   UNL     1       4.873  -1.449  -1.117  0.00  0.00    +0.000 NA
ATOM      7  C   UNL     1       4.314  -2.464  -1.851  0.00  0.00    +0.000 A 
ATOM      8  S   UNL     1       3.906  -2.267  -3.492  0.00  0.00    +0.000 S 
ATOM      9  C   UNL     1       3.298  -3.862  -3.597  0.00  0.00    +0.000 A 
ATOM     10  C   UNL     1       3.384  -4.578  -2.404  0.00  0.00    +0.000 A 
ATOM     11  C   UNL     1       4.043  -3.744  -1.416  0.00  0.00    +0.000 A 
ATOM     12  C   UNL     1       4.431  -4.035  -0.056  0.00  0.00    +0.000 A 
ATOM     13  O   UNL     1       4.398  -5.156   0.434  0.00  0.00    +0.000 OA
ATOM     14  N   UNL     1       4.910  -2.989   0.659  0.00  0.00    +0.000 N 
ATOM     15  H   UNL     1       5.187  -3.206   1.609  0.00  0.00    +0.000 HD
BRANCH   5  17
ATOM     16  C   UNL     1       7.266  -0.862   1.072  0.00  0.00    +0.000 C 
ATOM     17  C   UNL     1       5.751  -0.757   1.073  0.00  0.00    +0.000 C 
ENDBRANCH   5  17
ENDBRANCH   1  10
BRANCH   3  18
ATOM     18  C   UNL     1       2.452  -7.904  -0.800  0.00  0.00    +0.000 C 
BRANCH  18  19
ATOM     19  C   UNL     1       1.421  -7.919   0.314  0.00  0.00    +0.000 A 
ATOM     20  C   UNL     1       0.211  -7.232   0.157  0.00  0.00    +0.000 A 
ATOM     21  C   UNL     1      -0.786  -7.288   1.142  0.00  0.00    +0.000 A 
ATOM     22  C   UNL     1      -0.629  -8.096   2.279  0.00  0.00    +0.000 A 
ATOM     23  C   UNL     1       0.577  -8.782   2.440  0.00  0.00    +0.000 A 
ATOM     24  C   UNL     1       1.607  -8.653   1.498  0.00  0.00    +0.000 A 
BRANCH  22  25
ATOM     25  C   UNL     1      -1.698  -8.229   3.342  0.00  0.00    +0.000 C 
BRANCH  25  26
ATOM     26  C   UNL     1      -2.713  -9.332   3.132  0.00  0.00    +0.000 A 
ATOM     27  C   UNL     1      -3.542  -9.308   2.014  0.00  0.00    +0.000 A 
ATOM     28  C   UNL     1      -4.610 -10.195   1.944  0.00  0.00    +0.000 A 
ATOM     29  C   UNL     1      -4.807 -11.105   2.974  0.00  0.00    +0.000 A 
ATOM     30  C   UNL     1      -3.912 -11.100   4.030  0.00  0.00    +0.000 A 
ATOM     31  N   UNL     1      -2.880 -10.233   4.137  0.00  0.00    +0.000 NA
ENDBRANCH  25  26
ENDBRANCH  22  25
ENDBRANCH  18  19
ENDBRANCH   3  18
TORSDOF 6
