REMARK  Name = 
REMARK  8 active torsions:
REMARK  status: ('A' for Active; 'I' for Inactive)
REMARK    1  A    between atoms: C_1  and  C_2
REMARK    2  A    between atoms: C_2  and  N_3
REMARK    3  A    between atoms: C_2  and  C_25
REMARK    4  A    between atoms: N_3  and  C_4
REMARK    5  A    between atoms: C_4  and  C_5
REMARK    6  A    between atoms: C_8  and  C_9
REMARK    7  A    between atoms: C_9  and  N_10
REMARK    8  A    between atoms: C_11  and  C_13
REMARK                            x       y       z     vdW  Elec       q    Type
REMARK                         _______ _______ _______ _____ _____    ______ ____
ROOT
ATOM      1  C   UNL     1      -0.938  -0.754  -1.150  0.00  0.00    +0.000 A 
ATOM      2  C   UNL     1      -1.549  -1.677  -2.002  0.00  0.00    +0.000 A 
ATOM      3  C   UNL     1      -2.933  -1.833  -1.980  0.00  0.00    +0.000 A 
ATOM      4  C   UNL     1      -3.685  -1.049  -1.108  0.00  0.00    +0.000 A 
ATOM      5  N   UNL     1      -3.115  -0.150  -0.266  0.00  0.00    +0.000 NA
ATOM      6  C   UNL     1      -1.768  -0.024  -0.309  0.00  0.00    +0.000 A 
ENDROOT
BRANCH   1   7
ATOM      7  C   UNL     1       0.559  -0.630  -1.068  0.00  0.00    +0.000 C 
BRANCH   7   8
ATOM      8  N   UNL     1       1.160  -0.341  -2.370  0.00  0.00    +0.000 NA
ATOM      9  H   UNL     1       0.819   0.570  -2.684  0.00  0.00    +0.000 HD
BRANCH   8  11
ATOM     10  C   UNL     1       3.287  -1.580  -1.886  0.00  0.00    +0.000 C 
ATOM     11  C   UNL     1       2.636  -0.256  -2.310  0.00  0.00    +0.000 C 
BRANCH  11  12
ATOM     12  C   UNL     1       3.205   0.212  -3.651  0.00  0.00    +0.000 A 
ATOM     13  C   UNL     1       3.037  -0.547  -4.810  0.00  0.00    +0.000 A 
ATOM     14  C   UNL     1       3.551  -0.073  -6.014  0.00  0.00    +0.000 A 
ATOM     15  C   UNL     1       4.215   1.147  -6.036  0.00  0.00    +0.000 A 
ATOM     16  C   UNL     1       4.340   1.841  -4.847  0.00  0.00    +0.000 A 
ATOM     17  N   UNL     1       3.854   1.407  -3.662  0.00  0.00    +0.000 NA
ENDBRANCH  11  12
ENDBRANCH   8  11
ENDBRANCH   7   8
ENDBRANCH   1   7
BRANCH   4  18
ATOM     18  C   UNL     1      -5.182  -1.236  -1.018  0.00  0.00    +0.000 C 
BRANCH  18  19
ATOM     19  N   UNL     1      -5.525  -2.230  -0.023  0.00  0.00    +0.000 N 
ATOM     20  C   UNL     1      -6.629  -3.031  -0.149  0.00  0.00    +0.000 C 
ATOM     21  O   UNL     1      -7.347  -2.996  -1.145  0.00  0.00    +0.000 OA
ATOM     22  H   UNL     1      -5.090  -2.107   0.887  0.00  0.00    +0.000 HD
BRANCH  20  23
ATOM     23  C   UNL     1      -6.874  -3.996   0.930  0.00  0.00    +0.000 A 
ATOM     24  C   UNL     1      -7.624  -5.136   0.672  0.00  0.00    +0.000 A 
ATOM     25  S   UNL     1      -7.767  -6.182   2.010  0.00  0.00    +0.000 S 
ATOM     26  C   UNL     1      -6.877  -5.123   3.001  0.00  0.00    +0.000 A 
ATOM     27  N   UNL     1      -6.646  -5.417   4.308  0.00  0.00    +0.000 NA
ATOM     28  C   UNL     1      -5.991  -4.509   4.951  0.00  0.00    +0.000 A 
ATOM     29  N   UNL     1      -5.540  -3.337   4.403  0.00  0.00    +0.000 N 
ATOM     30  C   UNL     1      -5.722  -3.011   3.080  0.00  0.00    +0.000 A 
ATOM     31  O   UNL     1      -5.268  -1.974   2.609  0.00  0.00    +0.000 OA
ATOM     32  C   UNL     1      -6.464  -3.994   2.314  0.00  0.00    +0.000 A 
ATOM     33  H   UNL     1      -5.029  -2.668   4.960  0.00  0.00    +0.000 HD
ENDBRANCH  20  23
ENDBRANCH  18  19
ENDBRANCH   4  18
TORSDOF 7
