REMARK  Name = 
REMARK  7 active torsions:
REMARK  status: ('A' for Active; 'I' for Inactive)
REMARK    1  A    between atoms: N_1  and  C_2
REMARK    2  A    between atoms: C_2  and  C_3
REMARK    3  A    between atoms: C_7  and  C_8
REMARK    4  A    between atoms: C_8  and  C_9
REMARK    5  A    between atoms: C_9  and  N_10
REMARK    6  A    between atoms: N_10  and  C_11
REMARK    7  A    between atoms: C_14  and  C_15
REMARK                            x       y       z     vdW  Elec       q    Type
REMARK                         _______ _______ _______ _____ _____    ______ ____
ROOT
ATOM      1  N   UNL     1       1.940  -7.292   1.018  0.00  0.00    +0.000 N 
ATOM      2  H   UNL     1       2.367  -7.524   0.123  0.00  0.00    +0.000 HD
ENDROOT
BRANCH   1   3
ATOM      3  C   UNL     1       1.953  -8.385   1.902  0.00  0.00    +0.000 A 
ATOM      4  C   UNL     1       1.752  -8.252   3.281  0.00  0.00    +0.000 A 
ATOM      5  C   UNL     1       1.709  -9.373   4.109  0.00  0.00    +0.000 A 
ATOM      6  C   UNL     1       1.835 -10.624   3.529  0.00  0.00    +0.000 A 
ATOM      7  N   UNL     1       1.990 -10.823   2.191  0.00  0.00    +0.000 NA
ATOM      8  C   UNL     1       2.025  -9.699   1.426  0.00  0.00    +0.000 A 
BRANCH   6   9
ATOM      9  C   UNL     1       1.780 -11.840   4.399  0.00  0.00    +0.000 C 
ATOM     10  N   UNL     1       1.900 -13.037   3.747  0.00  0.00    +0.000 N 
ATOM     11  O   UNL     1       1.633 -11.784   5.613  0.00  0.00    +0.000 OA
ATOM     12  H   UNL     1       1.993 -13.046   2.738  0.00  0.00    +0.000 HD
ATOM     13  H   UNL     1       1.833 -13.896   4.270  0.00  0.00    +0.000 HD
ENDBRANCH   6   9
ENDBRANCH   1   3
BRANCH   1  14
ATOM     14  C   UNL     1       2.411  -6.004   1.548  0.00  0.00    +0.000 C 
BRANCH  14  15
ATOM     15  C   UNL     1       2.353  -4.901   0.483  0.00  0.00    +0.000 C 
BRANCH  15  20
ATOM     16  C   UNL     1       2.362  -1.593   2.395  0.00  0.00    +0.000 A 
ATOM     17  C   UNL     1       3.711  -1.229   2.300  0.00  0.00    +0.000 A 
ATOM     18  C   UNL     1       4.607  -2.025   1.587  0.00  0.00    +0.000 A 
ATOM     19  C   UNL     1       4.169  -3.200   0.972  0.00  0.00    +0.000 A 
ATOM     20  C   UNL     1       2.824  -3.584   1.057  0.00  0.00    +0.000 A 
ATOM     21  C   UNL     1       1.929  -2.769   1.766  0.00  0.00    +0.000 A 
BRANCH  16  22
ATOM     22  C   UNL     1       1.407  -0.788   3.238  0.00  0.00    +0.000 C 
BRANCH  22  23
ATOM     23  N   UNL     1       1.334  -1.338   4.586  0.00  0.00    +0.000 NA
ATOM     24  H   UNL     1       0.807  -0.702   5.179  0.00  0.00    +0.000 HD
ATOM     25  H   UNL     1       2.275  -1.387   4.974  0.00  0.00    +0.000 HD
ENDBRANCH  22  23
ENDBRANCH  16  22
ENDBRANCH  15  20
ENDBRANCH  14  15
ENDBRANCH   1  14
TORSDOF 7
