REMARK  Name = 
REMARK  7 active torsions:
REMARK  status: ('A' for Active; 'I' for Inactive)
REMARK    1  A    between atoms: C_1  and  C_2
REMARK    2  A    between atoms: N_4  and  C_5
REMARK    3  A    between atoms: C_7  and  C_8
REMARK    4  A    between atoms: C_8  and  C_9
REMARK    5  A    between atoms: C_9  and  N_10
REMARK    6  A    between atoms: C_14  and  C_15
REMARK    7  A    between atoms: C_21  and  C_22
REMARK                            x       y       z     vdW  Elec       q    Type
REMARK                         _______ _______ _______ _____ _____    ______ ____
ROOT
ATOM      1  C   UNL     1       1.782   1.352  -3.329  0.00  0.00    +0.000 A 
ATOM      2  C   UNL     1       2.188   2.629  -3.753  0.00  0.00    +0.000 A 
ATOM      3  C   UNL     1       1.442   3.402  -4.661  0.00  0.00    +0.000 A 
ATOM      4  C   UNL     1       0.239   2.884  -5.148  0.00  0.00    +0.000 A 
ATOM      5  C   UNL     1      -0.208   1.620  -4.745  0.00  0.00    +0.000 A 
ATOM      6  C   UNL     1       0.560   0.883  -3.825  0.00  0.00    +0.000 A 
ENDROOT
BRANCH   1  10
ATOM      7  C   UNL     1       1.851  -2.406  -3.161  0.00  0.00    +0.000 C 
ATOM      8  C   UNL     1       2.544  -1.840  -1.919  0.00  0.00    +0.000 C 
ATOM      9  C   UNL     1       2.036  -0.416  -1.564  0.00  0.00    +0.000 C 
ATOM     10  N   UNL     1       2.575   0.608  -2.472  0.00  0.00    +0.000 N 
ATOM     11  C   UNL     1       4.033   0.549  -2.689  0.00  0.00    +0.000 C 
ATOM     12  C   UNL     1       4.498  -0.891  -3.007  0.00  0.00    +0.000 C 
ATOM     13  N   UNL     1       4.021  -1.912  -2.051  0.00  0.00    +0.000 NA
ATOM     14  H   UNL     1       4.421  -1.684  -1.140  0.00  0.00    +0.000 HD
ENDBRANCH   1  10
BRANCH   5  15
ATOM     15  C   UNL     1      -1.462   1.013  -5.321  0.00  0.00    +0.000 C 
ATOM     16  F   UNL     1      -2.086   1.814  -6.231  0.00  0.00    +0.000 F 
ATOM     17  F   UNL     1      -1.220  -0.161  -5.969  0.00  0.00    +0.000 F 
ATOM     18  F   UNL     1      -2.396   0.729  -4.372  0.00  0.00    +0.000 F 
ENDBRANCH   5  15
BRANCH   3  19
ATOM     19  C   UNL     1       1.970   4.728  -5.169  0.00  0.00    +0.000 C 
BRANCH  19  20
ATOM     20  C   UNL     1       2.188   5.771  -4.072  0.00  0.00    +0.000 C 
BRANCH  20  21
ATOM     21  N   UNL     1       2.688   7.032  -4.643  0.00  0.00    +0.000 N 
ATOM     22  C   UNL     1       2.909   8.022  -3.660  0.00  0.00    +0.000 A 
ATOM     23  C   UNL     1       3.388   9.266  -4.050  0.00  0.00    +0.000 A 
ATOM     24  C   UNL     1       3.625  10.247  -3.086  0.00  0.00    +0.000 A 
ATOM     25  C   UNL     1       3.367   9.932  -1.764  0.00  0.00    +0.000 A 
ATOM     26  N   UNL     1       2.913   8.717  -1.389  0.00  0.00    +0.000 NA
ATOM     27  N   UNL     1       2.698   7.761  -2.348  0.00  0.00    +0.000 NA
ATOM     28  H   UNL     1       2.068   7.411  -5.356  0.00  0.00    +0.000 HD
BRANCH  25  29
ATOM     29  C   UNL     1       3.568  10.926  -0.675  0.00  0.00    +0.000 C 
ATOM     30  N   UNL     1       3.255  10.503   0.590  0.00  0.00    +0.000 N 
ATOM     31  O   UNL     1       3.977  12.059  -0.890  0.00  0.00    +0.000 OA
ATOM     32  H   UNL     1       2.917   9.561   0.758  0.00  0.00    +0.000 HD
ATOM     33  H   UNL     1       3.374  11.138   1.366  0.00  0.00    +0.000 HD
ENDBRANCH  25  29
ENDBRANCH  20  21
ENDBRANCH  19  20
ENDBRANCH   3  19
TORSDOF 6
