REMARK  Name = 
REMARK  8 active torsions:
REMARK  status: ('A' for Active; 'I' for Inactive)
REMARK    1  A    between atoms: N_1  and  C_2
REMARK    2  A    between atoms: C_2  and  C_3
REMARK    3  A    between atoms: C_2  and  C_17
REMARK    4  A    between atoms: C_3  and  N_4
REMARK    5  A    between atoms: C_5  and  C_7
REMARK    6  A    between atoms: C_20  and  C_21
REMARK    7  A    between atoms: C_21  and  N_22
REMARK    8  A    between atoms: C_23  and  C_25
REMARK                            x       y       z     vdW  Elec       q    Type
REMARK                         _______ _______ _______ _____ _____    ______ ____
ROOT
ATOM      1  C   UNL     1       2.419  -0.081   0.051  0.00  0.00    +0.000 C 
ENDROOT
BRANCH   1   2
ATOM      2  C   UNL     1       2.865   1.029  -0.899  0.00  0.00    +0.000 A 
ATOM      3  C   UNL     1       2.399   2.344  -0.713  0.00  0.00    +0.000 A 
ATOM      4  C   UNL     1       2.753   3.375  -1.584  0.00  0.00    +0.000 A 
ATOM      5  C   UNL     1       3.604   3.129  -2.664  0.00  0.00    +0.000 A 
ATOM      6  C   UNL     1       4.141   1.845  -2.814  0.00  0.00    +0.000 A 
ATOM      7  C   UNL     1       3.778   0.811  -1.943  0.00  0.00    +0.000 A 
BRANCH   5   8
ATOM      8  C   UNL     1       3.936   4.216  -3.647  0.00  0.00    +0.000 C 
BRANCH   8   9
ATOM      9  N   UNL     1       5.069   4.999  -3.228  0.00  0.00    +0.000 N 
ATOM     10  C   UNL     1       5.499   6.053  -4.008  0.00  0.00    +0.000 C 
ATOM     11  O   UNL     1       4.914   6.413  -5.027  0.00  0.00    +0.000 OA
ATOM     12  H   UNL     1       5.791   4.560  -2.668  0.00  0.00    +0.000 HD
BRANCH  10  13
ATOM     13  C   UNL     1       6.688   6.820  -3.421  0.00  0.00    +0.000 C 
ATOM     14  C   UNL     1       7.612   7.387  -4.480  0.00  0.00    +0.000 C 
ATOM     15  C   UNL     1       8.870   7.680  -3.689  0.00  0.00    +0.000 C 
ATOM     16  C   UNL     1       8.889   6.625  -2.591  0.00  0.00    +0.000 C 
ATOM     17  N   UNL     1       7.580   5.956  -2.608  0.00  0.00    +0.000 NA
ATOM     18  H   UNL     1       7.215   5.902  -1.657  0.00  0.00    +0.000 HD
ENDBRANCH  10  13
ENDBRANCH   8   9
ENDBRANCH   5   8
ENDBRANCH   1   2
BRANCH   1  19
ATOM     19  N   UNL     1       1.047   0.171   0.544  0.00  0.00    +0.000 NA
ATOM     20  H   UNL     1       0.762  -0.624   1.113  0.00  0.00    +0.000 HD
ATOM     21  H   UNL     1       0.417   0.131  -0.261  0.00  0.00    +0.000 HD
ENDBRANCH   1  19
BRANCH   1  22
ATOM     22  C   UNL     1       2.514  -1.520  -0.538  0.00  0.00    +0.000 C 
BRANCH  22  23
ATOM     23  N   UNL     1       2.139  -2.551   0.420  0.00  0.00    +0.000 N 
ATOM     24  C   UNL     1       0.877  -3.082   0.494  0.00  0.00    +0.000 C 
ATOM     25  O   UNL     1      -0.016  -2.743  -0.277  0.00  0.00    +0.000 OA
ATOM     26  H   UNL     1       2.805  -2.744   1.162  0.00  0.00    +0.000 HD
BRANCH  24  27
ATOM     27  C   UNL     1       0.641  -4.079   1.544  0.00  0.00    +0.000 A 
ATOM     28  C   UNL     1      -0.407  -4.975   1.409  0.00  0.00    +0.000 A 
ATOM     29  S   UNL     1      -0.559  -6.054   2.720  0.00  0.00    +0.000 S 
ATOM     30  C   UNL     1       0.747  -5.329   3.536  0.00  0.00    +0.000 A 
ATOM     31  N   UNL     1       1.121  -5.756   4.772  0.00  0.00    +0.000 NA
ATOM     32  C   UNL     1       2.101  -5.096   5.291  0.00  0.00    +0.000 A 
ATOM     33  N   UNL     1       2.752  -4.055   4.682  0.00  0.00    +0.000 N 
ATOM     34  C   UNL     1       2.450  -3.631   3.408  0.00  0.00    +0.000 A 
ATOM     35  O   UNL     1       3.123  -2.775   2.842  0.00  0.00    +0.000 OA
ATOM     36  C   UNL     1       1.319  -4.307   2.799  0.00  0.00    +0.000 A 
ATOM     37  H   UNL     1       3.535  -3.606   5.132  0.00  0.00    +0.000 HD
ENDBRANCH  24  27
ENDBRANCH  22  23
ENDBRANCH   1  22
TORSDOF 8
