REMARK  Name = 
REMARK  7 active torsions:
REMARK  status: ('A' for Active; 'I' for Inactive)
REMARK    1  A    between atoms: C_2  and  C_20
REMARK    2  A    between atoms: N_3  and  C_4
REMARK    3  A    between atoms: C_4  and  C_5
REMARK    4  A    between atoms: C_8  and  C_9
REMARK    5  A    between atoms: C_9  and  O_10
REMARK    6  A    between atoms: O_10  and  C_11
REMARK    7  A    between atoms: C_11  and  C_12
REMARK                            x       y       z     vdW  Elec       q    Type
REMARK                         _______ _______ _______ _____ _____    ______ ____
ROOT
ATOM      1  C   UNL     1       2.302   2.470  -0.017  0.00  0.00    +0.000 C 
ENDROOT
BRANCH   1   2
ATOM      2  C   UNL     1       3.270   3.627  -0.036  0.00  0.00    +0.000 A 
ATOM      3  C   UNL     1       2.793   4.935   0.003  0.00  0.00    +0.000 A 
ATOM      4  C   UNL     1       3.701   5.986  -0.034  0.00  0.00    +0.000 A 
ATOM      5  C   UNL     1       5.067   5.711  -0.110  0.00  0.00    +0.000 A 
ATOM      6  C   UNL     1       5.457   4.376  -0.117  0.00  0.00    +0.000 A 
ATOM      7  N   UNL     1       4.595   3.335  -0.077  0.00  0.00    +0.000 NA
BRANCH   5   8
ATOM      8  C   UNL     1       6.082   6.805  -0.268  0.00  0.00    +0.000 C 
BRANCH   8   9
ATOM      9  O   UNL     1       6.833   6.652  -1.474  0.00  0.00    +0.000 OA
BRANCH   9  10
ATOM     10  C   UNL     1       6.027   6.801  -2.643  0.00  0.00    +0.000 C 
BRANCH  10  11
ATOM     11  C   UNL     1       6.885   6.675  -3.873  0.00  0.00    +0.000 A 
ATOM     12  C   UNL     1       6.678   5.625  -4.780  0.00  0.00    +0.000 A 
ATOM     13  C   UNL     1       7.431   5.542  -5.951  0.00  0.00    +0.000 A 
ATOM     14  C   UNL     1       8.399   6.506  -6.225  0.00  0.00    +0.000 A 
ATOM     15  C   UNL     1       8.627   7.543  -5.321  0.00  0.00    +0.000 A 
ATOM     16  C   UNL     1       7.877   7.625  -4.148  0.00  0.00    +0.000 A 
ENDBRANCH  10  11
ENDBRANCH   9  10
ENDBRANCH   8   9
ENDBRANCH   5   8
ENDBRANCH   1   2
BRANCH   1  19
ATOM     17  O   UNL     1       0.293   3.555   1.636  0.00  0.00    +0.000 OA
ATOM     18  C   UNL     1       0.965   2.616   2.053  0.00  0.00    +0.000 C 
ATOM     19  N   UNL     1       1.976   2.055   1.325  0.00  0.00    +0.000 N 
ATOM     20  H   UNL     1       2.493   1.261   1.684  0.00  0.00    +0.000 HD
BRANCH  18  21
ATOM     21  C   UNL     1       0.750   2.051   3.388  0.00  0.00    +0.000 A 
ATOM     22  C   UNL     1       0.183   2.824   4.390  0.00  0.00    +0.000 A 
ATOM     23  S   UNL     1       0.006   1.993   5.870  0.00  0.00    +0.000 S 
ATOM     24  C   UNL     1       0.646   0.561   5.208  0.00  0.00    +0.000 A 
ATOM     25  N   UNL     1       0.747  -0.572   5.953  0.00  0.00    +0.000 NA
ATOM     26  C   UNL     1       1.211  -1.593   5.310  0.00  0.00    +0.000 A 
ATOM     27  N   UNL     1       1.592  -1.580   3.994  0.00  0.00    +0.000 N 
ATOM     28  C   UNL     1       1.559  -0.446   3.217  0.00  0.00    +0.000 A 
ATOM     29  O   UNL     1       1.998  -0.452   2.072  0.00  0.00    +0.000 OA
ATOM     30  C   UNL     1       1.012   0.722   3.883  0.00  0.00    +0.000 A 
ATOM     31  H   UNL     1       1.970  -2.406   3.555  0.00  0.00    +0.000 HD
ENDBRANCH  18  21
ENDBRANCH   1  19
TORSDOF 7
