REMARK  Name = 
REMARK  4 active torsions:
REMARK  status: ('A' for Active; 'I' for Inactive)
REMARK    1  A    between atoms: C_2  and  C_4
REMARK    2  A    between atoms: N_8  and  C_9
REMARK    3  A    between atoms: C_9  and  C_10
REMARK    4  A    between atoms: C_15  and  N_16
REMARK                            x       y       z     vdW  Elec       q    Type
REMARK                         _______ _______ _______ _____ _____    ______ ____
ROOT
ATOM      1  C   UNL     1       4.997  -2.758  -5.398  0.00  0.00    +0.000 C 
ENDROOT
BRANCH   1   6
ATOM      2  C   UNL     1       6.530  -3.186  -0.501  0.00  0.00    +0.000 A 
ATOM      3  C   UNL     1       7.143  -2.587  -1.592  0.00  0.00    +0.000 A 
ATOM      4  C   UNL     1       6.521  -2.649  -2.835  0.00  0.00    +0.000 A 
ATOM      5  C   UNL     1       5.302  -3.304  -2.971  0.00  0.00    +0.000 A 
ATOM      6  N   UNL     1       4.593  -3.334  -4.138  0.00  0.00    +0.000 N 
ATOM      7  N   UNL     1       4.722  -3.926  -1.924  0.00  0.00    +0.000 NA
ATOM      8  C   UNL     1       5.342  -3.863  -0.715  0.00  0.00    +0.000 A 
ATOM      9  H   UNL     1       3.766  -3.916  -4.100  0.00  0.00    +0.000 HD
BRANCH   2  11
ATOM     10  N   UNL     1       7.885  -2.037   1.150  0.00  0.00    +0.000 N 
ATOM     11  C   UNL     1       7.104  -3.119   0.858  0.00  0.00    +0.000 C 
ATOM     12  O   UNL     1       6.861  -3.976   1.696  0.00  0.00    +0.000 OA
ATOM     13  H   UNL     1       8.193  -1.945   2.109  0.00  0.00    +0.000 HD
ATOM     14  H   UNL     1       7.905  -1.205   0.573  0.00  0.00    +0.000 HD
ENDBRANCH   2  11
ENDBRANCH   1   6
BRANCH   1  15
ATOM     15  C   UNL     1       5.899  -3.670  -6.194  0.00  0.00    +0.000 A 
ATOM     16  C   UNL     1       6.899  -3.139  -7.012  0.00  0.00    +0.000 A 
ATOM     17  C   UNL     1       7.658  -3.986  -7.812  0.00  0.00    +0.000 A 
ATOM     18  F   UNL     1       8.605  -3.462  -8.601  0.00  0.00    +0.000 F 
ATOM     19  C   UNL     1       7.451  -5.364  -7.817  0.00  0.00    +0.000 A 
ATOM     20  C   UNL     1       6.479  -5.933  -6.994  0.00  0.00    +0.000 A 
ATOM     21  C   UNL     1       5.704  -5.061  -6.206  0.00  0.00    +0.000 A 
BRANCH  20  22
ATOM     22  N   UNL     1       6.206  -7.297  -6.934  0.00  0.00    +0.000 N 
ATOM     23  C   UNL     1       6.608  -8.185  -8.038  0.00  0.00    +0.000 C 
ATOM     24  C   UNL     1       5.856  -9.522  -7.892  0.00  0.00    +0.000 C 
ATOM     25  O   UNL     1       6.100 -10.136  -6.613  0.00  0.00    +0.000 OA
ATOM     26  C   UNL     1       5.695  -9.255  -5.549  0.00  0.00    +0.000 C 
ATOM     27  C   UNL     1       6.453  -7.921  -5.612  0.00  0.00    +0.000 C 
ENDBRANCH  20  22
ENDBRANCH   1  15
TORSDOF 4
