REMARK  Name = 
REMARK  5 active torsions:
REMARK  status: ('A' for Active; 'I' for Inactive)
REMARK    1  A    between atoms: N_1  and  C_2
REMARK    2  A    between atoms: C_2  and  C_3
REMARK    3  A    between atoms: C_3  and  C_4
REMARK    4  A    between atoms: C_7  and  C_8
REMARK    5  A    between atoms: C_8  and  N_9
REMARK                            x       y       z     vdW  Elec       q    Type
REMARK                         _______ _______ _______ _____ _____    ______ ____
ROOT
ATOM      1  C   UNL     1       4.627  -1.192  -0.831  0.00  0.00    +0.000 A 
ATOM      2  C   UNL     1       5.411  -0.031  -0.831  0.00  0.00    +0.000 A 
ATOM      3  C   UNL     1       6.801  -0.105  -0.719  0.00  0.00    +0.000 A 
ATOM      4  C   UNL     1       7.442  -1.346  -0.592  0.00  0.00    +0.000 A 
ATOM      5  C   UNL     1       6.656  -2.509  -0.595  0.00  0.00    +0.000 A 
ATOM      6  C   UNL     1       5.266  -2.432  -0.718  0.00  0.00    +0.000 A 
ENDROOT
BRANCH   1   7
ATOM      7  C   UNL     1       3.117  -1.114  -0.890  0.00  0.00    +0.000 C 
BRANCH   7   8
ATOM      8  C   UNL     1       2.589  -0.518  -2.201  0.00  0.00    +0.000 C 
BRANCH   8   9
ATOM      9  N   UNL     1       1.125  -0.507  -2.221  0.00  0.00    +0.000 NA
ATOM     10  H   UNL     1       0.804  -0.083  -3.092  0.00  0.00    +0.000 HD
ATOM     11  H   UNL     1       0.775   0.086  -1.469  0.00  0.00    +0.000 HD
ENDBRANCH   8   9
ENDBRANCH   7   8
ENDBRANCH   1   7
BRANCH   4  12
ATOM     12  C   UNL     1       8.933  -1.435  -0.335  0.00  0.00    +0.000 C 
BRANCH  12  13
ATOM     13  N   UNL     1       9.181  -1.518   1.099  0.00  0.00    +0.000 N 
ATOM     14  N   UNL     1       9.228  -2.730   1.700  0.00  0.00    +0.000 NA
ATOM     15  C   UNL     1       8.944  -2.444   2.974  0.00  0.00    +0.000 A 
ATOM     16  C   UNL     1       8.821  -1.058   3.211  0.00  0.00    +0.000 A 
ATOM     17  C   UNL     1       8.469  -0.242   4.300  0.00  0.00    +0.000 A 
ATOM     18  C   UNL     1       8.525   1.148   4.146  0.00  0.00    +0.000 A 
ATOM     19  C   UNL     1       8.958   1.717   2.948  0.00  0.00    +0.000 A 
ATOM     20  C   UNL     1       9.270   0.922   1.841  0.00  0.00    +0.000 A 
ATOM     21  C   UNL     1       9.147  -0.467   1.992  0.00  0.00    +0.000 A 
ENDBRANCH  12  13
ENDBRANCH   4  12
TORSDOF 5
