REMARK  Name = 
REMARK  7 active torsions:
REMARK  status: ('A' for Active; 'I' for Inactive)
REMARK    1  A    between atoms: C_1  and  N_2
REMARK    2  A    between atoms: N_2  and  C_3
REMARK    3  A    between atoms: C_3  and  C_4
REMARK    4  A    between atoms: C_7  and  C_8
REMARK    5  A    between atoms: C_8  and  N_9
REMARK    6  A    between atoms: C_10  and  C_12
REMARK    7  A    between atoms: C_19  and  C_21
REMARK                            x       y       z     vdW  Elec       q    Type
REMARK                         _______ _______ _______ _____ _____    ______ ____
ROOT
ATOM      1  C   UNL     1       2.302  -1.710   1.952  0.00  0.00    +0.000 A 
ATOM      2  C   UNL     1       2.472  -3.087   1.752  0.00  0.00    +0.000 A 
ATOM      3  C   UNL     1       1.730  -4.006   2.503  0.00  0.00    +0.000 A 
ATOM      4  C   UNL     1       0.805  -3.554   3.451  0.00  0.00    +0.000 A 
ATOM      5  C   UNL     1       0.642  -2.176   3.644  0.00  0.00    +0.000 A 
ATOM      6  C   UNL     1       1.382  -1.257   2.901  0.00  0.00    +0.000 A 
ENDROOT
BRANCH   1   7
ATOM      7  C   UNL     1       3.112  -0.713   1.176  0.00  0.00    +0.000 C 
BRANCH   7   9
ATOM      8  C   UNL     1       1.281  -0.712  -0.567  0.00  0.00    +0.000 C 
ATOM      9  N   UNL     1       2.548  -0.192  -0.073  0.00  0.00    +0.000 N 
ATOM     10  C   UNL     1       2.941   1.051  -0.606  0.00  0.00    +0.000 C 
ATOM     11  O   UNL     1       2.264   1.622  -1.458  0.00  0.00    +0.000 OA
BRANCH  10  12
ATOM     12  C   UNL     1       4.210   1.646  -0.158  0.00  0.00    +0.000 A 
ATOM     13  C   UNL     1       5.358   0.920   0.110  0.00  0.00    +0.000 A 
ATOM     14  S   UNL     1       6.694   1.874   0.559  0.00  0.00    +0.000 S 
ATOM     15  C   UNL     1       5.817   3.303   0.295  0.00  0.00    +0.000 A 
ATOM     16  N   UNL     1       6.420   4.515   0.413  0.00  0.00    +0.000 NA
ATOM     17  C   UNL     1       5.651   5.513   0.139  0.00  0.00    +0.000 A 
ATOM     18  N   UNL     1       4.329   5.410  -0.206  0.00  0.00    +0.000 N 
ATOM     19  C   UNL     1       3.639   4.217  -0.211  0.00  0.00    +0.000 A 
ATOM     20  O   UNL     1       2.421   4.191  -0.273  0.00  0.00    +0.000 OA
ATOM     21  C   UNL     1       4.500   3.052  -0.032  0.00  0.00    +0.000 A 
ATOM     22  H   UNL     1       3.766   6.238  -0.338  0.00  0.00    +0.000 HD
ENDBRANCH  10  12
ENDBRANCH   7   9
ENDBRANCH   1   7
BRANCH   4  23
ATOM     23  C   UNL     1      -0.060  -4.514   4.227  0.00  0.00    +0.000 C 
BRANCH  23  24
ATOM     24  N   UNL     1       0.511  -4.938   5.477  0.00  0.00    +0.000 N 
ATOM     25  C   UNL     1      -0.198  -5.787   6.299  0.00  0.00    +0.000 C 
ATOM     26  O   UNL     1      -1.334  -6.179   6.044  0.00  0.00    +0.000 OA
ATOM     27  H   UNL     1       1.454  -4.690   5.761  0.00  0.00    +0.000 HD
BRANCH  25  28
ATOM     28  C   UNL     1       0.526  -6.189   7.504  0.00  0.00    +0.000 A 
ATOM     29  C   UNL     1       0.054  -7.023   8.499  0.00  0.00    +0.000 A 
ATOM     30  N   UNL     1       1.064  -7.115   9.413  0.00  0.00    +0.000 N 
ATOM     31  C   UNL     1       2.096  -6.339   8.965  0.00  0.00    +0.000 A 
ATOM     32  N   UNL     1       1.814  -5.774   7.812  0.00  0.00    +0.000 NA
ATOM     33  H   UNL     1       1.052  -7.652  10.270  0.00  0.00    +0.000 HD
ENDBRANCH  25  28
ENDBRANCH  23  24
ENDBRANCH   4  23
TORSDOF 6
