REMARK  Name = 
REMARK  7 active torsions:
REMARK  status: ('A' for Active; 'I' for Inactive)
REMARK    1  A    between atoms: C_1  and  N_2
REMARK    2  A    between atoms: N_2  and  C_3
REMARK    3  A    between atoms: C_3  and  C_4
REMARK    4  A    between atoms: C_7  and  C_8
REMARK    5  A    between atoms: C_8  and  N_9
REMARK    6  A    between atoms: C_10  and  C_12
REMARK    7  A    between atoms: C_24  and  C_26
REMARK                            x       y       z     vdW  Elec       q    Type
REMARK                         _______ _______ _______ _____ _____    ______ ____
ROOT
ATOM      1  C   UNL     1       2.208  -1.460   2.092  0.00  0.00    +0.000 A 
ATOM      2  C   UNL     1       2.242  -2.862   2.100  0.00  0.00    +0.000 A 
ATOM      3  C   UNL     1       1.457  -3.588   2.998  0.00  0.00    +0.000 A 
ATOM      4  C   UNL     1       0.618  -2.925   3.898  0.00  0.00    +0.000 A 
ATOM      5  C   UNL     1       0.605  -1.523   3.909  0.00  0.00    +0.000 A 
ATOM      6  C   UNL     1       1.385  -0.795   3.009  0.00  0.00    +0.000 A 
ENDROOT
BRANCH   1   7
ATOM      7  C   UNL     1       3.070  -0.685   1.132  0.00  0.00    +0.000 C 
BRANCH   7   9
ATOM      8  C   UNL     1       1.162  -0.739  -0.542  0.00  0.00    +0.000 C 
ATOM      9  N   UNL     1       2.509  -0.322  -0.175  0.00  0.00    +0.000 N 
ATOM     10  C   UNL     1       3.095   0.659  -1.007  0.00  0.00    +0.000 C 
ATOM     11  O   UNL     1       2.444   1.120  -1.948  0.00  0.00    +0.000 OA
BRANCH  10  12
ATOM     12  C   UNL     1       4.451   1.120  -0.731  0.00  0.00    +0.000 A 
ATOM     13  C   UNL     1       5.569   0.473  -0.234  0.00  0.00    +0.000 A 
ATOM     14  N   UNL     1       6.709   1.242  -0.081  0.00  0.00    +0.000 NA
ATOM     15  C   UNL     1       6.470   2.451  -0.535  0.00  0.00    +0.000 A 
ATOM     16  S   UNL     1       4.890   2.738  -1.128  0.00  0.00    +0.000 S 
ENDBRANCH  10  12
ENDBRANCH   7   9
ENDBRANCH   1   7
BRANCH   4  17
ATOM     17  C   UNL     1      -0.250  -3.693   4.862  0.00  0.00    +0.000 C 
BRANCH  17  18
ATOM     18  N   UNL     1       0.432  -3.939   6.106  0.00  0.00    +0.000 N 
ATOM     19  C   UNL     1      -0.163  -4.665   7.106  0.00  0.00    +0.000 C 
ATOM     20  O   UNL     1      -1.280  -5.163   6.972  0.00  0.00    +0.000 OA
ATOM     21  H   UNL     1       1.216  -3.335   6.332  0.00  0.00    +0.000 HD
BRANCH  19  22
ATOM     22  C   UNL     1       0.628  -4.875   8.321  0.00  0.00    +0.000 A 
ATOM     23  C   UNL     1       0.378  -5.978   9.125  0.00  0.00    +0.000 A 
ATOM     24  S   UNL     1       1.423  -6.096  10.469  0.00  0.00    +0.000 S 
ATOM     25  C   UNL     1       2.210  -4.648  10.053  0.00  0.00    +0.000 A 
ATOM     26  N   UNL     1       3.213  -4.147  10.824  0.00  0.00    +0.000 NA
ATOM     27  C   UNL     1       3.694  -3.022  10.412  0.00  0.00    +0.000 A 
ATOM     28  N   UNL     1       3.270  -2.356   9.291  0.00  0.00    +0.000 N 
ATOM     29  C   UNL     1       2.294  -2.846   8.458  0.00  0.00    +0.000 A 
ATOM     30  O   UNL     1       1.985  -2.257   7.424  0.00  0.00    +0.000 OA
ATOM     31  C   UNL     1       1.700  -4.095   8.891  0.00  0.00    +0.000 A 
ATOM     32  H   UNL     1       3.700  -1.485   9.013  0.00  0.00    +0.000 HD
ENDBRANCH  19  22
ENDBRANCH  17  18
ENDBRANCH   4  17
TORSDOF 6
