REMARK  Name = 
REMARK  9 active torsions:
REMARK  status: ('A' for Active; 'I' for Inactive)
REMARK    1  A    between atoms: C_1  and  O_2
REMARK    2  A    between atoms: O_2  and  C_3
REMARK    3  A    between atoms: C_7  and  N_8
REMARK    4  A    between atoms: N_8  and  C_9
REMARK    5  A    between atoms: N_8  and  C_10
REMARK    6  A    between atoms: C_10  and  C_11
REMARK    7  A    between atoms: C_14  and  C_15
REMARK    8  A    between atoms: C_15  and  N_16
REMARK    9  A    between atoms: C_17  and  C_19
REMARK                            x       y       z     vdW  Elec       q    Type
REMARK                         _______ _______ _______ _____ _____    ______ ____
ROOT
ATOM      1  C   UNL     1       8.080   4.114   1.765  0.00  0.00    +0.000 A 
ATOM      2  C   UNL     1       8.091   5.507   1.616  0.00  0.00    +0.000 A 
ATOM      3  C   UNL     1       9.212   6.160   1.093  0.00  0.00    +0.000 A 
ATOM      4  C   UNL     1      10.341   5.431   0.696  0.00  0.00    +0.000 A 
ATOM      5  C   UNL     1      10.342   4.041   0.875  0.00  0.00    +0.000 A 
ATOM      6  C   UNL     1       9.220   3.388   1.393  0.00  0.00    +0.000 A 
ENDROOT
BRANCH   1   7
ATOM      7  C   UNL     1       6.847   3.392   2.275  0.00  0.00    +0.000 C 
BRANCH   7   8
ATOM      8  N   UNL     1       5.977   3.030   1.159  0.00  0.00    +0.000 N 
ATOM      9  C   UNL     1       4.893   3.931   0.813  0.00  0.00    +0.000 C 
BRANCH   8  14
ATOM     10  C   UNL     1       6.610  -0.487   0.904  0.00  0.00    +0.000 A 
ATOM     11  C   UNL     1       6.237  -0.823  -0.382  0.00  0.00    +0.000 A 
ATOM     12  C   UNL     1       5.754   0.189  -1.194  0.00  0.00    +0.000 A 
ATOM     13  C   UNL     1       5.658   1.483  -0.680  0.00  0.00    +0.000 A 
ATOM     14  C   UNL     1       6.055   1.755   0.631  0.00  0.00    +0.000 A 
ATOM     15  N   UNL     1       6.545   0.765   1.407  0.00  0.00    +0.000 NA
BRANCH  10  17
ATOM     16  C   UNL     1       7.377  -1.097   3.022  0.00  0.00    +0.000 C 
ATOM     17  O   UNL     1       7.072  -1.520   1.697  0.00  0.00    +0.000 OA
ENDBRANCH  10  17
ENDBRANCH   8  14
ENDBRANCH   7   8
ENDBRANCH   1   7
BRANCH   4  18
ATOM     18  C   UNL     1      11.538   6.123   0.098  0.00  0.00    +0.000 C 
BRANCH  18  19
ATOM     19  N   UNL     1      12.479   6.520   1.111  0.00  0.00    +0.000 N 
ATOM     20  C   UNL     1      13.605   7.237   0.789  0.00  0.00    +0.000 C 
ATOM     21  O   UNL     1      13.826   7.616  -0.358  0.00  0.00    +0.000 OA
ATOM     22  H   UNL     1      12.435   6.030   1.999  0.00  0.00    +0.000 HD
BRANCH  20  23
ATOM     23  C   UNL     1      14.507   7.584   1.895  0.00  0.00    +0.000 A 
ATOM     24  C   UNL     1      15.372   8.663   1.761  0.00  0.00    +0.000 A 
ATOM     25  S   UNL     1      16.312   8.962   3.152  0.00  0.00    +0.000 S 
ATOM     26  C   UNL     1      15.634   7.629   3.963  0.00  0.00    +0.000 A 
ATOM     27  N   UNL     1      16.029   7.302   5.223  0.00  0.00    +0.000 NA
ATOM     28  C   UNL     1      15.458   6.249   5.706  0.00  0.00    +0.000 A 
ATOM     29  N   UNL     1      14.524   5.496   5.044  0.00  0.00    +0.000 N 
ATOM     30  C   UNL     1      14.073   5.803   3.783  0.00  0.00    +0.000 A 
ATOM     31  O   UNL     1      13.207   5.131   3.234  0.00  0.00    +0.000 OA
ATOM     32  C   UNL     1      14.692   6.974   3.190  0.00  0.00    +0.000 A 
ATOM     33  H   UNL     1      14.107   4.686   5.480  0.00  0.00    +0.000 HD
ENDBRANCH  20  23
ENDBRANCH  18  19
ENDBRANCH   4  18
TORSDOF 7
