REMARK  Name = 
REMARK  6 active torsions:
REMARK  status: ('A' for Active; 'I' for Inactive)
REMARK    1  A    between atoms: C_1  and  C_2
REMARK    2  A    between atoms: C_2  and  N_3
REMARK    3  A    between atoms: C_2  and  C_16
REMARK    4  A    between atoms: C_4  and  C_6
REMARK    5  A    between atoms: C_19  and  C_20
REMARK    6  A    between atoms: C_20  and  C_21
REMARK                            x       y       z     vdW  Elec       q    Type
REMARK                         _______ _______ _______ _____ _____    ______ ____
ROOT
ATOM      1  N   UNL     1       2.924  -1.320   0.538  0.00  0.00    +0.000 N 
ATOM      2  C   UNL     1       2.573  -1.740   1.799  0.00  0.00    +0.000 C 
ATOM      3  O   UNL     1       1.824  -1.095   2.527  0.00  0.00    +0.000 OA
ATOM      4  H   UNL     1       3.784  -1.695   0.147  0.00  0.00    +0.000 HD
ENDROOT
BRANCH   2   5
ATOM      5  C   UNL     1       3.088  -3.045   2.228  0.00  0.00    +0.000 A 
ATOM      6  C   UNL     1       2.364  -3.795   3.145  0.00  0.00    +0.000 A 
ATOM      7  S   UNL     1       3.102  -5.277   3.551  0.00  0.00    +0.000 S 
ATOM      8  C   UNL     1       4.435  -4.949   2.545  0.00  0.00    +0.000 A 
ATOM      9  N   UNL     1       5.483  -5.812   2.469  0.00  0.00    +0.000 NA
ATOM     10  C   UNL     1       6.440  -5.421   1.695  0.00  0.00    +0.000 A 
ATOM     11  N   UNL     1       6.435  -4.254   0.975  0.00  0.00    +0.000 N 
ATOM     12  C   UNL     1       5.377  -3.376   0.984  0.00  0.00    +0.000 A 
ATOM     13  O   UNL     1       5.362  -2.379   0.270  0.00  0.00    +0.000 OA
ATOM     14  C   UNL     1       4.296  -3.746   1.875  0.00  0.00    +0.000 A 
ATOM     15  H   UNL     1       7.206  -4.020   0.367  0.00  0.00    +0.000 HD
ENDBRANCH   2   5
BRANCH   1  17
ATOM     16  C   UNL     1       0.940   0.028  -0.126  0.00  0.00    +0.000 C 
ATOM     17  C   UNL     1       2.467  -0.048  -0.005  0.00  0.00    +0.000 C 
BRANCH  17  18
ATOM     18  C   UNL     1       3.074   0.234  -1.374  0.00  0.00    +0.000 A 
ATOM     19  C   UNL     1       3.387   1.555  -1.728  0.00  0.00    +0.000 A 
ATOM     20  C   UNL     1       3.876   1.860  -3.001  0.00  0.00    +0.000 A 
ATOM     21  C   UNL     1       4.072   0.850  -3.950  0.00  0.00    +0.000 A 
ATOM     22  C   UNL     1       3.770  -0.472  -3.600  0.00  0.00    +0.000 A 
ATOM     23  C   UNL     1       3.262  -0.774  -2.333  0.00  0.00    +0.000 A 
BRANCH  21  24
ATOM     24  C   UNL     1       4.625   1.175  -5.319  0.00  0.00    +0.000 C 
BRANCH  24  25
ATOM     25  C   UNL     1       6.109   1.091  -5.392  0.00  0.00    +0.000 C 
ATOM     26  C   UNL     1       7.027   1.937  -4.681  0.00  0.00    +0.000 C 
ATOM     27  C   UNL     1       8.339   1.420  -5.093  0.00  0.00    +0.000 C 
ATOM     28  N   UNL     1       8.244   0.436  -5.940  0.00  0.00    +0.000 NA
ATOM     29  C   UNL     1       6.881   0.256  -6.107  0.00  0.00    +0.000 C 
ENDBRANCH  24  25
ENDBRANCH  21  24
ENDBRANCH  17  18
ENDBRANCH   1  17
TORSDOF 5
