REMARK  Name = 
REMARK  7 active torsions:
REMARK  status: ('A' for Active; 'I' for Inactive)
REMARK    1  A    between atoms: C_2  and  C_19
REMARK    2  A    between atoms: N_3  and  C_4
REMARK    3  A    between atoms: C_4  and  C_5
REMARK    4  A    between atoms: C_8  and  O_9
REMARK    5  A    between atoms: O_9  and  C_10
REMARK    6  A    between atoms: C_10  and  C_11
REMARK    7  A    between atoms: C_11  and  N_12
REMARK                            x       y       z     vdW  Elec       q    Type
REMARK                         _______ _______ _______ _____ _____    ______ ____
ROOT
ATOM      1  O   UNL     1       0.223  -0.345   0.596  0.00  0.00    +0.000 OA
ATOM      2  C   UNL     1       0.096  -0.624   1.784  0.00  0.00    +0.000 C 
ATOM      3  N   UNL     1       1.050  -1.316   2.482  0.00  0.00    +0.000 N 
ATOM      4  H   UNL     1       0.959  -1.452   3.480  0.00  0.00    +0.000 HD
ENDROOT
BRANCH   2   5
ATOM      5  C   UNL     1      -1.116  -0.276   2.533  0.00  0.00    +0.000 A 
ATOM      6  C   UNL     1      -2.325  -0.105   1.873  0.00  0.00    +0.000 A 
ATOM      7  S   UNL     1      -3.628   0.230   2.923  0.00  0.00    +0.000 S 
ATOM      8  C   UNL     1      -2.612   0.201   4.287  0.00  0.00    +0.000 A 
ATOM      9  N   UNL     1      -3.104   0.409   5.538  0.00  0.00    +0.000 NA
ATOM     10  C   UNL     1      -2.213   0.385   6.472  0.00  0.00    +0.000 A 
ATOM     11  N   UNL     1      -0.871   0.188   6.270  0.00  0.00    +0.000 N 
ATOM     12  C   UNL     1      -0.326  -0.023   5.026  0.00  0.00    +0.000 A 
ATOM     13  O   UNL     1       0.878  -0.193   4.882  0.00  0.00    +0.000 OA
ATOM     14  C   UNL     1      -1.293  -0.042   3.945  0.00  0.00    +0.000 A 
ATOM     15  H   UNL     1      -0.224   0.194   7.043  0.00  0.00    +0.000 HD
ENDBRANCH   2   5
BRANCH   3  16
ATOM     16  C   UNL     1       2.314  -1.674   1.880  0.00  0.00    +0.000 C 
BRANCH  16  17
ATOM     17  C   UNL     1       3.220  -2.400   2.850  0.00  0.00    +0.000 A 
ATOM     18  C   UNL     1       4.131  -1.687   3.628  0.00  0.00    +0.000 A 
ATOM     19  C   UNL     1       4.953  -2.378   4.521  0.00  0.00    +0.000 A 
ATOM     20  C   UNL     1       4.824  -3.757   4.648  0.00  0.00    +0.000 A 
ATOM     21  C   UNL     1       3.894  -4.387   3.832  0.00  0.00    +0.000 A 
ATOM     22  N   UNL     1       3.086  -3.746   2.951  0.00  0.00    +0.000 NA
BRANCH  20  23
ATOM     23  O   UNL     1       5.535  -4.550   5.503  0.00  0.00    +0.000 OA
BRANCH  23  24
ATOM     24  C   UNL     1       6.054  -3.888   6.667  0.00  0.00    +0.000 C 
BRANCH  24  25
ATOM     25  C   UNL     1       6.188  -4.916   7.803  0.00  0.00    +0.000 C 
BRANCH  25  26
ATOM     26  N   UNL     1       6.709  -4.366   9.070  0.00  0.00    +0.000 NA
ATOM     27  C   UNL     1       6.826  -5.424  10.091  0.00  0.00    +0.000 C 
ATOM     28  C   UNL     1       5.465  -5.468  10.762  0.00  0.00    +0.000 C 
ATOM     29  C   UNL     1       5.070  -4.007  10.821  0.00  0.00    +0.000 C 
ATOM     30  C   UNL     1       5.838  -3.346   9.681  0.00  0.00    +0.000 C 
ENDBRANCH  25  26
ENDBRANCH  24  25
ENDBRANCH  23  24
ENDBRANCH  20  23
ENDBRANCH  16  17
ENDBRANCH   3  16
TORSDOF 7
