REMARK  Name = 
REMARK  5 active torsions:
REMARK  status: ('A' for Active; 'I' for Inactive)
REMARK    1  A    between atoms: N_1  and  C_2
REMARK    2  A    between atoms: C_2  and  C_3
REMARK    3  A    between atoms: C_6  and  O_7
REMARK    4  A    between atoms: O_7  and  C_8
REMARK    5  A    between atoms: C_8  and  C_9
REMARK                            x       y       z     vdW  Elec       q    Type
REMARK                         _______ _______ _______ _____ _____    ______ ____
ROOT
ATOM      1  C   UNL     1       2.779  -0.547   1.226  0.00  0.00    +0.000 A 
ATOM      2  C   UNL     1       3.256   0.252   2.273  0.00  0.00    +0.000 A 
ATOM      3  C   UNL     1       3.649  -0.322   3.484  0.00  0.00    +0.000 A 
ATOM      4  C   UNL     1       3.589  -1.705   3.659  0.00  0.00    +0.000 A 
ATOM      5  C   UNL     1       3.078  -2.506   2.638  0.00  0.00    +0.000 A 
ATOM      6  C   UNL     1       2.683  -1.925   1.434  0.00  0.00    +0.000 A 
ATOM      7  F   UNL     1       2.214  -2.719   0.461  0.00  0.00    +0.000 F 
ENDROOT
BRANCH   1   8
ATOM      8  C   UNL     1       2.353   0.078  -0.073  0.00  0.00    +0.000 C 
BRANCH   8   9
ATOM      9  N   UNL     1       3.437   0.849  -0.678  0.00  0.00    +0.000 NA
ATOM     10  H   UNL     1       3.116   1.223  -1.569  0.00  0.00    +0.000 HD
ATOM     11  H   UNL     1       4.202   0.213  -0.899  0.00  0.00    +0.000 HD
ENDBRANCH   8   9
ENDBRANCH   1   8
BRANCH   4  12
ATOM     12  O   UNL     1       3.997  -2.370   4.786  0.00  0.00    +0.000 OA
BRANCH  12  13
ATOM     13  C   UNL     1       4.940  -1.659   5.594  0.00  0.00    +0.000 C 
BRANCH  13  14
ATOM     14  C   UNL     1       5.684  -2.587   6.514  0.00  0.00    +0.000 A 
ATOM     15  C   UNL     1       5.898  -3.936   6.221  0.00  0.00    +0.000 A 
ATOM     16  C   UNL     1       6.671  -4.713   7.078  0.00  0.00    +0.000 A 
ATOM     17  C   UNL     1       7.217  -4.111   8.199  0.00  0.00    +0.000 A 
ATOM     18  N   UNL     1       7.041  -2.809   8.512  0.00  0.00    +0.000 NA
ATOM     19  C   UNL     1       6.286  -2.080   7.663  0.00  0.00    +0.000 A 
ENDBRANCH  13  14
ENDBRANCH  12  13
ENDBRANCH   4  12
TORSDOF 5
