REMARK  Name = 
REMARK  5 active torsions:
REMARK  status: ('A' for Active; 'I' for Inactive)
REMARK    1  A    between atoms: N_1  and  C_2
REMARK    2  A    between atoms: C_2  and  C_3
REMARK    3  A    between atoms: C_3  and  C_4
REMARK    4  A    between atoms: C_7  and  C_8
REMARK    5  A    between atoms: C_8  and  N_9
REMARK                            x       y       z     vdW  Elec       q    Type
REMARK                         _______ _______ _______ _____ _____    ______ ____
ROOT
ATOM      1  C   UNL     1       4.738   1.419  -0.151  0.00  0.00    +0.000 A 
ATOM      2  C   UNL     1       5.525   0.267  -0.045  0.00  0.00    +0.000 A 
ATOM      3  C   UNL     1       6.921   0.348  -0.102  0.00  0.00    +0.000 A 
ATOM      4  C   UNL     1       7.564   1.582  -0.285  0.00  0.00    +0.000 A 
ATOM      5  C   UNL     1       6.779   2.731  -0.409  0.00  0.00    +0.000 A 
ATOM      6  C   UNL     1       5.385   2.649  -0.343  0.00  0.00    +0.000 A 
ENDROOT
BRANCH   1   7
ATOM      7  C   UNL     1       3.222   1.395  -0.153  0.00  0.00    +0.000 C 
BRANCH   7   8
ATOM      8  C   UNL     1       2.549   0.293   0.677  0.00  0.00    +0.000 C 
BRANCH   8   9
ATOM      9  N   UNL     1       1.092   0.414   0.609  0.00  0.00    +0.000 NA
ATOM     10  H   UNL     1       0.664  -0.338   1.150  0.00  0.00    +0.000 HD
ATOM     11  H   UNL     1       0.778   0.286  -0.355  0.00  0.00    +0.000 HD
ENDBRANCH   8   9
ENDBRANCH   7   8
ENDBRANCH   1   7
BRANCH   4  12
ATOM     12  C   UNL     1       9.066   1.676  -0.292  0.00  0.00    +0.000 C 
BRANCH  12  13
ATOM     13  N   UNL     1       9.692   1.558  -1.604  0.00  0.00    +0.000 N 
ATOM     14  C   UNL     1       9.439   0.577  -2.526  0.00  0.00    +0.000 A 
ATOM     15  N   UNL     1      10.438   0.425  -3.366  0.00  0.00    +0.000 NA
ATOM     16  C   UNL     1      11.364   1.368  -2.998  0.00  0.00    +0.000 A 
ATOM     17  C   UNL     1      12.656   1.594  -3.495  0.00  0.00    +0.000 A 
ATOM     18  C   UNL     1      13.420   2.631  -2.947  0.00  0.00    +0.000 A 
ATOM     19  C   UNL     1      12.893   3.454  -1.951  0.00  0.00    +0.000 A 
ATOM     20  C   UNL     1      11.611   3.237  -1.433  0.00  0.00    +0.000 A 
ATOM     21  C   UNL     1      10.885   2.158  -1.955  0.00  0.00    +0.000 A 
ENDBRANCH  12  13
ENDBRANCH   4  12
TORSDOF 5
