REMARK  Name = 
REMARK  4 active torsions:
REMARK  status: ('A' for Active; 'I' for Inactive)
REMARK    1  A    between atoms: C_2  and  C_4
REMARK    2  A    between atoms: N_8  and  C_9
REMARK    3  A    between atoms: C_9  and  C_10
REMARK    4  A    between atoms: C_14  and  C_15
REMARK                            x       y       z     vdW  Elec       q    Type
REMARK                         _______ _______ _______ _____ _____    ______ ____
ROOT
ATOM      1  C   UNL     1       5.495  -4.832   3.091  0.00  0.00    +0.000 C 
ENDROOT
BRANCH   1   6
ATOM      2  C   UNL     1       6.669  -5.291  -1.903  0.00  0.00    +0.000 A 
ATOM      3  C   UNL     1       5.713  -5.980  -1.164  0.00  0.00    +0.000 A 
ATOM      4  C   UNL     1       5.459  -5.591   0.155  0.00  0.00    +0.000 A 
ATOM      5  C   UNL     1       6.169  -4.534   0.715  0.00  0.00    +0.000 A 
ATOM      6  N   UNL     1       5.927  -4.018   1.966  0.00  0.00    +0.000 N 
ATOM      7  N   UNL     1       7.103  -3.866   0.008  0.00  0.00    +0.000 NA
ATOM      8  C   UNL     1       7.342  -4.258  -1.272  0.00  0.00    +0.000 A 
ATOM      9  H   UNL     1       6.647  -3.331   2.163  0.00  0.00    +0.000 HD
BRANCH   2  11
ATOM     10  N   UNL     1       6.044  -6.226  -4.060  0.00  0.00    +0.000 N 
ATOM     11  C   UNL     1       7.008  -5.618  -3.304  0.00  0.00    +0.000 C 
ATOM     12  O   UNL     1       8.094  -5.326  -3.784  0.00  0.00    +0.000 OA
ATOM     13  H   UNL     1       6.257  -6.349  -5.043  0.00  0.00    +0.000 HD
ATOM     14  H   UNL     1       5.071  -6.250  -3.789  0.00  0.00    +0.000 HD
ENDBRANCH   2  11
ENDBRANCH   1   6
BRANCH   1  15
ATOM     15  C   UNL     1       6.626  -5.514   3.839  0.00  0.00    +0.000 A 
ATOM     16  C   UNL     1       7.609  -4.760   4.473  0.00  0.00    +0.000 A 
ATOM     17  C   UNL     1       8.573  -5.416   5.229  0.00  0.00    +0.000 A 
ATOM     18  C   UNL     1       8.523  -6.801   5.346  0.00  0.00    +0.000 A 
ATOM     19  C   UNL     1       7.505  -7.504   4.704  0.00  0.00    +0.000 A 
ATOM     20  N   UNL     1       6.571  -6.869   3.947  0.00  0.00    +0.000 NA
BRANCH  19  21
ATOM     21  C   UNL     1       7.339  -8.968   4.828  0.00  0.00    +0.000 A 
ATOM     22  C   UNL     1       6.788  -9.725   3.774  0.00  0.00    +0.000 A 
ATOM     23  C   UNL     1       6.603 -11.109   3.880  0.00  0.00    +0.000 A 
ATOM     24  C   UNL     1       6.963 -11.768   5.051  0.00  0.00    +0.000 A 
ATOM     25  C   UNL     1       7.505 -11.038   6.099  0.00  0.00    +0.000 A 
ATOM     26  F   UNL     1       7.845 -11.666   7.233  0.00  0.00    +0.000 F 
ATOM     27  C   UNL     1       7.693  -9.661   5.999  0.00  0.00    +0.000 A 
ENDBRANCH  19  21
ENDBRANCH   1  15
TORSDOF 4
