REMARK  Name = 
REMARK  7 active torsions:
REMARK  status: ('A' for Active; 'I' for Inactive)
REMARK    1  A    between atoms: C_1  and  C_2
REMARK    2  A    between atoms: C_2  and  C_3
REMARK    3  A    between atoms: C_7  and  C_8
REMARK    4  A    between atoms: C_8  and  C_9
REMARK    5  A    between atoms: C_9  and  N_10
REMARK    6  A    between atoms: N_10  and  C_11
REMARK    7  A    between atoms: C_14  and  C_15
REMARK                            x       y       z     vdW  Elec       q    Type
REMARK                         _______ _______ _______ _____ _____    ______ ____
ROOT
ATOM      1  C   UNL     1       3.318   3.671  -4.228  0.00  0.00    +0.000 C 
ENDROOT
BRANCH   1   2
ATOM      2  N   UNL     1       3.860   4.941  -4.731  0.00  0.00    +0.000 N 
ATOM      3  H   UNL     1       4.522   4.819  -5.492  0.00  0.00    +0.000 HD
BRANCH   2   4
ATOM      4  C   UNL     1       2.883   5.909  -5.041  0.00  0.00    +0.000 A 
ATOM      5  C   UNL     1       1.676   6.001  -4.338  0.00  0.00    +0.000 A 
ATOM      6  C   UNL     1       0.737   6.993  -4.622  0.00  0.00    +0.000 A 
ATOM      7  C   UNL     1       1.003   7.956  -5.599  0.00  0.00    +0.000 A 
ATOM      8  C   UNL     1       2.217   7.899  -6.293  0.00  0.00    +0.000 A 
ATOM      9  C   UNL     1       3.149   6.889  -6.007  0.00  0.00    +0.000 A 
BRANCH   7  10
ATOM     10  C   UNL     1      -0.029   8.995  -5.849  0.00  0.00    +0.000 C 
ATOM     11  N   UNL     1       0.372  10.225  -6.281  0.00  0.00    +0.000 N 
ATOM     12  O   UNL     1      -1.224   8.768  -5.653  0.00  0.00    +0.000 OA
ATOM     13  H   UNL     1       1.327  10.496  -6.451  0.00  0.00    +0.000 HD
ATOM     14  H   UNL     1      -0.358  10.913  -6.421  0.00  0.00    +0.000 HD
ENDBRANCH   7  10
ENDBRANCH   2   4
ENDBRANCH   1   2
BRANCH   1  15
ATOM     15  C   UNL     1       4.425   2.659  -3.926  0.00  0.00    +0.000 C 
BRANCH  15  20
ATOM     16  C   UNL     1       3.026   0.081  -1.479  0.00  0.00    +0.000 A 
ATOM     17  C   UNL     1       2.691  -0.956  -2.366  0.00  0.00    +0.000 A 
ATOM     18  C   UNL     1       2.967  -0.877  -3.726  0.00  0.00    +0.000 A 
ATOM     19  C   UNL     1       3.567   0.279  -4.246  0.00  0.00    +0.000 A 
ATOM     20  C   UNL     1       3.895   1.339  -3.398  0.00  0.00    +0.000 A 
ATOM     21  C   UNL     1       3.665   1.215  -2.018  0.00  0.00    +0.000 A 
BRANCH  16  23
ATOM     22  C   UNL     1       1.048  -0.081   0.014  0.00  0.00    +0.000 C 
ATOM     23  C   UNL     1       2.586  -0.008  -0.011  0.00  0.00    +0.000 C 
ATOM     24  C   UNL     1       3.237  -1.206   0.690  0.00  0.00    +0.000 C 
ATOM     25  C   UNL     1       4.451  -0.629   1.404  0.00  0.00    +0.000 C 
ATOM     26  O   UNL     1       4.378   0.798   1.321  0.00  0.00    +0.000 OA
ATOM     27  C   UNL     1       3.046   1.128   0.915  0.00  0.00    +0.000 C 
ENDBRANCH  16  23
ENDBRANCH  15  20
ENDBRANCH   1  15
TORSDOF 6
