REMARK  Name = 
REMARK  5 active torsions:
REMARK  status: ('A' for Active; 'I' for Inactive)
REMARK    1  A    between atoms: C_1  and  C_2
REMARK    2  A    between atoms: C_2  and  N_3
REMARK    3  A    between atoms: C_2  and  C_13
REMARK    4  A    between atoms: N_3  and  C_4
REMARK    5  A    between atoms: C_7  and  C_8
REMARK                            x       y       z     vdW  Elec       q    Type
REMARK                         _______ _______ _______ _____ _____    ______ ____
ROOT
ATOM      1  C   UNL     1       2.558   0.178   2.504  0.00  0.00    +0.000 A 
ATOM      2  C   UNL     1       2.433  -0.510   3.716  0.00  0.00    +0.000 A 
ATOM      3  C   UNL     1       2.229   0.177   4.911  0.00  0.00    +0.000 A 
ATOM      4  C   UNL     1       2.191   1.564   4.868  0.00  0.00    +0.000 A 
ATOM      5  N   UNL     1       2.334   2.288   3.722  0.00  0.00    +0.000 NA
ATOM      6  C   UNL     1       2.514   1.571   2.580  0.00  0.00    +0.000 A 
ENDROOT
BRANCH   4   7
ATOM      7  C   UNL     1       2.014   2.331   6.143  0.00  0.00    +0.000 C 
ATOM      8  N   UNL     1       2.025   3.695   6.018  0.00  0.00    +0.000 N 
ATOM      9  O   UNL     1       1.882   1.789   7.232  0.00  0.00    +0.000 OA
ATOM     10  H   UNL     1       2.155   4.112   5.104  0.00  0.00    +0.000 HD
ATOM     11  H   UNL     1       1.941   4.270   6.841  0.00  0.00    +0.000 HD
ENDBRANCH   4   7
BRANCH   1  12
ATOM     12  N   UNL     1       2.830  -0.577   1.361  0.00  0.00    +0.000 N 
ATOM     13  H   UNL     1       3.784  -0.929   1.435  0.00  0.00    +0.000 HD
BRANCH  12  15
ATOM     14  C   UNL     1       1.016   0.099  -0.160  0.00  0.00    +0.000 C 
ATOM     15  C   UNL     1       2.532  -0.086   0.005  0.00  0.00    +0.000 C 
BRANCH  15  16
ATOM     16  C   UNL     1       3.057  -1.098  -1.063  0.00  0.00    +0.000 C 
ATOM     17  C   UNL     1       2.432  -2.501  -0.918  0.00  0.00    +0.000 C 
ATOM     18  C   UNL     1       2.942  -3.470  -1.980  0.00  0.00    +0.000 C 
ATOM     19  C   UNL     1       4.462  -3.552  -1.975  0.00  0.00    +0.000 C 
ATOM     20  C   UNL     1       5.089  -2.174  -2.158  0.00  0.00    +0.000 C 
ATOM     21  C   UNL     1       4.597  -1.185  -1.099  0.00  0.00    +0.000 C 
ENDBRANCH  15  16
ENDBRANCH  12  15
ENDBRANCH   1  12
TORSDOF 4
