REMARK  Name = 
REMARK  5 active torsions:
REMARK  status: ('A' for Active; 'I' for Inactive)
REMARK    1  A    between atoms: C_2  and  C_4
REMARK    2  A    between atoms: C_7  and  O_8
REMARK    3  A    between atoms: O_8  and  C_9
REMARK    4  A    between atoms: C_9  and  C_10
REMARK    5  A    between atoms: C_13  and  C_14
REMARK                            x       y       z     vdW  Elec       q    Type
REMARK                         _______ _______ _______ _____ _____    ______ ____
ROOT
ATOM      1  C   UNL     1       4.624   5.250  -3.188  0.00  0.00    +0.000 C 
ENDROOT
BRANCH   1   2
ATOM      2  C   UNL     1       5.392   6.085  -4.174  0.00  0.00    +0.000 A 
ATOM      3  C   UNL     1       5.068   6.094  -5.521  0.00  0.00    +0.000 A 
ATOM      4  C   UNL     1       5.748   6.965  -6.369  0.00  0.00    +0.000 A 
ATOM      5  C   UNL     1       6.742   7.789  -5.851  0.00  0.00    +0.000 A 
ATOM      6  N   UNL     1       7.046   7.729  -4.534  0.00  0.00    +0.000 NA
ATOM      7  N   UNL     1       6.372   6.877  -3.691  0.00  0.00    +0.000 NA
BRANCH   5   8
ATOM      8  C   UNL     1       7.473   8.793  -6.650  0.00  0.00    +0.000 A 
ATOM      9  C   UNL     1       7.995   9.952  -6.042  0.00  0.00    +0.000 A 
ATOM     10  C   UNL     1       8.652  10.936  -6.785  0.00  0.00    +0.000 A 
ATOM     11  C   UNL     1       8.809  10.782  -8.158  0.00  0.00    +0.000 A 
ATOM     12  C   UNL     1       8.320   9.639  -8.784  0.00  0.00    +0.000 A 
ATOM     13  C   UNL     1       7.665   8.655  -8.037  0.00  0.00    +0.000 A 
ENDBRANCH   5   8
ENDBRANCH   1   2
BRANCH   1  14
ATOM     14  O   UNL     1       5.146   3.921  -3.142  0.00  0.00    +0.000 OA
BRANCH  14  18
ATOM     15  C   UNL     1       3.466   1.145  -0.515  0.00  0.00    +0.000 A 
ATOM     16  C   UNL     1       2.904   2.423  -0.585  0.00  0.00    +0.000 A 
ATOM     17  C   UNL     1       3.443   3.382  -1.448  0.00  0.00    +0.000 A 
ATOM     18  C   UNL     1       4.549   3.074  -2.245  0.00  0.00    +0.000 A 
ATOM     19  C   UNL     1       5.123   1.803  -2.155  0.00  0.00    +0.000 A 
ATOM     20  C   UNL     1       4.590   0.842  -1.289  0.00  0.00    +0.000 A 
BRANCH  15  22
ATOM     21  N   UNL     1       1.567   0.179   0.659  0.00  0.00    +0.000 N 
ATOM     22  C   UNL     1       2.904   0.100   0.379  0.00  0.00    +0.000 C 
ATOM     23  O   UNL     1       3.589  -0.814   0.815  0.00  0.00    +0.000 OA
ATOM     24  H   UNL     1       1.175  -0.594   1.180  0.00  0.00    +0.000 HD
ATOM     25  H   UNL     1       0.933   0.753   0.122  0.00  0.00    +0.000 HD
ENDBRANCH  15  22
ENDBRANCH  14  18
ENDBRANCH   1  14
TORSDOF 5
