REMARK  Name = 
REMARK  7 active torsions:
REMARK  status: ('A' for Active; 'I' for Inactive)
REMARK    1  A    between atoms: C_1  and  N_2
REMARK    2  A    between atoms: N_2  and  C_3
REMARK    3  A    between atoms: C_3  and  C_4
REMARK    4  A    between atoms: C_7  and  C_8
REMARK    5  A    between atoms: C_8  and  N_9
REMARK    6  A    between atoms: C_10  and  C_12
REMARK    7  A    between atoms: C_24  and  C_26
REMARK                            x       y       z     vdW  Elec       q    Type
REMARK                         _______ _______ _______ _____ _____    ______ ____
ROOT
ATOM      1  C   UNL     1       2.286   2.300  -0.864  0.00  0.00    +0.000 A 
ATOM      2  C   UNL     1       1.015   2.012  -1.385  0.00  0.00    +0.000 A 
ATOM      3  C   UNL     1       0.082   3.032  -1.600  0.00  0.00    +0.000 A 
ATOM      4  C   UNL     1       0.413   4.369  -1.346  0.00  0.00    +0.000 A 
ATOM      5  C   UNL     1       1.702   4.661  -0.876  0.00  0.00    +0.000 A 
ATOM      6  C   UNL     1       2.630   3.639  -0.639  0.00  0.00    +0.000 A 
ENDROOT
BRANCH   1   7
ATOM      7  C   UNL     1       3.196   1.177  -0.427  0.00  0.00    +0.000 C 
BRANCH   7   9
ATOM      8  C   UNL     1       4.330   1.201  -2.683  0.00  0.00    +0.000 C 
ATOM      9  N   UNL     1       4.212   0.657  -1.340  0.00  0.00    +0.000 N 
ATOM     10  C   UNL     1       5.275  -0.149  -0.897  0.00  0.00    +0.000 C 
ATOM     11  O   UNL     1       6.268  -0.326  -1.604  0.00  0.00    +0.000 OA
BRANCH  10  12
ATOM     12  C   UNL     1       5.235  -0.753   0.419  0.00  0.00    +0.000 A 
ATOM     13  C   UNL     1       4.232  -1.170   1.272  0.00  0.00    +0.000 A 
ATOM     14  N   UNL     1       4.736  -1.683   2.439  0.00  0.00    +0.000 NA
ATOM     15  C   UNL     1       6.038  -1.646   2.293  0.00  0.00    +0.000 A 
ATOM     16  N   UNL     1       6.387  -1.129   1.081  0.00  0.00    +0.000 N 
ATOM     17  H   UNL     1       7.324  -1.023   0.715  0.00  0.00    +0.000 HD
ENDBRANCH  10  12
ENDBRANCH   7   9
ENDBRANCH   1   7
BRANCH   4  18
ATOM     18  C   UNL     1      -0.600   5.469  -1.555  0.00  0.00    +0.000 C 
BRANCH  18  19
ATOM     19  N   UNL     1      -1.390   5.727  -0.376  0.00  0.00    +0.000 N 
ATOM     20  C   UNL     1      -2.415   6.643  -0.382  0.00  0.00    +0.000 C 
ATOM     21  O   UNL     1      -2.677   7.319  -1.377  0.00  0.00    +0.000 OA
ATOM     22  H   UNL     1      -1.188   5.186   0.460  0.00  0.00    +0.000 HD
BRANCH  20  23
ATOM     23  C   UNL     1      -3.187   6.774   0.859  0.00  0.00    +0.000 A 
ATOM     24  C   UNL     1      -4.218   7.698   1.029  0.00  0.00    +0.000 A 
ATOM     25  N   UNL     1      -4.741   7.574   2.292  0.00  0.00    +0.000 N 
ATOM     26  C   UNL     1      -4.061   6.599   2.956  0.00  0.00    +0.000 A 
ATOM     27  N   UNL     1      -4.320   6.253   4.239  0.00  0.00    +0.000 NA
ATOM     28  C   UNL     1      -3.541   5.311   4.674  0.00  0.00    +0.000 A 
ATOM     29  N   UNL     1      -2.554   4.695   3.935  0.00  0.00    +0.000 N 
ATOM     30  C   UNL     1      -2.287   5.010   2.619  0.00  0.00    +0.000 A 
ATOM     31  O   UNL     1      -1.423   4.429   1.969  0.00  0.00    +0.000 OA
ATOM     32  C   UNL     1      -3.111   6.076   2.103  0.00  0.00    +0.000 A 
ATOM     33  H   UNL     1      -5.499   8.114   2.685  0.00  0.00    +0.000 HD
ATOM     34  H   UNL     1      -1.985   3.965   4.337  0.00  0.00    +0.000 HD
ENDBRANCH  20  23
ENDBRANCH  18  19
ENDBRANCH   4  18
TORSDOF 6
