REMARK  Name = 
REMARK  9 active torsions:
REMARK  status: ('A' for Active; 'I' for Inactive)
REMARK    1  A    between atoms: C_1  and  O_2
REMARK    2  A    between atoms: O_2  and  C_3
REMARK    3  A    between atoms: C_10  and  C_11
REMARK    4  A    between atoms: N_13  and  C_14
REMARK    5  A    between atoms: C_14  and  C_15
REMARK    6  A    between atoms: C_18  and  C_19
REMARK    7  A    between atoms: C_19  and  C_20
REMARK    8  A    between atoms: C_20  and  O_21
REMARK    9  A    between atoms: C_20  and  C_22
REMARK                            x       y       z     vdW  Elec       q    Type
REMARK                         _______ _______ _______ _____ _____    ______ ____
ROOT
ATOM      1  C   UNL     1       3.114  -0.835   3.328  0.00  0.00    +0.000 C 
ENDROOT
BRANCH   1   2
ATOM      2  C   UNL     1       1.965   0.127   3.463  0.00  0.00    +0.000 A 
ATOM      3  C   UNL     1       0.669  -0.352   3.672  0.00  0.00    +0.000 A 
ATOM      4  C   UNL     1      -0.407   0.531   3.787  0.00  0.00    +0.000 A 
ATOM      5  C   UNL     1      -0.222   1.917   3.692  0.00  0.00    +0.000 A 
ATOM      6  C   UNL     1       1.076   2.391   3.445  0.00  0.00    +0.000 A 
ATOM      7  C   UNL     1       2.155   1.508   3.326  0.00  0.00    +0.000 A 
BRANCH   5   8
ATOM      8  C   UNL     1      -1.349   2.924   3.877  0.00  0.00    +0.000 C 
BRANCH   8   9
ATOM      9  C   UNL     1      -2.749   2.339   4.165  0.00  0.00    +0.000 C 
BRANCH   9  10
ATOM     10  C   UNL     1      -3.852   3.377   4.259  0.00  0.00    +0.000 A 
ATOM     11  C   UNL     1      -5.154   3.013   3.910  0.00  0.00    +0.000 A 
ATOM     12  C   UNL     1      -6.186   3.930   4.080  0.00  0.00    +0.000 A 
ATOM     13  C   UNL     1      -5.897   5.183   4.605  0.00  0.00    +0.000 A 
ATOM     14  C   UNL     1      -4.584   5.462   4.944  0.00  0.00    +0.000 A 
ATOM     15  N   UNL     1      -3.560   4.591   4.792  0.00  0.00    +0.000 NA
ENDBRANCH   9  10
BRANCH   9  16
ATOM     16  O   UNL     1      -2.746   1.616   5.404  0.00  0.00    +0.000 OA
ATOM     17  H   UNL     1      -2.452   2.252   6.082  0.00  0.00    +0.000 HD
ENDBRANCH   9  16
ENDBRANCH   8   9
ENDBRANCH   5   8
ENDBRANCH   1   2
BRANCH   1  20
ATOM     18  C   UNL     1       4.221  -2.131   1.552  0.00  0.00    +0.000 C 
ATOM     19  O   UNL     1       4.969  -2.676   2.363  0.00  0.00    +0.000 OA
ATOM     20  N   UNL     1       3.291  -1.216   1.951  0.00  0.00    +0.000 N 
ATOM     21  H   UNL     1       2.708  -0.753   1.266  0.00  0.00    +0.000 HD
BRANCH  18  29
ATOM     22  C   UNL     1       2.386  -1.111  -1.177  0.00  0.00    +0.000 A 
ATOM     23  N   UNL     1       1.848  -0.881  -2.390  0.00  0.00    +0.000 NA
ATOM     24  C   UNL     1       2.387  -1.506  -3.442  0.00  0.00    +0.000 A 
ATOM     25  N   UNL     1       3.414  -2.352  -3.432  0.00  0.00    +0.000 NA
ATOM     26  C   UNL     1       3.923  -2.548  -2.205  0.00  0.00    +0.000 A 
ATOM     27  S   UNL     1       5.240  -3.601  -2.002  0.00  0.00    +0.000 S 
ATOM     28  C   UNL     1       5.266  -3.324  -0.326  0.00  0.00    +0.000 A 
ATOM     29  C   UNL     1       4.293  -2.436   0.114  0.00  0.00    +0.000 A 
ATOM     30  C   UNL     1       3.486  -1.973  -1.015  0.00  0.00    +0.000 A 
BRANCH  22  32
ATOM     31  C   UNL     1       0.497  -0.044  -0.296  0.00  0.00    +0.000 C 
ATOM     32  O   UNL     1       1.853  -0.438  -0.098  0.00  0.00    +0.000 OA
ENDBRANCH  22  32
ENDBRANCH  18  29
ENDBRANCH   1  20
TORSDOF 8
