REMARK  Name = 
REMARK  6 active torsions:
REMARK  status: ('A' for Active; 'I' for Inactive)
REMARK    1  A    between atoms: C_2  and  C_20
REMARK    2  A    between atoms: N_3  and  C_4
REMARK    3  A    between atoms: C_4  and  C_5
REMARK    4  A    between atoms: C_8  and  C_9
REMARK    5  A    between atoms: C_9  and  O_10
REMARK    6  A    between atoms: C_9  and  C_11
REMARK                            x       y       z     vdW  Elec       q    Type
REMARK                         _______ _______ _______ _____ _____    ______ ____
ROOT
ATOM      1  C   UNL     1       8.214  -8.936   0.644  0.00  0.00    +0.000 C 
ENDROOT
BRANCH   1   2
ATOM      2  C   UNL     1       7.547  -8.008   1.625  0.00  0.00    +0.000 A 
ATOM      3  C   UNL     1       6.647  -8.511   2.570  0.00  0.00    +0.000 A 
ATOM      4  C   UNL     1       6.073  -7.668   3.524  0.00  0.00    +0.000 A 
ATOM      5  C   UNL     1       6.386  -6.300   3.557  0.00  0.00    +0.000 A 
ATOM      6  C   UNL     1       7.232  -5.786   2.563  0.00  0.00    +0.000 A 
ATOM      7  C   UNL     1       7.806  -6.631   1.608  0.00  0.00    +0.000 A 
BRANCH   5   8
ATOM      8  C   UNL     1       5.740  -5.425   4.610  0.00  0.00    +0.000 C 
BRANCH   8   9
ATOM      9  C   UNL     1       6.605  -4.218   5.057  0.00  0.00    +0.000 C 
ATOM     10  O   UNL     1       6.473  -3.128   4.490  0.00  0.00    +0.000 OA
ATOM     11  N   UNL     1       7.483  -4.381   6.109  0.00  0.00    +0.000 N 
ATOM     12  C   UNL     1       7.777  -5.587   6.861  0.00  0.00    +0.000 C 
ATOM     13  C   UNL     1       8.099  -5.051   8.245  0.00  0.00    +0.000 C 
ATOM     14  C   UNL     1       8.843  -3.752   7.951  0.00  0.00    +0.000 C 
ATOM     15  C   UNL     1       8.240  -3.256   6.637  0.00  0.00    +0.000 C 
ENDBRANCH   8   9
BRANCH   8  16
ATOM     16  O   UNL     1       4.486  -4.988   4.083  0.00  0.00    +0.000 OA
ATOM     17  H   UNL     1       4.694  -4.195   3.554  0.00  0.00    +0.000 HD
ENDBRANCH   8  16
ENDBRANCH   5   8
ENDBRANCH   1   2
BRANCH   1  20
ATOM     18  O   UNL     1       6.510 -11.119   0.169  0.00  0.00    +0.000 OA
ATOM     19  C   UNL     1       6.574 -10.222  -0.668  0.00  0.00    +0.000 C 
ATOM     20  N   UNL     1       7.409  -9.146  -0.530  0.00  0.00    +0.000 N 
ATOM     21  H   UNL     1       7.326  -8.360  -1.166  0.00  0.00    +0.000 HD
BRANCH  19  22
ATOM     22  C   UNL     1       5.783 -10.278  -1.903  0.00  0.00    +0.000 A 
ATOM     23  C   UNL     1       5.300 -11.499  -2.356  0.00  0.00    +0.000 A 
ATOM     24  S   UNL     1       4.375 -11.381  -3.783  0.00  0.00    +0.000 S 
ATOM     25  C   UNL     1       4.558  -9.690  -3.826  0.00  0.00    +0.000 A 
ATOM     26  N   UNL     1       3.954  -8.948  -4.791  0.00  0.00    +0.000 NA
ATOM     27  C   UNL     1       4.142  -7.677  -4.682  0.00  0.00    +0.000 A 
ATOM     28  N   UNL     1       4.898  -7.081  -3.702  0.00  0.00    +0.000 N 
ATOM     29  C   UNL     1       5.605  -7.798  -2.771  0.00  0.00    +0.000 A 
ATOM     30  O   UNL     1       6.409  -7.249  -2.023  0.00  0.00    +0.000 OA
ATOM     31  C   UNL     1       5.359  -9.227  -2.798  0.00  0.00    +0.000 A 
ATOM     32  H   UNL     1       5.047  -6.082  -3.705  0.00  0.00    +0.000 HD
ENDBRANCH  19  22
ENDBRANCH   1  20
TORSDOF 6
