REMARK  Name = 
REMARK  7 active torsions:
REMARK  status: ('A' for Active; 'I' for Inactive)
REMARK    1  A    between atoms: C_2  and  C_19
REMARK    2  A    between atoms: N_3  and  C_4
REMARK    3  A    between atoms: C_4  and  C_5
REMARK    4  A    between atoms: C_8  and  C_9
REMARK    5  A    between atoms: C_9  and  N_10
REMARK    6  A    between atoms: N_10  and  C_11
REMARK    7  A    between atoms: C_11  and  C_12
REMARK                            x       y       z     vdW  Elec       q    Type
REMARK                         _______ _______ _______ _____ _____    ______ ____
ROOT
ATOM      1  C   UNL     1       2.182   0.877   2.257  0.00  0.00    +0.000 C 
ENDROOT
BRANCH   1   2
ATOM      2  C   UNL     1       3.124   1.369   3.315  0.00  0.00    +0.000 A 
ATOM      3  C   UNL     1       3.262   2.732   3.582  0.00  0.00    +0.000 A 
ATOM      4  C   UNL     1       4.115   3.156   4.600  0.00  0.00    +0.000 A 
ATOM      5  C   UNL     1       4.824   2.200   5.321  0.00  0.00    +0.000 A 
ATOM      6  N   UNL     1       4.740   0.871   5.055  0.00  0.00    +0.000 NA
ATOM      7  C   UNL     1       3.903   0.491   4.059  0.00  0.00    +0.000 A 
BRANCH   5   8
ATOM      8  C   UNL     1       5.753   2.624   6.442  0.00  0.00    +0.000 C 
BRANCH   8   9
ATOM      9  N   UNL     1       7.135   2.138   6.289  0.00  0.00    +0.000 NA
ATOM     10  H   UNL     1       7.053   1.136   6.089  0.00  0.00    +0.000 HD
BRANCH   9  11
ATOM     11  C   UNL     1       7.785   2.754   5.122  0.00  0.00    +0.000 C 
BRANCH  11  12
ATOM     12  C   UNL     1       9.210   2.314   5.015  0.00  0.00    +0.000 A 
ATOM     13  N   UNL     1       9.914   2.136   3.914  0.00  0.00    +0.000 NA
ATOM     14  C   UNL     1      11.155   1.729   4.330  0.00  0.00    +0.000 A 
ATOM     15  C   UNL     1      11.212   1.661   5.701  0.00  0.00    +0.000 A 
ATOM     16  N   UNL     1       9.972   2.040   6.125  0.00  0.00    +0.000 N 
ATOM     17  H   UNL     1       9.627   2.092   7.076  0.00  0.00    +0.000 HD
ENDBRANCH  11  12
ENDBRANCH   9  11
ENDBRANCH   8   9
ENDBRANCH   5   8
ENDBRANCH   1   2
BRANCH   1  20
ATOM     18  O   UNL     1       2.011   2.857   0.271  0.00  0.00    +0.000 OA
ATOM     19  C   UNL     1       2.702   1.864   0.058  0.00  0.00    +0.000 C 
ATOM     20  N   UNL     1       2.807   0.837   0.960  0.00  0.00    +0.000 N 
ATOM     21  H   UNL     1       3.509   0.120   0.815  0.00  0.00    +0.000 HD
BRANCH  19  22
ATOM     22  C   UNL     1       3.423   1.692  -1.209  0.00  0.00    +0.000 A 
ATOM     23  C   UNL     1       3.009   2.389  -2.336  0.00  0.00    +0.000 A 
ATOM     24  S   UNL     1       3.956   2.077  -3.720  0.00  0.00    +0.000 S 
ATOM     25  C   UNL     1       4.980   1.032  -2.851  0.00  0.00    +0.000 A 
ATOM     26  N   UNL     1       6.050   0.444  -3.449  0.00  0.00    +0.000 NA
ATOM     27  C   UNL     1       6.770  -0.282  -2.660  0.00  0.00    +0.000 A 
ATOM     28  N   UNL     1       6.504  -0.492  -1.332  0.00  0.00    +0.000 N 
ATOM     29  C   UNL     1       5.384   0.006  -0.710  0.00  0.00    +0.000 A 
ATOM     30  O   UNL     1       5.086  -0.328   0.433  0.00  0.00    +0.000 OA
ATOM     31  C   UNL     1       4.581   0.891  -1.533  0.00  0.00    +0.000 A 
ATOM     32  H   UNL     1       7.088  -1.101  -0.778  0.00  0.00    +0.000 HD
ENDBRANCH  19  22
ENDBRANCH   1  20
TORSDOF 7
