REMARK  Name = 
REMARK  9 active torsions:
REMARK  status: ('A' for Active; 'I' for Inactive)
REMARK    1  A    between atoms: C_1  and  O_2
REMARK    2  A    between atoms: O_2  and  C_3
REMARK    3  A    between atoms: C_10  and  C_11
REMARK    4  A    between atoms: N_13  and  C_14
REMARK    5  A    between atoms: C_14  and  C_15
REMARK    6  A    between atoms: C_18  and  C_19
REMARK    7  A    between atoms: C_19  and  O_20
REMARK    8  A    between atoms: O_20  and  C_21
REMARK    9  A    between atoms: C_21  and  C_22
REMARK                            x       y       z     vdW  Elec       q    Type
REMARK                         _______ _______ _______ _____ _____    ______ ____
ROOT
ATOM      1  C   UNL     1       3.003  -0.417  -3.328  0.00  0.00    +0.000 C 
ENDROOT
BRANCH   1   2
ATOM      2  C   UNL     1       1.788  -1.248  -3.005  0.00  0.00    +0.000 A 
ATOM      3  C   UNL     1       1.859  -2.648  -2.995  0.00  0.00    +0.000 A 
ATOM      4  C   UNL     1       0.735  -3.414  -2.670  0.00  0.00    +0.000 A 
ATOM      5  C   UNL     1      -0.486  -2.798  -2.360  0.00  0.00    +0.000 A 
ATOM      6  C   UNL     1      -0.564  -1.400  -2.407  0.00  0.00    +0.000 A 
ATOM      7  C   UNL     1       0.560  -0.634  -2.731  0.00  0.00    +0.000 A 
BRANCH   5   8
ATOM      8  C   UNL     1      -1.689  -3.627  -1.983  0.00  0.00    +0.000 C 
BRANCH   8   9
ATOM      9  O   UNL     1      -1.388  -4.373  -0.806  0.00  0.00    +0.000 OA
BRANCH   9  10
ATOM     10  C   UNL     1      -2.504  -5.153  -0.374  0.00  0.00    +0.000 C 
BRANCH  10  11
ATOM     11  C   UNL     1      -2.154  -5.923   0.873  0.00  0.00    +0.000 A 
ATOM     12  C   UNL     1      -1.238  -5.436   1.815  0.00  0.00    +0.000 A 
ATOM     13  C   UNL     1      -0.966  -6.154   2.982  0.00  0.00    +0.000 A 
ATOM     14  C   UNL     1      -1.615  -7.364   3.230  0.00  0.00    +0.000 A 
ATOM     15  C   UNL     1      -2.540  -7.851   2.310  0.00  0.00    +0.000 A 
ATOM     16  C   UNL     1      -2.807  -7.129   1.148  0.00  0.00    +0.000 A 
ATOM     17  F   UNL     1      -3.713  -7.610   0.286  0.00  0.00    +0.000 F 
ENDBRANCH  10  11
ENDBRANCH   9  10
ENDBRANCH   8   9
ENDBRANCH   5   8
ENDBRANCH   1   2
BRANCH   1  20
ATOM     18  C   UNL     1       4.162   0.514  -5.281  0.00  0.00    +0.000 C 
ATOM     19  O   UNL     1       5.032   1.004  -4.565  0.00  0.00    +0.000 OA
ATOM     20  N   UNL     1       3.120  -0.191  -4.747  0.00  0.00    +0.000 N 
ATOM     21  H   UNL     1       2.384  -0.548  -5.342  0.00  0.00    +0.000 HD
BRANCH  18  29
ATOM     22  C   UNL     1       2.139  -0.598  -7.844  0.00  0.00    +0.000 A 
ATOM     23  N   UNL     1       1.591  -0.966  -9.020  0.00  0.00    +0.000 NA
ATOM     24  C   UNL     1       2.206  -0.596 -10.146  0.00  0.00    +0.000 A 
ATOM     25  N   UNL     1       3.319   0.122 -10.251  0.00  0.00    +0.000 NA
ATOM     26  C   UNL     1       3.840   0.460  -9.059  0.00  0.00    +0.000 A 
ATOM     27  S   UNL     1       5.258   1.391  -9.003  0.00  0.00    +0.000 S 
ATOM     28  C   UNL     1       5.269   1.361  -7.305  0.00  0.00    +0.000 A 
ATOM     29  C   UNL     1       4.214   0.647  -6.747  0.00  0.00    +0.000 A 
ATOM     30  C   UNL     1       3.340   0.135  -7.801  0.00  0.00    +0.000 A 
BRANCH  22  32
ATOM     31  C   UNL     1       0.242  -1.612  -6.894  0.00  0.00    +0.000 C 
ATOM     32  O   UNL     1       1.481  -0.938  -6.679  0.00  0.00    +0.000 OA
ENDBRANCH  22  32
ENDBRANCH  18  29
ENDBRANCH   1  20
TORSDOF 8
