REMARK  Name = 
REMARK  4 active torsions:
REMARK  status: ('A' for Active; 'I' for Inactive)
REMARK    1  A    between atoms: C_1  and  C_2
REMARK    2  A    between atoms: N_6  and  C_7
REMARK    3  A    between atoms: C_7  and  C_8
REMARK    4  A    between atoms: C_12  and  C_13
REMARK                            x       y       z     vdW  Elec       q    Type
REMARK                         _______ _______ _______ _____ _____    ______ ____
ROOT
ATOM      1  C   UNL     1      -5.359   1.086  -0.042  0.00  0.00    +0.000 A 
ATOM      2  C   UNL     1      -5.897  -0.201  -0.147  0.00  0.00    +0.000 A 
ATOM      3  C   UNL     1      -7.273  -0.393  -0.058  0.00  0.00    +0.000 A 
ATOM      4  C   UNL     1      -8.125   0.700   0.132  0.00  0.00    +0.000 A 
ATOM      5  C   UNL     1      -7.626   2.010   0.232  0.00  0.00    +0.000 A 
ATOM      6  C   UNL     1      -6.232   2.178   0.121  0.00  0.00    +0.000 A 
ENDROOT
BRANCH   5   7
ATOM      7  C   UNL     1      -8.516   3.164   0.489  0.00  0.00    +0.000 A 
ATOM      8  C   UNL     1      -8.275   4.436  -0.051  0.00  0.00    +0.000 A 
ATOM      9  C   UNL     1      -9.113   5.510   0.251  0.00  0.00    +0.000 A 
ATOM     10  C   UNL     1     -10.193   5.287   1.084  0.00  0.00    +0.000 A 
ATOM     11  N   UNL     1     -10.479   4.087   1.625  0.00  0.00    +0.000 NA
ATOM     12  C   UNL     1      -9.637   3.067   1.319  0.00  0.00    +0.000 A 
ENDBRANCH   5   7
BRANCH   1  13
ATOM     13  C   UNL     1      -3.866   1.303  -0.047  0.00  0.00    +0.000 C 
BRANCH  13  19
ATOM     14  C   UNL     1       1.944   2.663  -2.897  0.00  0.00    +0.000 C 
ATOM     15  C   UNL     1       0.559   2.347  -2.433  0.00  0.00    +0.000 A 
ATOM     16  C   UNL     1       0.249   2.210  -1.085  0.00  0.00    +0.000 A 
ATOM     17  C   UNL     1      -1.063   1.924  -0.706  0.00  0.00    +0.000 A 
ATOM     18  C   UNL     1      -2.053   1.779  -1.674  0.00  0.00    +0.000 A 
ATOM     19  N   UNL     1      -3.366   1.524  -1.377  0.00  0.00    +0.000 N 
ATOM     20  N   UNL     1      -1.764   1.901  -2.983  0.00  0.00    +0.000 NA
ATOM     21  C   UNL     1      -0.484   2.180  -3.334  0.00  0.00    +0.000 A 
ATOM     22  H   UNL     1      -3.964   1.392  -2.183  0.00  0.00    +0.000 HD
ENDBRANCH  13  19
ENDBRANCH   1  13
TORSDOF 3
