REMARK  Name = 
REMARK  5 active torsions:
REMARK  status: ('A' for Active; 'I' for Inactive)
REMARK    1  A    between atoms: N_1  and  C_2
REMARK    2  A    between atoms: C_2  and  C_3
REMARK    3  A    between atoms: C_3  and  C_4
REMARK    4  A    between atoms: C_7  and  C_8
REMARK    5  A    between atoms: C_8  and  N_9
REMARK                            x       y       z     vdW  Elec       q    Type
REMARK                         _______ _______ _______ _____ _____    ______ ____
ROOT
ATOM      1  C   UNL     1       4.702   0.842   1.068  0.00  0.00    +0.000 A 
ATOM      2  C   UNL     1       5.463   1.292   2.144  0.00  0.00    +0.000 A 
ATOM      3  C   UNL     1       6.857   1.210   2.105  0.00  0.00    +0.000 A 
ATOM      4  C   UNL     1       7.515   0.685   0.981  0.00  0.00    +0.000 A 
ATOM      5  C   UNL     1       6.739   0.233  -0.096  0.00  0.00    +0.000 A 
ATOM      6  C   UNL     1       5.348   0.321  -0.056  0.00  0.00    +0.000 A 
ENDROOT
BRANCH   1   7
ATOM      7  C   UNL     1       3.189   0.909   1.114  0.00  0.00    +0.000 C 
BRANCH   7   8
ATOM      8  C   UNL     1       2.618   2.201   0.527  0.00  0.00    +0.000 C 
BRANCH   8   9
ATOM      9  N   UNL     1       1.152   2.191   0.572  0.00  0.00    +0.000 NA
ATOM     10  H   UNL     1       0.796   3.073   0.198  0.00  0.00    +0.000 HD
ATOM     11  H   UNL     1       0.850   2.145   1.544  0.00  0.00    +0.000 HD
ENDBRANCH   8   9
ENDBRANCH   7   8
ENDBRANCH   1   7
BRANCH   4  12
ATOM     12  C   UNL     1       9.018   0.640   0.921  0.00  0.00    +0.000 C 
BRANCH  12  13
ATOM     13  N   UNL     1       9.591  -0.605   1.426  0.00  0.00    +0.000 N 
ATOM     14  C   UNL     1       9.545  -0.989   2.746  0.00  0.00    +0.000 A 
ATOM     15  C   UNL     1      10.247  -2.162   2.871  0.00  0.00    +0.000 A 
ATOM     16  C   UNL     1      11.080  -2.236   1.724  0.00  0.00    +0.000 A 
ATOM     17  C   UNL     1      12.269  -2.911   1.395  0.00  0.00    +0.000 A 
ATOM     18 CL   UNL     1      13.097  -3.667   2.690  0.00  0.00    +0.000 Cl
ATOM     19  C   UNL     1      12.818  -2.808   0.126  0.00  0.00    +0.000 A 
ATOM     20  C   UNL     1      12.137  -2.108  -0.868  0.00  0.00    +0.000 A 
ATOM     21  C   UNL     1      10.963  -1.396  -0.575  0.00  0.00    +0.000 A 
ATOM     22  C   UNL     1      10.514  -1.395   0.756  0.00  0.00    +0.000 A 
ENDBRANCH  12  13
ENDBRANCH   4  12
TORSDOF 5
