REMARK  Name = 
REMARK  7 active torsions:
REMARK  status: ('A' for Active; 'I' for Inactive)
REMARK    1  A    between atoms: C_2  and  C_4
REMARK    2  A    between atoms: C_7  and  N_8
REMARK    3  A    between atoms: N_8  and  C_9
REMARK    4  A    between atoms: C_9  and  C_10
REMARK    5  A    between atoms: C_10  and  C_13
REMARK    6  A    between atoms: C_15  and  C_16
REMARK    7  A    between atoms: C_19  and  C_20
REMARK                            x       y       z     vdW  Elec       q    Type
REMARK                         _______ _______ _______ _____ _____    ______ ____
ROOT
ATOM      1  C   UNL     1       5.301   5.463  -5.054  0.00  0.00    +0.000 C 
ATOM      2  F   UNL     1       6.645   5.493  -4.799  0.00  0.00    +0.000 F 
ATOM      3  F   UNL     1       5.174   4.691  -6.181  0.00  0.00    +0.000 F 
ENDROOT
BRANCH   1   4
ATOM      4  C   UNL     1       4.740   6.866  -5.270  0.00  0.00    +0.000 A 
ATOM      5  C   UNL     1       5.281   7.653  -6.286  0.00  0.00    +0.000 A 
ATOM      6  C   UNL     1       4.782   8.943  -6.521  0.00  0.00    +0.000 A 
ATOM      7  C   UNL     1       3.760   9.399  -5.680  0.00  0.00    +0.000 A 
ATOM      8  C   UNL     1       3.273   8.565  -4.691  0.00  0.00    +0.000 A 
ATOM      9  N   UNL     1       3.730   7.315  -4.477  0.00  0.00    +0.000 NA
BRANCH   6  10
ATOM     10  C   UNL     1       5.306   9.794  -7.605  0.00  0.00    +0.000 A 
ATOM     11  C   UNL     1       5.792   9.273  -8.803  0.00  0.00    +0.000 A 
ATOM     12  C   UNL     1       6.284  10.141  -9.776  0.00  0.00    +0.000 A 
ATOM     13  C   UNL     1       6.279  11.516  -9.544  0.00  0.00    +0.000 A 
ATOM     14  C   UNL     1       5.765  11.954  -8.334  0.00  0.00    +0.000 A 
ATOM     15  N   UNL     1       5.278  11.132  -7.374  0.00  0.00    +0.000 NA
BRANCH  13  16
ATOM     16  C   UNL     1       6.799  12.505 -10.538  0.00  0.00    +0.000 C 
ATOM     17  F   UNL     1       7.276  11.927 -11.676  0.00  0.00    +0.000 F 
ATOM     18  F   UNL     1       5.848  13.390 -10.940  0.00  0.00    +0.000 F 
ATOM     19  F   UNL     1       7.823  13.253 -10.043  0.00  0.00    +0.000 F 
ENDBRANCH  13  16
ENDBRANCH   6  10
ENDBRANCH   1   4
BRANCH   1  20
ATOM     20  C   UNL     1       4.577   4.747  -3.896  0.00  0.00    +0.000 C 
BRANCH  20  21
ATOM     21  N   UNL     1       5.069   3.382  -3.618  0.00  0.00    +0.000 N 
ATOM     22  H   UNL     1       5.332   2.853  -4.448  0.00  0.00    +0.000 HD
BRANCH  21  26
ATOM     23  C   UNL     1       3.326   1.045  -0.566  0.00  0.00    +0.000 A 
ATOM     24  C   UNL     1       2.882   2.351  -0.769  0.00  0.00    +0.000 A 
ATOM     25  C   UNL     1       3.438   3.126  -1.790  0.00  0.00    +0.000 A 
ATOM     26  C   UNL     1       4.423   2.614  -2.646  0.00  0.00    +0.000 A 
ATOM     27  C   UNL     1       4.876   1.309  -2.409  0.00  0.00    +0.000 A 
ATOM     28  C   UNL     1       4.337   0.529  -1.379  0.00  0.00    +0.000 A 
BRANCH  23  30
ATOM     29  N   UNL     1       1.494   0.470   0.928  0.00  0.00    +0.000 N 
ATOM     30  C   UNL     1       2.776   0.207   0.530  0.00  0.00    +0.000 C 
ATOM     31  O   UNL     1       3.422  -0.700   1.038  0.00  0.00    +0.000 OA
ATOM     32  H   UNL     1       1.094  -0.161   1.610  0.00  0.00    +0.000 HD
ATOM     33  H   UNL     1       0.859   1.029   0.376  0.00  0.00    +0.000 HD
ENDBRANCH  23  30
ENDBRANCH  21  26
ENDBRANCH  20  21
ENDBRANCH   1  20
TORSDOF 7
