REMARK  Name = 
REMARK  6 active torsions:
REMARK  status: ('A' for Active; 'I' for Inactive)
REMARK    1  A    between atoms: C_1  and  O_2
REMARK    2  A    between atoms: O_2  and  C_3
REMARK    3  A    between atoms: C_8  and  C_9
REMARK    4  A    between atoms: C_9  and  N_10
REMARK    5  A    between atoms: N_10  and  C_11
REMARK    6  A    between atoms: C_14  and  C_15
REMARK                            x       y       z     vdW  Elec       q    Type
REMARK                         _______ _______ _______ _____ _____    ______ ____
ROOT
ATOM      1  N   UNL     1       3.352   0.181   2.377  0.00  0.00    +0.000 N 
ATOM      2  H   UNL     1       2.941   0.710   1.611  0.00  0.00    +0.000 HD
ENDROOT
BRANCH   1   3
ATOM      3  C   UNL     1       3.542   0.963   3.524  0.00  0.00    +0.000 A 
ATOM      4  C   UNL     1       2.777   2.121   3.716  0.00  0.00    +0.000 A 
ATOM      5  C   UNL     1       2.917   2.886   4.879  0.00  0.00    +0.000 A 
ATOM      6  C   UNL     1       3.804   2.447   5.848  0.00  0.00    +0.000 A 
ATOM      7  N   UNL     1       4.529   1.302   5.742  0.00  0.00    +0.000 NA
ATOM      8  C   UNL     1       4.360   0.595   4.597  0.00  0.00    +0.000 A 
BRANCH   6   9
ATOM      9  C   UNL     1       4.012   3.238   7.103  0.00  0.00    +0.000 C 
ATOM     10  N   UNL     1       4.911   2.700   7.985  0.00  0.00    +0.000 N 
ATOM     11  O   UNL     1       3.434   4.297   7.326  0.00  0.00    +0.000 OA
ATOM     12  H   UNL     1       5.372   1.827   7.750  0.00  0.00    +0.000 HD
ATOM     13  H   UNL     1       5.123   3.181   8.846  0.00  0.00    +0.000 HD
ENDBRANCH   6   9
ENDBRANCH   1   3
BRANCH   1  14
ATOM     14  C   UNL     1       4.473  -0.648   1.903  0.00  0.00    +0.000 C 
BRANCH  14  20
ATOM     15  C   UNL     1       4.680  -1.341  -0.562  0.00  0.00    +0.000 A 
ATOM     16  C   UNL     1       4.204  -2.095  -1.645  0.00  0.00    +0.000 A 
ATOM     17  C   UNL     1       3.124  -2.965  -1.490  0.00  0.00    +0.000 A 
ATOM     18  C   UNL     1       2.523  -3.111  -0.247  0.00  0.00    +0.000 A 
ATOM     19  C   UNL     1       2.981  -2.362   0.834  0.00  0.00    +0.000 A 
ATOM     20  C   UNL     1       4.047  -1.452   0.691  0.00  0.00    +0.000 A 
BRANCH  15  22
ATOM     21  C   UNL     1       6.147  -0.075  -1.938  0.00  0.00    +0.000 C 
ATOM     22  O   UNL     1       5.776  -0.521  -0.636  0.00  0.00    +0.000 OA
ENDBRANCH  15  22
ENDBRANCH  14  20
ENDBRANCH   1  14
TORSDOF 5
