REMARK  Name = 
REMARK  7 active torsions:
REMARK  status: ('A' for Active; 'I' for Inactive)
REMARK    1  A    between atoms: C_1  and  C_2
REMARK    2  A    between atoms: C_2  and  N_3
REMARK    3  A    between atoms: C_2  and  C_21
REMARK    4  A    between atoms: C_4  and  C_6
REMARK    5  A    between atoms: C_9  and  C_10
REMARK    6  A    between atoms: C_10  and  N_11
REMARK    7  A    between atoms: C_12  and  C_14
REMARK                            x       y       z     vdW  Elec       q    Type
REMARK                         _______ _______ _______ _____ _____    ______ ____
ROOT
ATOM      1  N   UNL     1       3.161  -0.507   1.233  0.00  0.00    +0.000 N 
ATOM      2  C   UNL     1       2.697  -0.142   2.484  0.00  0.00    +0.000 C 
ATOM      3  O   UNL     1       1.797   0.675   2.653  0.00  0.00    +0.000 OA
ATOM      4  H   UNL     1       3.932  -1.151   1.141  0.00  0.00    +0.000 HD
ENDROOT
BRANCH   2   5
ATOM      5  C   UNL     1       3.310  -0.780   3.684  0.00  0.00    +0.000 A 
ATOM      6  C   UNL     1       4.634  -1.226   3.720  0.00  0.00    +0.000 A 
ATOM      7  C   UNL     1       5.176  -1.729   4.915  0.00  0.00    +0.000 A 
ATOM      8  C   UNL     1       4.402  -1.805   6.085  0.00  0.00    +0.000 A 
ATOM      9  C   UNL     1       3.075  -1.359   6.040  0.00  0.00    +0.000 A 
ATOM     10  C   UNL     1       2.535  -0.856   4.851  0.00  0.00    +0.000 A 
BRANCH   8  11
ATOM     11  C   UNL     1       4.978  -2.334   7.377  0.00  0.00    +0.000 C 
BRANCH  11  12
ATOM     12  N   UNL     1       5.583  -1.288   8.170  0.00  0.00    +0.000 N 
ATOM     13  C   UNL     1       6.107  -1.544   9.420  0.00  0.00    +0.000 C 
ATOM     14  O   UNL     1       6.078  -2.653   9.933  0.00  0.00    +0.000 OA
ATOM     15  H   UNL     1       5.679  -0.370   7.762  0.00  0.00    +0.000 HD
BRANCH  13  16
ATOM     16  C   UNL     1       6.701  -0.403  10.069  0.00  0.00    +0.000 A 
ATOM     17  C   UNL     1       6.831   0.925   9.711  0.00  0.00    +0.000 A 
ATOM     18  C   UNL     1       7.523   1.534  10.775  0.00  0.00    +0.000 A 
ATOM     19  N   UNL     1       7.808   0.670  11.749  0.00  0.00    +0.000 NA
ATOM     20  N   UNL     1       7.291  -0.492  11.306  0.00  0.00    +0.000 N 
ATOM     21  H   UNL     1       7.374  -1.318  11.891  0.00  0.00    +0.000 HD
ENDBRANCH  13  16
ENDBRANCH  11  12
ENDBRANCH   8  11
ENDBRANCH   2   5
BRANCH   1  23
ATOM     22  C   UNL     1       1.128  -0.135  -0.160  0.00  0.00    +0.000 C 
ATOM     23  C   UNL     1       2.631   0.124   0.026  0.00  0.00    +0.000 C 
BRANCH  23  24
ATOM     24  C   UNL     1       3.389  -0.394  -1.185  0.00  0.00    +0.000 A 
ATOM     25  C   UNL     1       3.402  -1.724  -1.582  0.00  0.00    +0.000 A 
ATOM     26  S   UNL     1       4.223  -1.986  -3.055  0.00  0.00    +0.000 S 
ATOM     27  C   UNL     1       4.585  -0.331  -3.219  0.00  0.00    +0.000 A 
ATOM     28  N   UNL     1       5.255   0.136  -4.306  0.00  0.00    +0.000 NA
ATOM     29  C   UNL     1       5.435   1.416  -4.310  0.00  0.00    +0.000 A 
ATOM     30  N   UNL     1       5.017   2.267  -3.319  0.00  0.00    +0.000 N 
ATOM     31  C   UNL     1       4.346   1.842  -2.194  0.00  0.00    +0.000 A 
ATOM     32  O   UNL     1       4.001   2.632  -1.322  0.00  0.00    +0.000 OA
ATOM     33  C   UNL     1       4.102   0.409  -2.153  0.00  0.00    +0.000 A 
ATOM     34  H   UNL     1       5.198   3.258  -3.378  0.00  0.00    +0.000 HD
ENDBRANCH  23  24
ENDBRANCH   1  23
TORSDOF 6
