REMARK  Name = 
REMARK  6 active torsions:
REMARK  status: ('A' for Active; 'I' for Inactive)
REMARK    1  A    between atoms: C_2  and  C_25
REMARK    2  A    between atoms: N_3  and  C_4
REMARK    3  A    between atoms: C_4  and  C_5
REMARK    4  A    between atoms: C_8  and  C_9
REMARK    5  A    between atoms: C_9  and  N_10
REMARK    6  A    between atoms: C_11  and  C_13
REMARK                            x       y       z     vdW  Elec       q    Type
REMARK                         _______ _______ _______ _____ _____    ______ ____
ROOT
ATOM      1  C   UNL     1       3.259   2.074  -2.930  0.00  0.00    +0.000 A 
ATOM      2  C   UNL     1       3.158   3.458  -3.125  0.00  0.00    +0.000 A 
ATOM      3  C   UNL     1       4.027   4.126  -3.999  0.00  0.00    +0.000 A 
ATOM      4  C   UNL     1       5.008   3.420  -4.711  0.00  0.00    +0.000 A 
ATOM      5  C   UNL     1       5.113   2.037  -4.504  0.00  0.00    +0.000 A 
ATOM      6  C   UNL     1       4.242   1.369  -3.636  0.00  0.00    +0.000 A 
ENDROOT
BRANCH   1   7
ATOM      7  C   UNL     1       2.304   1.360  -2.008  0.00  0.00    +0.000 C 
BRANCH   7  10
ATOM      8  O   UNL     1       0.148  -0.009  -0.854  0.00  0.00    +0.000 OA
ATOM      9  C   UNL     1       0.110   0.269  -2.046  0.00  0.00    +0.000 C 
ATOM     10  N   UNL     1       1.123   0.924  -2.713  0.00  0.00    +0.000 N 
ATOM     11  H   UNL     1       0.943   1.326  -3.624  0.00  0.00    +0.000 HD
BRANCH   9  12
ATOM     12  C   UNL     1      -1.097  -0.042  -2.857  0.00  0.00    +0.000 A 
ATOM     13  C   UNL     1      -2.349  -0.039  -2.225  0.00  0.00    +0.000 A 
ATOM     14  C   UNL     1      -3.507  -0.252  -2.975  0.00  0.00    +0.000 A 
ATOM     15  C   UNL     1      -3.405  -0.484  -4.343  0.00  0.00    +0.000 A 
ATOM     16  F   UNL     1      -4.518  -0.663  -5.066  0.00  0.00    +0.000 F 
ATOM     17  C   UNL     1      -2.166  -0.532  -4.974  0.00  0.00    +0.000 A 
ATOM     18  C   UNL     1      -1.005  -0.317  -4.230  0.00  0.00    +0.000 A 
ENDBRANCH   9  12
ENDBRANCH   7  10
ENDBRANCH   1   7
BRANCH   4  19
ATOM     19  C   UNL     1       5.935   4.112  -5.684  0.00  0.00    +0.000 C 
BRANCH  19  20
ATOM     20  N   UNL     1       7.150   4.567  -5.057  0.00  0.00    +0.000 N 
ATOM     21  C   UNL     1       8.121   5.241  -5.761  0.00  0.00    +0.000 C 
ATOM     22  O   UNL     1       8.004   5.508  -6.949  0.00  0.00    +0.000 OA
ATOM     23  H   UNL     1       7.416   4.098  -4.195  0.00  0.00    +0.000 HD
BRANCH  21  24
ATOM     24  C   UNL     1       9.285   5.682  -4.977  0.00  0.00    +0.000 A 
ATOM     25  C   UNL     1      10.006   6.801  -5.368  0.00  0.00    +0.000 A 
ATOM     26  S   UNL     1      11.294   7.186  -4.315  0.00  0.00    +0.000 S 
ATOM     27  C   UNL     1      10.964   5.840  -3.329  0.00  0.00    +0.000 A 
ATOM     28  N   UNL     1      11.732   5.556  -2.243  0.00  0.00    +0.000 NA
ATOM     29  C   UNL     1      11.387   4.491  -1.605  0.00  0.00    +0.000 A 
ATOM     30  N   UNL     1      10.329   3.685  -1.948  0.00  0.00    +0.000 N 
ATOM     31  C   UNL     1       9.496   3.960  -3.002  0.00  0.00    +0.000 A 
ATOM     32  O   UNL     1       8.511   3.267  -3.231  0.00  0.00    +0.000 OA
ATOM     33  C   UNL     1       9.867   5.128  -3.776  0.00  0.00    +0.000 A 
ATOM     34  H   UNL     1      10.093   2.876  -1.392  0.00  0.00    +0.000 HD
ENDBRANCH  21  24
ENDBRANCH  19  20
ENDBRANCH   4  19
TORSDOF 6
