REMARK  Name = 
REMARK  12 active torsions:
REMARK  status: ('A' for Active; 'I' for Inactive)
REMARK    1  A    between atoms: C_1  and  C_2
REMARK    2  A    between atoms: C_2  and  N_3
REMARK    3  A    between atoms: C_2  and  C_22
REMARK    4  A    between atoms: N_3  and  C_4
REMARK    5  A    between atoms: C_4  and  C_5
REMARK    6  A    between atoms: C_8  and  C_9
REMARK    7  A    between atoms: C_9  and  C_10
REMARK    8  A    between atoms: C_9  and  C_12
REMARK    9  A    between atoms: C_10  and  O_11
REMARK   10  A    between atoms: C_12  and  N_13
REMARK   11  A    between atoms: C_17  and  C_18
REMARK   12  A    between atoms: C_18  and  O_19
REMARK                            x       y       z     vdW  Elec       q    Type
REMARK                         _______ _______ _______ _____ _____    ______ ____
ROOT
ATOM      1  C   UNL     1      -6.314   3.379  -2.042  0.00  0.00    +0.000 A 
ATOM      2  C   UNL     1      -5.723   3.944  -0.913  0.00  0.00    +0.000 A 
ATOM      3  C   UNL     1      -5.347   3.129   0.156  0.00  0.00    +0.000 A 
ATOM      4  C   UNL     1      -5.577   1.753   0.080  0.00  0.00    +0.000 A 
ATOM      5  N   UNL     1      -6.126   1.194  -1.030  0.00  0.00    +0.000 NA
ATOM      6  C   UNL     1      -6.468   2.001  -2.056  0.00  0.00    +0.000 A 
ENDROOT
BRANCH   1   7
ATOM      7  C   UNL     1      -6.740   4.199  -3.219  0.00  0.00    +0.000 C 
BRANCH   7   8
ATOM      8  N   UNL     1      -8.168   4.030  -3.490  0.00  0.00    +0.000 NA
ATOM      9  H   UNL     1      -8.694   4.341  -2.673  0.00  0.00    +0.000 HD
BRANCH   8  11
ATOM     10  C   UNL     1      -7.884   4.378  -5.933  0.00  0.00    +0.000 C 
ATOM     11  C   UNL     1      -8.624   4.795  -4.659  0.00  0.00    +0.000 C 
BRANCH  11  12
ATOM     12  C   UNL     1     -10.121   4.564  -4.770  0.00  0.00    +0.000 A 
ATOM     13  C   UNL     1     -10.713   3.329  -4.987  0.00  0.00    +0.000 A 
ATOM     14  S   UNL     1     -12.420   3.381  -4.994  0.00  0.00    +0.000 S 
ATOM     15  C   UNL     1     -12.429   5.051  -4.682  0.00  0.00    +0.000 A 
ATOM     16  N   UNL     1     -13.597   5.733  -4.510  0.00  0.00    +0.000 NA
ATOM     17  C   UNL     1     -13.447   6.990  -4.247  0.00  0.00    +0.000 A 
ATOM     18  N   UNL     1     -12.239   7.631  -4.173  0.00  0.00    +0.000 N 
ATOM     19  C   UNL     1     -11.040   7.002  -4.416  0.00  0.00    +0.000 A 
ATOM     20  O   UNL     1      -9.984   7.634  -4.462  0.00  0.00    +0.000 OA
ATOM     21  C   UNL     1     -11.149   5.573  -4.630  0.00  0.00    +0.000 A 
ATOM     22  H   UNL     1     -12.191   8.628  -4.008  0.00  0.00    +0.000 HD
ENDBRANCH  11  12
ENDBRANCH   8  11
ENDBRANCH   7   8
ENDBRANCH   1   7
BRANCH   4  23
ATOM     23  C   UNL     1      -5.230   0.806   1.238  0.00  0.00    +0.000 C 
BRANCH  23  24
ATOM     24  C   UNL     1      -5.479  -0.654   0.811  0.00  0.00    +0.000 C 
BRANCH  24  25
ATOM     25  O   UNL     1      -6.856  -0.921   0.543  0.00  0.00    +0.000 OA
ATOM     26  H   UNL     1      -7.069  -0.363  -0.239  0.00  0.00    +0.000 HD
ENDBRANCH  24  25
ENDBRANCH  23  24
BRANCH  23  27
ATOM     27  C   UNL     1      -6.012   1.191   2.524  0.00  0.00    +0.000 C 
BRANCH  27  28
ATOM     28  N   UNL     1      -5.773   0.530   3.810  0.00  0.00    +0.000 NA
ATOM     29  C   UNL     1      -4.421   0.401   4.327  0.00  0.00    +0.000 C 
ATOM     30  C   UNL     1      -4.198  -1.092   4.483  0.00  0.00    +0.000 C 
ATOM     31  C   UNL     1      -5.573  -1.613   4.855  0.00  0.00    +0.000 C 
ATOM     32  C   UNL     1      -6.551  -0.679   4.131  0.00  0.00    +0.000 C 
BRANCH  32  33
ATOM     33  C   UNL     1      -7.723  -0.303   5.057  0.00  0.00    +0.000 C 
BRANCH  33  34
ATOM     34  O   UNL     1      -8.638   0.581   4.415  0.00  0.00    +0.000 OA
ATOM     35  H   UNL     1      -8.099   1.336   4.132  0.00  0.00    +0.000 HD
ENDBRANCH  33  34
ENDBRANCH  32  33
ENDBRANCH  27  28
ENDBRANCH  23  27
ENDBRANCH   4  23
TORSDOF 11
