REMARK  Name = 
REMARK  9 active torsions:
REMARK  status: ('A' for Active; 'I' for Inactive)
REMARK    1  A    between atoms: C_1  and  O_2
REMARK    2  A    between atoms: O_2  and  C_3
REMARK    3  A    between atoms: C_10  and  C_11
REMARK    4  A    between atoms: N_13  and  C_14
REMARK    5  A    between atoms: C_14  and  C_15
REMARK    6  A    between atoms: C_18  and  C_19
REMARK    7  A    between atoms: C_19  and  N_20
REMARK    8  A    between atoms: N_20  and  C_21
REMARK    9  A    between atoms: C_21  and  C_22
REMARK                            x       y       z     vdW  Elec       q    Type
REMARK                         _______ _______ _______ _____ _____    ______ ____
ROOT
ATOM      1  C   UNL     1       2.401  -2.949   1.691  0.00  0.00    +0.000 A 
ATOM      2  C   UNL     1       1.576  -3.974   2.171  0.00  0.00    +0.000 A 
ATOM      3  C   UNL     1       0.617  -3.715   3.154  0.00  0.00    +0.000 A 
ATOM      4  C   UNL     1       0.453  -2.424   3.677  0.00  0.00    +0.000 A 
ATOM      5  C   UNL     1       1.274  -1.397   3.192  0.00  0.00    +0.000 A 
ATOM      6  C   UNL     1       2.235  -1.656   2.207  0.00  0.00    +0.000 A 
ENDROOT
BRANCH   1   7
ATOM      7  C   UNL     1       3.398  -3.222   0.592  0.00  0.00    +0.000 C 
BRANCH   7  10
ATOM      8  C   UNL     1       3.468  -3.235  -1.873  0.00  0.00    +0.000 C 
ATOM      9  O   UNL     1       4.645  -3.595  -1.874  0.00  0.00    +0.000 OA
ATOM     10  N   UNL     1       2.790  -3.038  -0.703  0.00  0.00    +0.000 N 
ATOM     11  H   UNL     1       1.810  -2.792  -0.723  0.00  0.00    +0.000 HD
BRANCH   8  19
ATOM     12  C   UNL     1       0.243  -2.254  -2.594  0.00  0.00    +0.000 A 
ATOM     13  N   UNL     1      -0.905  -1.816  -3.148  0.00  0.00    +0.000 NA
ATOM     14  C   UNL     1      -0.953  -1.682  -4.476  0.00  0.00    +0.000 A 
ATOM     15  N   UNL     1       0.021  -1.946  -5.342  0.00  0.00    +0.000 NA
ATOM     16  C   UNL     1       1.150  -2.371  -4.750  0.00  0.00    +0.000 A 
ATOM     17  S   UNL     1       2.496  -2.767  -5.705  0.00  0.00    +0.000 S 
ATOM     18  C   UNL     1       3.421  -3.148  -4.332  0.00  0.00    +0.000 A 
ATOM     19  C   UNL     1       2.742  -2.981  -3.130  0.00  0.00    +0.000 A 
ATOM     20  C   UNL     1       1.369  -2.543  -3.385  0.00  0.00    +0.000 A 
BRANCH  12  22
ATOM     21  C   UNL     1      -0.907  -2.046  -0.551  0.00  0.00    +0.000 C 
ATOM     22  O   UNL     1       0.284  -2.439  -1.228  0.00  0.00    +0.000 OA
ENDBRANCH  12  22
ENDBRANCH   8  19
ENDBRANCH   7  10
ENDBRANCH   1   7
BRANCH   4  23
ATOM     23  C   UNL     1      -0.598  -2.150   4.734  0.00  0.00    +0.000 C 
BRANCH  23  24
ATOM     24  N   UNL     1      -0.346  -2.947   5.931  0.00  0.00    +0.000 NA
ATOM     25  H   UNL     1       0.582  -2.719   6.284  0.00  0.00    +0.000 HD
BRANCH  24  26
ATOM     26  C   UNL     1      -1.327  -2.686   6.985  0.00  0.00    +0.000 C 
BRANCH  26  27
ATOM     27  C   UNL     1      -1.004  -3.508   8.208  0.00  0.00    +0.000 A 
ATOM     28  C   UNL     1      -0.960  -4.910   8.136  0.00  0.00    +0.000 A 
ATOM     29  C   UNL     1      -0.591  -5.669   9.249  0.00  0.00    +0.000 A 
ATOM     30  C   UNL     1      -0.274  -5.038  10.452  0.00  0.00    +0.000 A 
ATOM     31  C   UNL     1      -0.344  -3.649  10.545  0.00  0.00    +0.000 A 
ATOM     32  C   UNL     1      -0.710  -2.898   9.430  0.00  0.00    +0.000 A 
ATOM     33  F   UNL     1      -0.761  -1.563   9.544  0.00  0.00    +0.000 F 
ENDBRANCH  26  27
ENDBRANCH  24  26
ENDBRANCH  23  24
ENDBRANCH   4  23
TORSDOF 8
