REMARK  Name = 
REMARK  8 active torsions:
REMARK  status: ('A' for Active; 'I' for Inactive)
REMARK    1  A    between atoms: C_2  and  C_3
REMARK    2  A    between atoms: N_7  and  C_8
REMARK    3  A    between atoms: C_8  and  C_9
REMARK    4  A    between atoms: C_9  and  C_12
REMARK    5  A    between atoms: C_16  and  O_17
REMARK    6  A    between atoms: O_17  and  C_18
REMARK    7  A    between atoms: N_20  and  C_21
REMARK    8  A    between atoms: C_21  and  C_22
REMARK                            x       y       z     vdW  Elec       q    Type
REMARK                         _______ _______ _______ _____ _____    ______ ____
ROOT
ATOM      1  C   UNL     1      -6.655   2.416  -0.269  0.00  0.00    +0.000 A 
ATOM      2  C   UNL     1      -8.041   2.387  -0.076  0.00  0.00    +0.000 A 
ATOM      3  C   UNL     1      -8.767   3.580   0.035  0.00  0.00    +0.000 A 
ATOM      4  C   UNL     1      -8.123   4.821  -0.045  0.00  0.00    +0.000 A 
ATOM      5  C   UNL     1      -6.753   4.864  -0.262  0.00  0.00    +0.000 A 
ATOM      6  C   UNL     1      -6.035   3.673  -0.377  0.00  0.00    +0.000 A 
ENDROOT
BRANCH   1   7
ATOM      7  C   UNL     1      -5.885   1.102  -0.306  0.00  0.00    +0.000 C 
ATOM      8  F   UNL     1      -6.360   0.274  -1.285  0.00  0.00    +0.000 F 
ATOM      9  F   UNL     1      -6.051   0.407   0.861  0.00  0.00    +0.000 F 
BRANCH   7  10
ATOM     10  C   UNL     1      -4.371   1.302  -0.537  0.00  0.00    +0.000 C 
BRANCH  10  15
ATOM     11  C   UNL     1       0.545   0.026  -0.944  0.00  0.00    +0.000 A 
ATOM     12  C   UNL     1      -0.094   1.253  -1.040  0.00  0.00    +0.000 A 
ATOM     13  C   UNL     1      -1.477   1.298  -0.889  0.00  0.00    +0.000 A 
ATOM     14  C   UNL     1      -2.198   0.127  -0.665  0.00  0.00    +0.000 A 
ATOM     15  N   UNL     1      -3.559   0.097  -0.526  0.00  0.00    +0.000 N 
ATOM     16  N   UNL     1      -1.580  -1.065  -0.568  0.00  0.00    +0.000 NA
ATOM     17  C   UNL     1      -0.231  -1.093  -0.701  0.00  0.00    +0.000 A 
ATOM     18  H   UNL     1      -3.983  -0.819  -0.430  0.00  0.00    +0.000 HD
BRANCH  11  20
ATOM     19  N   UNL     1       3.107  -0.164  -1.217  0.00  0.00    +0.000 NA
ATOM     20  C   UNL     1       1.959  -0.084  -1.093  0.00  0.00    +0.000 C 
ENDBRANCH  11  20
ENDBRANCH  10  15
ENDBRANCH   7  10
ENDBRANCH   1   7
BRANCH   5  21
ATOM     21  O   UNL     1      -5.962   5.982  -0.323  0.00  0.00    +0.000 OA
BRANCH  21  22
ATOM     22  C   UNL     1      -6.536   7.262  -0.641  0.00  0.00    +0.000 C 
ATOM     23  C   UNL     1      -7.034   7.503  -2.083  0.00  0.00    +0.000 C 
ATOM     24  N   UNL     1      -6.296   8.784  -2.138  0.00  0.00    +0.000 NA
ATOM     25  C   UNL     1      -5.497   8.372  -0.963  0.00  0.00    +0.000 C 
BRANCH  24  26
ATOM     26  C   UNL     1      -7.171   9.927  -1.779  0.00  0.00    +0.000 C 
BRANCH  26  27
ATOM     27  C   UNL     1      -6.508  11.321  -1.812  0.00  0.00    +0.000 C 
ATOM     28  F   UNL     1      -5.208  11.287  -2.175  0.00  0.00    +0.000 F 
ATOM     29  F   UNL     1      -7.153  12.142  -2.673  0.00  0.00    +0.000 F 
ATOM     30  F   UNL     1      -6.568  11.897  -0.587  0.00  0.00    +0.000 F 
ENDBRANCH  26  27
ENDBRANCH  24  26
ENDBRANCH  21  22
ENDBRANCH   5  21
TORSDOF 8
