REMARK  Name = 
REMARK  13 active torsions:
REMARK  status: ('A' for Active; 'I' for Inactive)
REMARK    1  A    between atoms: C_1  and  C_2
REMARK    2  A    between atoms: C_2  and  C_3
REMARK    3  A    between atoms: C_2  and  C_4
REMARK    4  A    between atoms: N_6  and  C_7
REMARK    5  A    between atoms: C_9  and  O_10
REMARK    6  A    between atoms: O_10  and  C_11
REMARK    7  A    between atoms: C_11  and  C_12
REMARK    8  A    between atoms: C_12  and  C_13
REMARK    9  A    between atoms: C_13  and  C_14
REMARK   10  A    between atoms: C_13  and  O_15
REMARK   11  A    between atoms: C_13  and  C_16
REMARK   12  A    between atoms: C_19  and  C_20
REMARK   13  A    between atoms: C_26  and  C_27
REMARK                            x       y       z     vdW  Elec       q    Type
REMARK                         _______ _______ _______ _____ _____    ______ ____
ROOT
ATOM      1  C   UNL     1       9.744   4.075  -1.009  0.00  0.00    +0.000 A 
ATOM      2  C   UNL     1       9.625   2.728  -1.369  0.00  0.00    +0.000 A 
ATOM      3  C   UNL     1       8.826   2.309  -2.441  0.00  0.00    +0.000 A 
ATOM      4  C   UNL     1       8.137   3.251  -3.186  0.00  0.00    +0.000 A 
ATOM      5  C   UNL     1       8.214   4.609  -2.856  0.00  0.00    +0.000 A 
ATOM      6  C   UNL     1       9.039   5.000  -1.786  0.00  0.00    +0.000 A 
ENDROOT
BRANCH   1   9
ATOM      7  C   UNL     1      11.500   3.407   2.090  0.00  0.00    +0.000 C 
ATOM      8  C   UNL     1      11.666   3.736   0.582  0.00  0.00    +0.000 C 
ATOM      9  N   UNL     1      10.492   4.469   0.080  0.00  0.00    +0.000 N 
ATOM     10  C   UNL     1      10.114   5.630   0.899  0.00  0.00    +0.000 C 
ATOM     11  C   UNL     1       9.951   5.182   2.357  0.00  0.00    +0.000 C 
ATOM     12  O   UNL     1      11.159   4.587   2.850  0.00  0.00    +0.000 OA
BRANCH   7  14
ATOM     13  C   UNL     1      13.997   3.716   2.594  0.00  0.00    +0.000 C 
ATOM     14  C   UNL     1      12.782   2.787   2.695  0.00  0.00    +0.000 C 
ATOM     15  C   UNL     1      12.564   2.420   4.168  0.00  0.00    +0.000 C 
ENDBRANCH   7  14
ENDBRANCH   1   9
BRANCH   5  16
ATOM     16  C   UNL     1       7.401   5.643  -3.583  0.00  0.00    +0.000 C 
ATOM     17  F   UNL     1       6.597   5.128  -4.554  0.00  0.00    +0.000 F 
ATOM     18  F   UNL     1       6.572   6.327  -2.742  0.00  0.00    +0.000 F 
ATOM     19  F   UNL     1       8.169   6.588  -4.194  0.00  0.00    +0.000 F 
ENDBRANCH   5  16
BRANCH   3  20
ATOM     20  O   UNL     1       8.632   1.004  -2.812  0.00  0.00    +0.000 OA
BRANCH  20  21
ATOM     21  C   UNL     1       9.258   0.025  -1.979  0.00  0.00    +0.000 C 
BRANCH  21  22
ATOM     22  C   UNL     1       8.900  -1.367  -2.488  0.00  0.00    +0.000 C 
BRANCH  22  23
ATOM     23  C   UNL     1       9.587  -2.490  -1.685  0.00  0.00    +0.000 C 
ATOM     24  C   UNL     1       9.097  -3.849  -2.192  0.00  0.00    +0.000 C 
BRANCH  23  25
ATOM     25  C   UNL     1      11.125  -2.456  -1.696  0.00  0.00    +0.000 A 
ATOM     26  C   UNL     1      11.844  -1.967  -2.788  0.00  0.00    +0.000 A 
ATOM     27  C   UNL     1      13.240  -1.954  -2.748  0.00  0.00    +0.000 A 
ATOM     28  C   UNL     1      13.910  -2.441  -1.628  0.00  0.00    +0.000 A 
ATOM     29  C   UNL     1      13.127  -2.909  -0.583  0.00  0.00    +0.000 A 
ATOM     30  N   UNL     1      11.760  -2.932  -0.589  0.00  0.00    +0.000 NA
BRANCH  28  31
ATOM     31  C   UNL     1      15.397  -2.441  -1.635  0.00  0.00    +0.000 C 
ATOM     32  N   UNL     1      16.073  -2.940  -0.556  0.00  0.00    +0.000 N 
ATOM     33  O   UNL     1      16.018  -2.007  -2.591  0.00  0.00    +0.000 OA
ATOM     34  H   UNL     1      15.665  -3.333   0.278  0.00  0.00    +0.000 HD
ATOM     35  H   UNL     1      17.084  -2.939  -0.624  0.00  0.00    +0.000 HD
ENDBRANCH  28  31
ENDBRANCH  23  25
BRANCH  23  36
ATOM     36  O   UNL     1       9.121  -2.393  -0.326  0.00  0.00    +0.000 OA
ATOM     37  H   UNL     1       9.722  -2.966   0.191  0.00  0.00    +0.000 HD
ENDBRANCH  23  36
ENDBRANCH  22  23
ENDBRANCH  21  22
ENDBRANCH  20  21
ENDBRANCH   3  20
TORSDOF 10
