REMARK  Name = 
REMARK  6 active torsions:
REMARK  status: ('A' for Active; 'I' for Inactive)
REMARK    1  A    between atoms: C_1  and  C_2
REMARK    2  A    between atoms: C_5  and  C_6
REMARK    3  A    between atoms: C_6  and  C_7
REMARK    4  A    between atoms: C_6  and  N_8
REMARK    5  A    between atoms: N_8  and  C_9
REMARK    6  A    between atoms: C_12  and  C_13
REMARK                            x       y       z     vdW  Elec       q    Type
REMARK                         _______ _______ _______ _____ _____    ______ ____
ROOT
ATOM      1  N   UNL     1      -3.964   1.355  -0.071  0.00  0.00    +0.000 N 
ATOM      2  H   UNL     1      -3.332   2.147  -0.052  0.00  0.00    +0.000 HD
ENDROOT
BRANCH   1   3
ATOM      3  C   UNL     1      -5.237   1.587  -0.568  0.00  0.00    +0.000 A 
ATOM      4  C   UNL     1      -6.116   0.578  -0.964  0.00  0.00    +0.000 A 
ATOM      5  C   UNL     1      -7.415   0.880  -1.379  0.00  0.00    +0.000 A 
ATOM      6  C   UNL     1      -7.822   2.206  -1.366  0.00  0.00    +0.000 A 
ATOM      7  N   UNL     1      -7.020   3.233  -0.979  0.00  0.00    +0.000 NA
ATOM      8  C   UNL     1      -5.765   2.886  -0.589  0.00  0.00    +0.000 A 
BRANCH   6   9
ATOM      9  C   UNL     1      -9.223   2.550  -1.773  0.00  0.00    +0.000 C 
ATOM     10  N   UNL     1      -9.551   3.879  -1.705  0.00  0.00    +0.000 N 
ATOM     11  O   UNL     1     -10.032   1.708  -2.139  0.00  0.00    +0.000 OA
ATOM     12  H   UNL     1      -8.861   4.546  -1.383  0.00  0.00    +0.000 HD
ATOM     13  H   UNL     1     -10.484   4.173  -1.948  0.00  0.00    +0.000 HD
ENDBRANCH   6   9
ENDBRANCH   1   3
BRANCH   1  14
ATOM     14  C   UNL     1      -3.334   0.035   0.016  0.00  0.00    +0.000 C 
ATOM     15  C   UNL     1      -1.813   0.190  -0.065  0.00  0.00    +0.000 C 
BRANCH  14  20
ATOM     16  C   UNL     1      -4.959  -2.848   4.841  0.00  0.00    +0.000 C 
ATOM     17  C   UNL     1      -4.479  -2.111   3.625  0.00  0.00    +0.000 A 
ATOM     18  C   UNL     1      -4.134  -2.798   2.457  0.00  0.00    +0.000 A 
ATOM     19  C   UNL     1      -3.756  -2.097   1.308  0.00  0.00    +0.000 A 
ATOM     20  C   UNL     1      -3.722  -0.693   1.294  0.00  0.00    +0.000 A 
ATOM     21  C   UNL     1      -4.033  -0.014   2.483  0.00  0.00    +0.000 A 
ATOM     22  C   UNL     1      -4.416  -0.714   3.631  0.00  0.00    +0.000 A 
ENDBRANCH  14  20
ENDBRANCH   1  14
TORSDOF 4
