REMARK  Name = 
REMARK  4 active torsions:
REMARK  status: ('A' for Active; 'I' for Inactive)
REMARK    1  A    between atoms: C_2  and  C_4
REMARK    2  A    between atoms: N_8  and  C_9
REMARK    3  A    between atoms: C_9  and  C_10
REMARK    4  A    between atoms: C_15  and  C_16
REMARK                            x       y       z     vdW  Elec       q    Type
REMARK                         _______ _______ _______ _____ _____    ______ ____
ROOT
ATOM      1  C   UNL     1       5.136   2.058   5.650  0.00  0.00    +0.000 C 
ENDROOT
BRANCH   1   6
ATOM      2  C   UNL     1       7.770   0.440   1.570  0.00  0.00    +0.000 A 
ATOM      3  C   UNL     1       7.214  -0.299   2.607  0.00  0.00    +0.000 A 
ATOM      4  C   UNL     1       6.387   0.338   3.531  0.00  0.00    +0.000 A 
ATOM      5  C   UNL     1       6.145   1.703   3.419  0.00  0.00    +0.000 A 
ATOM      6  N   UNL     1       5.292   2.392   4.252  0.00  0.00    +0.000 N 
ATOM      7  N   UNL     1       6.684   2.431   2.420  0.00  0.00    +0.000 NA
ATOM      8  C   UNL     1       7.487   1.795   1.524  0.00  0.00    +0.000 A 
ATOM      9  H   UNL     1       5.354   3.381   4.029  0.00  0.00    +0.000 HD
BRANCH   2  11
ATOM     10  N   UNL     1       8.490  -1.500   0.295  0.00  0.00    +0.000 N 
ATOM     11  C   UNL     1       8.646  -0.161   0.547  0.00  0.00    +0.000 C 
ATOM     12  O   UNL     1       9.458   0.506  -0.072  0.00  0.00    +0.000 OA
ATOM     13  H   UNL     1       9.027  -1.879  -0.470  0.00  0.00    +0.000 HD
ATOM     14  H   UNL     1       7.679  -2.017   0.596  0.00  0.00    +0.000 HD
ENDBRANCH   2  11
ENDBRANCH   1   6
BRANCH   1  15
ATOM     15  C   UNL     1       6.184   2.698   6.533  0.00  0.00    +0.000 A 
ATOM     16  C   UNL     1       7.072   1.907   7.263  0.00  0.00    +0.000 A 
ATOM     17  C   UNL     1       7.928   2.497   8.188  0.00  0.00    +0.000 A 
ATOM     18  C   UNL     1       7.914   3.884   8.399  0.00  0.00    +0.000 A 
ATOM     19 CL   UNL     1       8.905   4.433   9.712  0.00  0.00    +0.000 Cl
ATOM     20  C   UNL     1       7.082   4.735   7.635  0.00  0.00    +0.000 A 
ATOM     21  C   UNL     1       6.227   4.095   6.702  0.00  0.00    +0.000 A 
BRANCH  20  22
ATOM     22  C   UNL     1       7.032   6.221   7.764  0.00  0.00    +0.000 A 
ATOM     23  C   UNL     1       8.161   7.009   8.019  0.00  0.00    +0.000 A 
ATOM     24  N   UNL     1       8.168   8.363   8.153  0.00  0.00    +0.000 NA
ATOM     25  C   UNL     1       6.987   8.994   7.987  0.00  0.00    +0.000 A 
ATOM     26  C   UNL     1       5.811   8.333   7.689  0.00  0.00    +0.000 A 
ATOM     27 CL   UNL     1       4.354   9.203   7.428  0.00  0.00    +0.000 Cl
ATOM     28  C   UNL     1       5.834   6.941   7.591  0.00  0.00    +0.000 A 
ENDBRANCH  20  22
ENDBRANCH   1  15
TORSDOF 4
