REMARK  Name = 
REMARK  8 active torsions:
REMARK  status: ('A' for Active; 'I' for Inactive)
REMARK    1  A    between atoms: C_1  and  C_2
REMARK    2  A    between atoms: C_2  and  C_3
REMARK    3  A    between atoms: C_7  and  C_8
REMARK    4  A    between atoms: C_8  and  C_9
REMARK    5  A    between atoms: C_9  and  N_10
REMARK    6  A    between atoms: N_10  and  C_11
REMARK    7  A    between atoms: C_14  and  C_15
REMARK    8  A    between atoms: C_23  and  C_24
REMARK                            x       y       z     vdW  Elec       q    Type
REMARK                         _______ _______ _______ _____ _____    ______ ____
ROOT
ATOM      1  C   UNL     1       2.802   0.042   1.506  0.00  0.00    +0.000 A 
ATOM      2  C   UNL     1       2.557   1.138   2.348  0.00  0.00    +0.000 A 
ATOM      3  C   UNL     1       2.970   1.123   3.684  0.00  0.00    +0.000 A 
ATOM      4  C   UNL     1       3.621   0.007   4.215  0.00  0.00    +0.000 A 
ATOM      5  C   UNL     1       3.879  -1.106   3.412  0.00  0.00    +0.000 A 
ATOM      6  C   UNL     1       3.484  -1.052   2.062  0.00  0.00    +0.000 A 
ENDROOT
BRANCH   1   8
ATOM      7  C   UNL     1       0.780   0.108  -0.001  0.00  0.00    +0.000 C 
ATOM      8  C   UNL     1       2.313   0.028   0.049  0.00  0.00    +0.000 C 
ATOM      9  C   UNL     1       2.969   1.128  -0.768  0.00  0.00    +0.000 C 
ATOM     10  C   UNL     1       3.681   0.610  -1.782  0.00  0.00    +0.000 C 
ATOM     11  C   UNL     1       3.563  -0.834  -1.774  0.00  0.00    +0.000 C 
ATOM     12  C   UNL     1       2.756  -1.190  -0.756  0.00  0.00    +0.000 C 
BRANCH  11  13
ATOM     13  C   UNL     1       4.250  -1.728  -2.753  0.00  0.00    +0.000 C 
ATOM     14  F   UNL     1       4.994  -1.045  -3.659  0.00  0.00    +0.000 F 
ATOM     15  F   UNL     1       5.089  -2.594  -2.126  0.00  0.00    +0.000 F 
ATOM     16  F   UNL     1       3.365  -2.482  -3.455  0.00  0.00    +0.000 F 
ENDBRANCH  11  13
ENDBRANCH   1   8
BRANCH   5  17
ATOM     17  C   UNL     1       4.541  -2.339   4.014  0.00  0.00    +0.000 C 
BRANCH  17  18
ATOM     18  C   UNL     1       4.774  -3.459   2.992  0.00  0.00    +0.000 C 
BRANCH  18  19
ATOM     19  N   UNL     1       5.349  -4.680   3.559  0.00  0.00    +0.000 N 
ATOM     20  H   UNL     1       4.833  -5.006   4.375  0.00  0.00    +0.000 HD
BRANCH  19  21
ATOM     21  C   UNL     1       5.537  -5.724   2.623  0.00  0.00    +0.000 A 
ATOM     22  C   UNL     1       5.851  -5.500   1.275  0.00  0.00    +0.000 A 
ATOM     23  C   UNL     1       6.093  -6.563   0.407  0.00  0.00    +0.000 A 
ATOM     24  C   UNL     1       6.051  -7.847   0.920  0.00  0.00    +0.000 A 
ATOM     25  N   UNL     1       5.789  -8.131   2.226  0.00  0.00    +0.000 NA
ATOM     26  C   UNL     1       5.560  -7.062   3.034  0.00  0.00    +0.000 A 
BRANCH  24  27
ATOM     27  C   UNL     1       6.332  -9.006   0.014  0.00  0.00    +0.000 C 
ATOM     28  N   UNL     1       6.290 -10.237   0.609  0.00  0.00    +0.000 N 
ATOM     29  O   UNL     1       6.590  -8.874  -1.175  0.00  0.00    +0.000 OA
ATOM     30  H   UNL     1       6.101 -10.300   1.605  0.00  0.00    +0.000 HD
ATOM     31  H   UNL     1       6.508 -11.059   0.070  0.00  0.00    +0.000 HD
ENDBRANCH  24  27
ENDBRANCH  19  21
ENDBRANCH  18  19
ENDBRANCH  17  18
ENDBRANCH   5  17
TORSDOF 7
