REMARK  Name = 
REMARK  5 active torsions:
REMARK  status: ('A' for Active; 'I' for Inactive)
REMARK    1  A    between atoms: C_2  and  C_4
REMARK    2  A    between atoms: C_7  and  O_8
REMARK    3  A    between atoms: O_8  and  C_9
REMARK    4  A    between atoms: C_9  and  C_10
REMARK    5  A    between atoms: C_15  and  C_16
REMARK                            x       y       z     vdW  Elec       q    Type
REMARK                         _______ _______ _______ _____ _____    ______ ____
ROOT
ATOM      1  C   UNL     1       5.884  -1.637   6.814  0.00  0.00    +0.000 A 
ATOM      2  C   UNL     1       6.335  -0.418   7.326  0.00  0.00    +0.000 A 
ATOM      3  C   UNL     1       7.068  -0.395   8.504  0.00  0.00    +0.000 A 
ATOM      4  F   UNL     1       7.492   0.779   8.991  0.00  0.00    +0.000 F 
ATOM      5  C   UNL     1       7.357  -1.567   9.199  0.00  0.00    +0.000 A 
ATOM      6  C   UNL     1       6.896  -2.810   8.735  0.00  0.00    +0.000 A 
ATOM      7  C   UNL     1       6.159  -2.816   7.533  0.00  0.00    +0.000 A 
ENDROOT
BRANCH   6   8
ATOM      8  C   UNL     1       7.143  -4.059   9.494  0.00  0.00    +0.000 A 
ATOM      9  C   UNL     1       7.357  -5.291   8.843  0.00  0.00    +0.000 A 
ATOM     10  C   UNL     1       7.562  -6.475   9.562  0.00  0.00    +0.000 A 
ATOM     11  C   UNL     1       7.572  -6.451  10.953  0.00  0.00    +0.000 A 
ATOM     12  C   UNL     1       7.370  -5.245  11.608  0.00  0.00    +0.000 A 
ATOM     13  F   UNL     1       7.377  -5.215  12.948  0.00  0.00    +0.000 F 
ATOM     14  C   UNL     1       7.153  -4.066  10.900  0.00  0.00    +0.000 A 
ENDBRANCH   6   8
BRANCH   1  15
ATOM     15  C   UNL     1       5.027  -1.664   5.570  0.00  0.00    +0.000 C 
BRANCH  15  16
ATOM     16  O   UNL     1       5.315  -2.828   4.793  0.00  0.00    +0.000 OA
BRANCH  16  20
ATOM     17  C   UNL     1       3.129  -3.655   1.337  0.00  0.00    +0.000 A 
ATOM     18  C   UNL     1       2.837  -2.485   2.046  0.00  0.00    +0.000 A 
ATOM     19  C   UNL     1       3.548  -2.171   3.209  0.00  0.00    +0.000 A 
ATOM     20  C   UNL     1       4.550  -3.025   3.676  0.00  0.00    +0.000 A 
ATOM     21  C   UNL     1       4.828  -4.201   2.973  0.00  0.00    +0.000 A 
ATOM     22  C   UNL     1       4.116  -4.521   1.813  0.00  0.00    +0.000 A 
BRANCH  17  24
ATOM     23  N   UNL     1       1.879  -2.993  -0.646  0.00  0.00    +0.000 N 
ATOM     24  C   UNL     1       2.400  -4.019   0.094  0.00  0.00    +0.000 C 
ATOM     25  O   UNL     1       2.302  -5.179  -0.279  0.00  0.00    +0.000 OA
ATOM     26  H   UNL     1       1.490  -3.249  -1.545  0.00  0.00    +0.000 HD
ATOM     27  H   UNL     1       2.164  -2.034  -0.518  0.00  0.00    +0.000 HD
ENDBRANCH  17  24
ENDBRANCH  16  20
ENDBRANCH  15  16
ENDBRANCH   1  15
TORSDOF 5
