REMARK  Name = 
REMARK  4 active torsions:
REMARK  status: ('A' for Active; 'I' for Inactive)
REMARK    1  A    between atoms: N_1  and  C_2
REMARK    2  A    between atoms: C_2  and  C_3
REMARK    3  A    between atoms: C_7  and  C_8
REMARK    4  A    between atoms: C_8  and  C_9
REMARK                            x       y       z     vdW  Elec       q    Type
REMARK                         _______ _______ _______ _____ _____    ______ ____
ROOT
ATOM      1  C   UNL     1       2.904   1.322   0.077  0.00  0.00    +0.000 A 
ATOM      2  C   UNL     1       2.262   2.348  -0.631  0.00  0.00    +0.000 A 
ATOM      3  C   UNL     1       2.667   3.673  -0.486  0.00  0.00    +0.000 A 
ATOM      4  C   UNL     1       3.710   3.994   0.382  0.00  0.00    +0.000 A 
ATOM      5  C   UNL     1       4.364   2.990   1.110  0.00  0.00    +0.000 A 
ATOM      6  C   UNL     1       3.954   1.656   0.948  0.00  0.00    +0.000 A 
ENDROOT
BRANCH   1   7
ATOM      7  C   UNL     1       2.447  -0.107  -0.069  0.00  0.00    +0.000 C 
BRANCH   7   8
ATOM      8  N   UNL     1       2.558  -0.571  -1.448  0.00  0.00    +0.000 NA
ATOM      9  H   UNL     1       2.291  -1.552  -1.490  0.00  0.00    +0.000 HD
ATOM     10  H   UNL     1       3.537  -0.528  -1.726  0.00  0.00    +0.000 HD
ENDBRANCH   7   8
ENDBRANCH   1   7
BRANCH   5  11
ATOM     11  C   UNL     1       5.464   3.349   2.087  0.00  0.00    +0.000 C 
BRANCH  11  12
ATOM     12  C   UNL     1       6.756   2.649   1.841  0.00  0.00    +0.000 A 
ATOM     13  N   UNL     1       7.358   1.823   2.678  0.00  0.00    +0.000 NA
ATOM     14  N   UNL     1       8.494   1.342   2.072  0.00  0.00    +0.000 NA
ATOM     15  C   UNL     1       8.571   1.882   0.877  0.00  0.00    +0.000 A 
ATOM     16  C   UNL     1       9.496   1.729  -0.191  0.00  0.00    +0.000 A 
ATOM     17  C   UNL     1       9.323   2.433  -1.328  0.00  0.00    +0.000 A 
ATOM     18  C   UNL     1       8.220   3.372  -1.477  0.00  0.00    +0.000 A 
ATOM     19  C   UNL     1       7.341   3.512  -0.472  0.00  0.00    +0.000 A 
ATOM     20  N   UNL     1       7.507   2.755   0.689  0.00  0.00    +0.000 N 
ENDBRANCH  11  12
ENDBRANCH   5  11
TORSDOF 4
