REMARK  Name = 
REMARK  9 active torsions:
REMARK  status: ('A' for Active; 'I' for Inactive)
REMARK    1  A    between atoms: N_1  and  C_2
REMARK    2  A    between atoms: C_2  and  C_3
REMARK    3  A    between atoms: C_3  and  O_4
REMARK    4  A    between atoms: C_3  and  C_5
REMARK    5  A    between atoms: C_8  and  C_9
REMARK    6  A    between atoms: C_9  and  N_10
REMARK    7  A    between atoms: C_12  and  C_13
REMARK    8  A    between atoms: N_15  and  C_16
REMARK    9  A    between atoms: C_16  and  C_17
REMARK                            x       y       z     vdW  Elec       q    Type
REMARK                         _______ _______ _______ _____ _____    ______ ____
ROOT
ATOM      1  N   UNL     1       9.382  -0.528  -2.507  0.00  0.00    +0.000 N 
ATOM      2  C   UNL     1       9.269   0.662  -3.163  0.00  0.00    +0.000 A 
ATOM      3  C   UNL     1       9.840   0.483  -4.414  0.00  0.00    +0.000 A 
ATOM      4  C   UNL     1      10.321  -0.846  -4.368  0.00  0.00    +0.000 A 
ATOM      5  N   UNL     1      10.035  -1.468  -3.223  0.00  0.00    +0.000 NA
ENDROOT
BRANCH   3   6
ATOM      6  C   UNL     1       9.926   1.465  -5.475  0.00  0.00    +0.000 C 
ATOM      7  O   UNL     1       9.906   2.675  -5.251  0.00  0.00    +0.000 OA
ATOM      8  N   UNL     1      10.012   0.932  -6.737  0.00  0.00    +0.000 N 
ATOM      9  H   UNL     1       9.797  -0.050  -6.888  0.00  0.00    +0.000 HD
BRANCH   8  10
ATOM     10  C   UNL     1      10.174   1.744  -7.908  0.00  0.00    +0.000 C 
BRANCH  10  11
ATOM     11  C   UNL     1       8.848   2.109  -8.497  0.00  0.00    +0.000 A 
ATOM     12  C   UNL     1       8.387   3.408  -8.620  0.00  0.00    +0.000 A 
ATOM     13  S   UNL     1       6.916   3.520  -9.483  0.00  0.00    +0.000 S 
ATOM     14  C   UNL     1       6.846   1.831  -9.700  0.00  0.00    +0.000 A 
ATOM     15  N   UNL     1       5.855   1.247 -10.423  0.00  0.00    +0.000 NA
ATOM     16  C   UNL     1       5.931  -0.041 -10.481  0.00  0.00    +0.000 A 
ATOM     17  N   UNL     1       6.896  -0.800  -9.865  0.00  0.00    +0.000 N 
ATOM     18  C   UNL     1       7.909  -0.256  -9.109  0.00  0.00    +0.000 A 
ATOM     19  O   UNL     1       8.736  -0.950  -8.519  0.00  0.00    +0.000 OA
ATOM     20  C   UNL     1       7.894   1.193  -9.068  0.00  0.00    +0.000 A 
ATOM     21  H   UNL     1       6.867  -1.809  -9.918  0.00  0.00    +0.000 HD
ENDBRANCH  10  11
ENDBRANCH   8  10
ENDBRANCH   3   6
BRANCH   1  22
ATOM     22  C   UNL     1       8.767  -0.885  -1.235  0.00  0.00    +0.000 C 
BRANCH  22  26
ATOM     23  C   UNL     1      11.307  -0.138   2.113  0.00  0.00    +0.000 A 
ATOM     24  C   UNL     1      10.060   0.478   2.073  0.00  0.00    +0.000 A 
ATOM     25  C   UNL     1       9.223   0.251   0.981  0.00  0.00    +0.000 A 
ATOM     26  C   UNL     1       9.648  -0.588  -0.058  0.00  0.00    +0.000 A 
ATOM     27  C   UNL     1      10.903  -1.171   0.076  0.00  0.00    +0.000 A 
ATOM     28  N   UNL     1      11.729  -0.974   1.125  0.00  0.00    +0.000 NA
BRANCH  23  29
ATOM     29  C   UNL     1      12.239   0.129   3.280  0.00  0.00    +0.000 C 
BRANCH  29  30
ATOM     30  O   UNL     1      12.447   1.545   3.376  0.00  0.00    +0.000 OA
ATOM     31  H   UNL     1      13.404   1.685   3.249  0.00  0.00    +0.000 HD
ENDBRANCH  29  30
BRANCH  29  32
ATOM     32  C   UNL     1      13.590  -0.619   3.162  0.00  0.00    +0.000 C 
BRANCH  32  33
ATOM     33  N   UNL     1      14.481  -0.359   4.308  0.00  0.00    +0.000 NA
ATOM     34  H   UNL     1      15.297  -0.967   4.225  0.00  0.00    +0.000 HD
ATOM     35  H   UNL     1      14.012  -0.644   5.168  0.00  0.00    +0.000 HD
ENDBRANCH  32  33
ENDBRANCH  29  32
ENDBRANCH  23  29
ENDBRANCH  22  26
ENDBRANCH   1  22
TORSDOF 9
