REMARK  Name = 
REMARK  9 active torsions:
REMARK  status: ('A' for Active; 'I' for Inactive)
REMARK    1  A    between atoms: C_1  and  O_2
REMARK    2  A    between atoms: O_2  and  C_3
REMARK    3  A    between atoms: C_10  and  C_11
REMARK    4  A    between atoms: N_13  and  C_14
REMARK    5  A    between atoms: C_14  and  C_15
REMARK    6  A    between atoms: C_18  and  N_19
REMARK    7  A    between atoms: N_19  and  C_20
REMARK    8  A    between atoms: C_20  and  C_21
REMARK    9  A    between atoms: C_25  and  C_26
REMARK                            x       y       z     vdW  Elec       q    Type
REMARK                         _______ _______ _______ _____ _____    ______ ____
ROOT
ATOM      1  C   UNL     1       3.142  -3.172  -0.494  0.00  0.00    +0.000 C 
ENDROOT
BRANCH   1   2
ATOM      2  C   UNL     1       1.957  -3.240   0.432  0.00  0.00    +0.000 A 
ATOM      3  C   UNL     1       1.047  -4.297   0.341  0.00  0.00    +0.000 A 
ATOM      4  C   UNL     1      -0.041  -4.382   1.216  0.00  0.00    +0.000 A 
ATOM      5  C   UNL     1      -0.238  -3.424   2.214  0.00  0.00    +0.000 A 
ATOM      6  C   UNL     1       0.624  -2.321   2.244  0.00  0.00    +0.000 A 
ATOM      7  C   UNL     1       1.721  -2.233   1.376  0.00  0.00    +0.000 A 
BRANCH   5   8
ATOM      8  N   UNL     1      -1.316  -3.489   3.114  0.00  0.00    +0.000 N 
ATOM      9  H   UNL     1      -1.215  -2.783   3.839  0.00  0.00    +0.000 HD
BRANCH   8  10
ATOM     10  C   UNL     1      -1.568  -4.807   3.729  0.00  0.00    +0.000 C 
BRANCH  10  11
ATOM     11  C   UNL     1      -2.819  -5.509   3.231  0.00  0.00    +0.000 A 
ATOM     12  C   UNL     1      -3.937  -4.785   2.824  0.00  0.00    +0.000 A 
ATOM     13  C   UNL     1      -5.132  -5.459   2.597  0.00  0.00    +0.000 A 
ATOM     14  C   UNL     1      -5.177  -6.839   2.746  0.00  0.00    +0.000 A 
ATOM     15  C   UNL     1      -4.010  -7.513   3.083  0.00  0.00    +0.000 A 
ATOM     16  C   UNL     1      -3.975  -9.012   3.089  0.00  0.00    +0.000 C 
ATOM     17  N   UNL     1      -2.845  -6.867   3.344  0.00  0.00    +0.000 NA
ENDBRANCH  10  11
ENDBRANCH   8  10
ENDBRANCH   5   8
ENDBRANCH   1   2
BRANCH   1  20
ATOM     18  C   UNL     1       3.764  -2.293  -2.694  0.00  0.00    +0.000 C 
ATOM     19  O   UNL     1       4.925  -2.667  -2.560  0.00  0.00    +0.000 OA
ATOM     20  N   UNL     1       2.827  -2.467  -1.709  0.00  0.00    +0.000 N 
ATOM     21  H   UNL     1       1.852  -2.260  -1.898  0.00  0.00    +0.000 HD
BRANCH  18  29
ATOM     22  C   UNL     1       0.735  -1.973  -4.192  0.00  0.00    +0.000 A 
ATOM     23  N   UNL     1      -0.349  -1.600  -4.900  0.00  0.00    +0.000 NA
ATOM     24  C   UNL     1      -0.176  -0.714  -5.889  0.00  0.00    +0.000 A 
ATOM     25  N   UNL     1       0.965  -0.160  -6.284  0.00  0.00    +0.000 NA
ATOM     26  C   UNL     1       2.017  -0.551  -5.545  0.00  0.00    +0.000 A 
ATOM     27  S   UNL     1       3.573   0.026  -5.914  0.00  0.00    +0.000 S 
ATOM     28  C   UNL     1       4.260  -0.855  -4.630  0.00  0.00    +0.000 A 
ATOM     29  C   UNL     1       3.324  -1.560  -3.884  0.00  0.00    +0.000 A 
ATOM     30  C   UNL     1       1.997  -1.424  -4.467  0.00  0.00    +0.000 A 
BRANCH  22  32
ATOM     31  C   UNL     1      -0.755  -3.367  -3.030  0.00  0.00    +0.000 C 
ATOM     32  O   UNL     1       0.588  -2.914  -3.190  0.00  0.00    +0.000 OA
ENDBRANCH  22  32
ENDBRANCH  18  29
ENDBRANCH   1  20
TORSDOF 7
