REMARK  Name = 
REMARK  6 active torsions:
REMARK  status: ('A' for Active; 'I' for Inactive)
REMARK    1  A    between atoms: N_1  and  C_2
REMARK    2  A    between atoms: C_2  and  C_3
REMARK    3  A    between atoms: C_3  and  C_4
REMARK    4  A    between atoms: C_7  and  C_8
REMARK    5  A    between atoms: C_8  and  N_9
REMARK    6  A    between atoms: C_15  and  C_16
REMARK                            x       y       z     vdW  Elec       q    Type
REMARK                         _______ _______ _______ _____ _____    ______ ____
ROOT
ATOM      1  N   UNL     1       9.757   0.610  -0.850  0.00  0.00    +0.000 N 
ATOM      2  C   UNL     1      10.325   0.236   0.336  0.00  0.00    +0.000 A 
ATOM      3  N   UNL     1      10.543   1.274   1.113  0.00  0.00    +0.000 NA
ATOM      4  C   UNL     1      10.108   2.364   0.391  0.00  0.00    +0.000 A 
ATOM      5  C   UNL     1       9.944   3.704   0.779  0.00  0.00    +0.000 A 
ATOM      6  F   UNL     1      10.211   4.066   2.046  0.00  0.00    +0.000 F 
ATOM      7  C   UNL     1       9.411   4.618  -0.137  0.00  0.00    +0.000 A 
ATOM      8  C   UNL     1       9.172   4.228  -1.465  0.00  0.00    +0.000 A 
ATOM      9  C   UNL     1       9.354   2.905  -1.881  0.00  0.00    +0.000 A 
ATOM     10  C   UNL     1       9.745   1.986  -0.901  0.00  0.00    +0.000 A 
ENDROOT
BRANCH   7  11
ATOM     11  C   UNL     1       8.972   5.976   0.275  0.00  0.00    +0.000 C 
ATOM     12  N   UNL     1       9.419   6.462   1.472  0.00  0.00    +0.000 N 
ATOM     13  O   UNL     1       8.202   6.628  -0.416  0.00  0.00    +0.000 OA
ATOM     14  H   UNL     1       9.950   5.896   2.122  0.00  0.00    +0.000 HD
ATOM     15  H   UNL     1       8.998   7.314   1.814  0.00  0.00    +0.000 HD
ENDBRANCH   7  11
BRANCH   1  16
ATOM     16  C   UNL     1       9.015  -0.283  -1.728  0.00  0.00    +0.000 C 
BRANCH  16  20
ATOM     17  C   UNL     1       4.788   0.295  -0.872  0.00  0.00    +0.000 A 
ATOM     18  C   UNL     1       5.370   0.851  -2.017  0.00  0.00    +0.000 A 
ATOM     19  C   UNL     1       6.718   0.623  -2.319  0.00  0.00    +0.000 A 
ATOM     20  C   UNL     1       7.526  -0.145  -1.470  0.00  0.00    +0.000 A 
ATOM     21  C   UNL     1       6.946  -0.697  -0.320  0.00  0.00    +0.000 A 
ATOM     22  C   UNL     1       5.598  -0.476  -0.026  0.00  0.00    +0.000 A 
BRANCH  17  23
ATOM     23  C   UNL     1       3.356   0.569  -0.459  0.00  0.00    +0.000 C 
BRANCH  23  24
ATOM     24  C   UNL     1       2.352   0.767  -1.603  0.00  0.00    +0.000 C 
BRANCH  24  25
ATOM     25  N   UNL     1       0.993   0.942  -1.088  0.00  0.00    +0.000 NA
ATOM     26  H   UNL     1       0.356   1.103  -1.868  0.00  0.00    +0.000 HD
ATOM     27  H   UNL     1       0.951   1.782  -0.511  0.00  0.00    +0.000 HD
ENDBRANCH  24  25
ENDBRANCH  23  24
ENDBRANCH  17  23
ENDBRANCH  16  20
ENDBRANCH   1  16
TORSDOF 6
