REMARK  Name = 
REMARK  7 active torsions:
REMARK  status: ('A' for Active; 'I' for Inactive)
REMARK    1  A    between atoms: C_1  and  S_2
REMARK    2  A    between atoms: S_2  and  C_3
REMARK    3  A    between atoms: C_5  and  C_6
REMARK    4  A    between atoms: C_11  and  N_12
REMARK    5  A    between atoms: N_12  and  C_13
REMARK    6  A    between atoms: C_13  and  C_14
REMARK    7  A    between atoms: C_18  and  C_19
REMARK                            x       y       z     vdW  Elec       q    Type
REMARK                         _______ _______ _______ _____ _____    ______ ____
ROOT
ATOM      1  N   UNL     1       3.842  -1.895   1.945  0.00  0.00    +0.000 N 
ATOM      2  H   UNL     1       4.677  -2.125   2.487  0.00  0.00    +0.000 HD
ENDROOT
BRANCH   1   8
ATOM      3  C   UNL     1       3.893   0.104   3.370  0.00  0.00    +0.000 A 
ATOM      4  C   UNL     1       3.487   1.426   3.623  0.00  0.00    +0.000 A 
ATOM      5  C   UNL     1       2.639   2.104   2.736  0.00  0.00    +0.000 A 
ATOM      6  C   UNL     1       2.189   1.440   1.596  0.00  0.00    +0.000 A 
ATOM      7  C   UNL     1       2.587   0.123   1.343  0.00  0.00    +0.000 A 
ATOM      8  C   UNL     1       3.475  -0.556   2.192  0.00  0.00    +0.000 A 
BRANCH   5   9
ATOM      9  C   UNL     1       2.251   3.507   3.058  0.00  0.00    +0.000 C 
ATOM     10  N   UNL     1       1.448   4.188   2.184  0.00  0.00    +0.000 N 
ATOM     11  O   UNL     1       2.639   4.058   4.084  0.00  0.00    +0.000 OA
ATOM     12  H   UNL     1       1.092   3.832   1.312  0.00  0.00    +0.000 HD
ATOM     13  H   UNL     1       1.213   5.139   2.435  0.00  0.00    +0.000 HD
ENDBRANCH   5   9
BRANCH   3  15
ATOM     14  C   UNL     1       4.001  -1.912   5.275  0.00  0.00    +0.000 C 
ATOM     15  S   UNL     1       5.053  -0.635   4.531  0.00  0.00    +0.000 S 
ENDBRANCH   3  15
ENDBRANCH   1   8
BRANCH   1  16
ATOM     16  C   UNL     1       3.983  -2.306   0.552  0.00  0.00    +0.000 C 
BRANCH  16  17
ATOM     17  C   UNL     1       4.375  -3.761   0.473  0.00  0.00    +0.000 A 
ATOM     18  C   UNL     1       5.534  -4.153  -0.202  0.00  0.00    +0.000 A 
ATOM     19  C   UNL     1       5.844  -5.503  -0.327  0.00  0.00    +0.000 A 
ATOM     20  C   UNL     1       5.002  -6.472   0.227  0.00  0.00    +0.000 A 
ATOM     21  C   UNL     1       3.838  -6.119   0.932  0.00  0.00    +0.000 A 
ATOM     22  C   UNL     1       3.541  -4.747   1.032  0.00  0.00    +0.000 A 
BRANCH  21  23
ATOM     23  C   UNL     1       2.972  -7.137   1.564  0.00  0.00    +0.000 A 
ATOM     24  C   UNL     1       1.579  -6.994   1.654  0.00  0.00    +0.000 A 
ATOM     25  C   UNL     1       0.802  -7.961   2.295  0.00  0.00    +0.000 A 
ATOM     26  C   UNL     1       1.438  -9.068   2.825  0.00  0.00    +0.000 A 
ATOM     27  N   UNL     1       2.768  -9.264   2.760  0.00  0.00    +0.000 NA
ATOM     28  C   UNL     1       3.494  -8.298   2.141  0.00  0.00    +0.000 A 
ENDBRANCH  21  23
ENDBRANCH  16  17
ENDBRANCH   1  16
TORSDOF 6
