REMARK  Name = 
REMARK  7 active torsions:
REMARK  status: ('A' for Active; 'I' for Inactive)
REMARK    1  A    between atoms: C_2  and  C_3
REMARK    2  A    between atoms: C_6  and  C_7
REMARK    3  A    between atoms: N_9  and  C_10
REMARK    4  A    between atoms: C_10  and  C_11
REMARK    5  A    between atoms: C_14  and  C_15
REMARK    6  A    between atoms: C_15  and  N_16
REMARK    7  A    between atoms: C_17  and  C_19
REMARK                            x       y       z     vdW  Elec       q    Type
REMARK                         _______ _______ _______ _____ _____    ______ ____
ROOT
ATOM      1  C   UNL     1      10.399   0.393  -0.459  0.00  0.00    +0.000 A 
ATOM      2  C   UNL     1      11.384   1.333  -0.129  0.00  0.00    +0.000 A 
ATOM      3  C   UNL     1      12.656   0.920   0.288  0.00  0.00    +0.000 A 
ATOM      4  C   UNL     1      12.975  -0.443   0.363  0.00  0.00    +0.000 A 
ATOM      5  C   UNL     1      11.982  -1.381   0.046  0.00  0.00    +0.000 A 
ATOM      6  C   UNL     1      10.715  -0.968  -0.377  0.00  0.00    +0.000 A 
ENDROOT
BRANCH   1   7
ATOM      7  C   UNL     1       9.028   0.837  -0.890  0.00  0.00    +0.000 C 
BRANCH   7  10
ATOM      8  C   UNL     1       7.763   1.496  -2.867  0.00  0.00    +0.000 C 
ATOM      9  O   UNL     1       6.762   1.715  -2.190  0.00  0.00    +0.000 OA
ATOM     10  N   UNL     1       8.941   1.051  -2.316  0.00  0.00    +0.000 N 
ATOM     11  H   UNL     1       9.722   0.783  -2.901  0.00  0.00    +0.000 HD
BRANCH   8  15
ATOM     12  C   UNL     1       6.601   3.753  -4.625  0.00  0.00    +0.000 C 
ATOM     13  C   UNL     1       8.067   4.056  -4.943  0.00  0.00    +0.000 C 
ATOM     14  C   UNL     1       8.821   2.727  -4.820  0.00  0.00    +0.000 C 
ATOM     15  C   UNL     1       7.787   1.685  -4.382  0.00  0.00    +0.000 C 
ATOM     16  C   UNL     1       6.465   2.258  -4.903  0.00  0.00    +0.000 C 
BRANCH  12  18
ATOM     17  N   UNL     1       4.885   5.282  -6.192  0.00  0.00    +0.000 NA
ATOM     18  C   UNL     1       5.663   4.589  -5.481  0.00  0.00    +0.000 C 
ENDBRANCH  12  18
ENDBRANCH   8  15
ENDBRANCH   7  10
ENDBRANCH   1   7
BRANCH   4  19
ATOM     19  C   UNL     1      14.352  -0.907   0.774  0.00  0.00    +0.000 C 
BRANCH  19  20
ATOM     20  N   UNL     1      14.458  -1.090   2.198  0.00  0.00    +0.000 N 
ATOM     21  C   UNL     1      15.631  -1.498   2.786  0.00  0.00    +0.000 C 
ATOM     22  O   UNL     1      16.658  -1.689   2.140  0.00  0.00    +0.000 OA
ATOM     23  H   UNL     1      13.589  -1.217   2.706  0.00  0.00    +0.000 HD
BRANCH  21  24
ATOM     24  C   UNL     1      15.606  -1.634   4.248  0.00  0.00    +0.000 A 
ATOM     25  C   UNL     1      16.773  -1.479   4.986  0.00  0.00    +0.000 A 
ATOM     26  S   UNL     1      16.538  -1.632   6.671  0.00  0.00    +0.000 S 
ATOM     27  C   UNL     1      14.877  -1.957   6.465  0.00  0.00    +0.000 A 
ATOM     28  N   UNL     1      14.078  -2.212   7.533  0.00  0.00    +0.000 NA
ATOM     29  C   UNL     1      12.847  -2.458   7.231  0.00  0.00    +0.000 A 
ATOM     30  N   UNL     1      12.343  -2.464   5.956  0.00  0.00    +0.000 N 
ATOM     31  C   UNL     1      13.109  -2.188   4.850  0.00  0.00    +0.000 A 
ATOM     32  O   UNL     1      12.616  -2.156   3.727  0.00  0.00    +0.000 OA
ATOM     33  C   UNL     1      14.505  -1.921   5.137  0.00  0.00    +0.000 A 
ATOM     34  H   UNL     1      11.365  -2.645   5.783  0.00  0.00    +0.000 HD
ENDBRANCH  21  24
ENDBRANCH  19  20
ENDBRANCH   4  19
TORSDOF 7
