REMARK  Name = 
REMARK  6 active torsions:
REMARK  status: ('A' for Active; 'I' for Inactive)
REMARK    1  A    between atoms: C_2  and  C_25
REMARK    2  A    between atoms: N_3  and  C_4
REMARK    3  A    between atoms: C_4  and  C_5
REMARK    4  A    between atoms: C_8  and  C_9
REMARK    5  A    between atoms: C_9  and  N_10
REMARK    6  A    between atoms: C_11  and  C_13
REMARK                            x       y       z     vdW  Elec       q    Type
REMARK                         _______ _______ _______ _____ _____    ______ ____
ROOT
ATOM      1  C   UNL     1       3.227  -0.311  -3.635  0.00  0.00    +0.000 A 
ATOM      2  C   UNL     1       3.745   0.872  -4.179  0.00  0.00    +0.000 A 
ATOM      3  C   UNL     1       4.668   0.830  -5.229  0.00  0.00    +0.000 A 
ATOM      4  C   UNL     1       5.076  -0.396  -5.771  0.00  0.00    +0.000 A 
ATOM      5  C   UNL     1       4.568  -1.579  -5.217  0.00  0.00    +0.000 A 
ATOM      6  C   UNL     1       3.645  -1.537  -4.168  0.00  0.00    +0.000 A 
ENDROOT
BRANCH   1   7
ATOM      7  C   UNL     1       2.236  -0.266  -2.503  0.00  0.00    +0.000 C 
BRANCH   7  10
ATOM      8  O   UNL     1      -0.036  -0.232  -0.868  0.00  0.00    +0.000 OA
ATOM      9  C   UNL     1      -0.174  -0.144  -2.085  0.00  0.00    +0.000 C 
ATOM     10  N   UNL     1       0.879  -0.156  -2.969  0.00  0.00    +0.000 N 
ATOM     11  H   UNL     1       0.667  -0.046  -3.956  0.00  0.00    +0.000 HD
BRANCH   9  12
ATOM     12  C   UNL     1      -1.484  -0.015  -2.728  0.00  0.00    +0.000 A 
ATOM     13  C   UNL     1      -2.678   0.049  -2.031  0.00  0.00    +0.000 A 
ATOM     14  S   UNL     1      -3.998   0.183  -3.112  0.00  0.00    +0.000 S 
ATOM     15  C   UNL     1      -2.898   0.148  -4.427  0.00  0.00    +0.000 A 
ATOM     16  N   UNL     1      -1.623   0.050  -4.120  0.00  0.00    +0.000 NA
ENDBRANCH   9  12
ENDBRANCH   7  10
ENDBRANCH   1   7
BRANCH   4  17
ATOM     17  C   UNL     1       6.082  -0.452  -6.893  0.00  0.00    +0.000 C 
BRANCH  17  18
ATOM     18  N   UNL     1       7.422  -0.536  -6.373  0.00  0.00    +0.000 N 
ATOM     19  C   UNL     1       8.519  -0.525  -7.195  0.00  0.00    +0.000 C 
ATOM     20  O   UNL     1       8.424  -0.389  -8.411  0.00  0.00    +0.000 OA
ATOM     21  H   UNL     1       7.517  -0.886  -5.426  0.00  0.00    +0.000 HD
BRANCH  19  22
ATOM     22  C   UNL     1       9.826  -0.616  -6.528  0.00  0.00    +0.000 A 
ATOM     23  C   UNL     1      10.962  -0.136  -7.168  0.00  0.00    +0.000 A 
ATOM     24  S   UNL     1      12.375  -0.243  -6.218  0.00  0.00    +0.000 S 
ATOM     25  C   UNL     1      11.529  -0.987  -4.943  0.00  0.00    +0.000 A 
ATOM     26  N   UNL     1      12.166  -1.357  -3.800  0.00  0.00    +0.000 NA
ATOM     27  C   UNL     1      11.409  -1.935  -2.929  0.00  0.00    +0.000 A 
ATOM     28  N   UNL     1      10.070  -2.179  -3.097  0.00  0.00    +0.000 N 
ATOM     29  C   UNL     1       9.382  -1.810  -4.226  0.00  0.00    +0.000 A 
ATOM     30  O   UNL     1       8.180  -2.025  -4.337  0.00  0.00    +0.000 OA
ATOM     31  C   UNL     1      10.186  -1.147  -5.236  0.00  0.00    +0.000 A 
ATOM     32  H   UNL     1       9.532  -2.641  -2.379  0.00  0.00    +0.000 HD
ENDBRANCH  19  22
ENDBRANCH  17  18
ENDBRANCH   4  17
TORSDOF 6
