REMARK  Name = 
REMARK  9 active torsions:
REMARK  status: ('A' for Active; 'I' for Inactive)
REMARK    1  A    between atoms: C_1  and  O_2
REMARK    2  A    between atoms: O_2  and  C_3
REMARK    3  A    between atoms: C_10  and  C_11
REMARK    4  A    between atoms: N_13  and  C_14
REMARK    5  A    between atoms: C_14  and  C_15
REMARK    6  A    between atoms: C_18  and  O_19
REMARK    7  A    between atoms: O_19  and  C_20
REMARK    8  A    between atoms: C_20  and  C_21
REMARK    9  A    between atoms: C_25  and  C_26
REMARK                            x       y       z     vdW  Elec       q    Type
REMARK                         _______ _______ _______ _____ _____    ______ ____
ROOT
ATOM      1  C   UNL     1       2.785  -2.997  -1.589  0.00  0.00    +0.000 C 
ENDROOT
BRANCH   1   2
ATOM      2  C   UNL     1       1.676  -3.353  -0.633  0.00  0.00    +0.000 A 
ATOM      3  C   UNL     1       1.514  -4.666  -0.173  0.00  0.00    +0.000 A 
ATOM      4  C   UNL     1       0.520  -4.978   0.767  0.00  0.00    +0.000 A 
ATOM      5  C   UNL     1      -0.328  -3.986   1.258  0.00  0.00    +0.000 A 
ATOM      6  C   UNL     1      -0.192  -2.684   0.772  0.00  0.00    +0.000 A 
ATOM      7  C   UNL     1       0.792  -2.370  -0.171  0.00  0.00    +0.000 A 
BRANCH   5   8
ATOM      8  O   UNL     1      -1.306  -4.150   2.203  0.00  0.00    +0.000 OA
BRANCH   8   9
ATOM      9  C   UNL     1      -1.463  -5.466   2.733  0.00  0.00    +0.000 C 
BRANCH   9  10
ATOM     10  C   UNL     1      -2.509  -5.449   3.853  0.00  0.00    +0.000 C 
ATOM     11  C   UNL     1      -2.708  -6.851   4.441  0.00  0.00    +0.000 C 
ATOM     12  C   UNL     1      -3.795  -7.451   3.565  0.00  0.00    +0.000 C 
ATOM     13  N   UNL     1      -4.651  -6.319   3.274  0.00  0.00    +0.000 N 
ATOM     14  C   UNL     1      -5.992  -6.495   3.023  0.00  0.00    +0.000 C 
ATOM     15  C   UNL     1      -6.847  -5.268   2.832  0.00  0.00    +0.000 C 
ATOM     16  O   UNL     1      -6.508  -7.614   2.980  0.00  0.00    +0.000 OA
ATOM     17  C   UNL     1      -3.916  -5.063   3.374  0.00  0.00    +0.000 C 
ENDBRANCH   9  10
ENDBRANCH   8   9
ENDBRANCH   5   8
ENDBRANCH   1   2
BRANCH   1  20
ATOM     18  C   UNL     1       1.895  -2.049  -3.678  0.00  0.00    +0.000 C 
ATOM     19  O   UNL     1       1.746  -0.948  -3.149  0.00  0.00    +0.000 OA
ATOM     20  N   UNL     1       2.385  -3.113  -2.971  0.00  0.00    +0.000 N 
ATOM     21  H   UNL     1       2.493  -4.012  -3.420  0.00  0.00    +0.000 HD
BRANCH  18  29
ATOM     22  C   UNL     1       2.225  -4.714  -5.856  0.00  0.00    +0.000 A 
ATOM     23  N   UNL     1       2.265  -5.551  -6.914  0.00  0.00    +0.000 NA
ATOM     24  C   UNL     1       1.807  -5.109  -8.088  0.00  0.00    +0.000 A 
ATOM     25  N   UNL     1       1.301  -3.907  -8.345  0.00  0.00    +0.000 NA
ATOM     26  C   UNL     1       1.290  -3.100  -7.271  0.00  0.00    +0.000 A 
ATOM     27  S   UNL     1       0.676  -1.526  -7.423  0.00  0.00    +0.000 S 
ATOM     28  C   UNL     1       0.997  -1.193  -5.791  0.00  0.00    +0.000 A 
ATOM     29  C   UNL     1       1.566  -2.255  -5.096  0.00  0.00    +0.000 A 
ATOM     30  C   UNL     1       1.735  -3.402  -5.986  0.00  0.00    +0.000 A 
BRANCH  22  32
ATOM     31  C   UNL     1       2.667  -6.604  -4.560  0.00  0.00    +0.000 C 
ATOM     32  O   UNL     1       2.699  -5.179  -4.644  0.00  0.00    +0.000 OA
ENDBRANCH  22  32
ENDBRANCH  18  29
ENDBRANCH   1  20
TORSDOF 7
