REMARK  Name = 
REMARK  5 active torsions:
REMARK  status: ('A' for Active; 'I' for Inactive)
REMARK    1  A    between atoms: N_1  and  C_2
REMARK    2  A    between atoms: C_2  and  C_3
REMARK    3  A    between atoms: C_3  and  C_4
REMARK    4  A    between atoms: C_7  and  C_8
REMARK    5  A    between atoms: C_8  and  N_9
REMARK                            x       y       z     vdW  Elec       q    Type
REMARK                         _______ _______ _______ _____ _____    ______ ____
ROOT
ATOM      1  C   UNL     1       8.948   1.231  -1.083  0.00  0.00    +0.000 C 
ENDROOT
BRANCH   1   2
ATOM      2  N   UNL     1       9.610   0.438  -2.112  0.00  0.00    +0.000 N 
ATOM      3  C   UNL     1       9.904  -0.896  -1.976  0.00  0.00    +0.000 A 
ATOM      4  N   UNL     1      10.956  -1.236  -2.681  0.00  0.00    +0.000 NA
ATOM      5  C   UNL     1      11.344  -0.094  -3.343  0.00  0.00    +0.000 A 
ATOM      6  C   UNL     1      12.464   0.164  -4.149  0.00  0.00    +0.000 A 
ATOM      7  F   UNL     1      13.405  -0.771  -4.349  0.00  0.00    +0.000 F 
ATOM      8  C   UNL     1      12.615   1.433  -4.706  0.00  0.00    +0.000 A 
ATOM      9  F   UNL     1      13.706   1.718  -5.433  0.00  0.00    +0.000 F 
ATOM     10  C   UNL     1      11.661   2.430  -4.513  0.00  0.00    +0.000 A 
ATOM     11  C   UNL     1      10.547   2.207  -3.697  0.00  0.00    +0.000 A 
ATOM     12  C   UNL     1      10.441   0.947  -3.090  0.00  0.00    +0.000 A 
ENDBRANCH   1   2
BRANCH   1  16
ATOM     13  C   UNL     1       4.623   1.064  -0.843  0.00  0.00    +0.000 A 
ATOM     14  C   UNL     1       5.416   0.198  -0.081  0.00  0.00    +0.000 A 
ATOM     15  C   UNL     1       6.812   0.230  -0.184  0.00  0.00    +0.000 A 
ATOM     16  C   UNL     1       7.449   1.120  -1.059  0.00  0.00    +0.000 A 
ATOM     17  C   UNL     1       6.659   1.966  -1.843  0.00  0.00    +0.000 A 
ATOM     18  C   UNL     1       5.265   1.938  -1.735  0.00  0.00    +0.000 A 
BRANCH  13  19
ATOM     19  C   UNL     1       3.108   1.044  -0.811  0.00  0.00    +0.000 C 
BRANCH  19  20
ATOM     20  C   UNL     1       2.454   0.680   0.529  0.00  0.00    +0.000 C 
BRANCH  20  21
ATOM     21  N   UNL     1       0.996   0.747   0.429  0.00  0.00    +0.000 NA
ATOM     22  H   UNL     1       0.582   0.477   1.323  0.00  0.00    +0.000 HD
ATOM     23  H   UNL     1       0.664   0.065  -0.253  0.00  0.00    +0.000 HD
ENDBRANCH  20  21
ENDBRANCH  19  20
ENDBRANCH  13  19
ENDBRANCH   1  16
TORSDOF 5
