REMARK  Name = 
REMARK  7 active torsions:
REMARK  status: ('A' for Active; 'I' for Inactive)
REMARK    1  A    between atoms: C_1  and  C_2
REMARK    2  A    between atoms: C_2  and  C_3
REMARK    3  A    between atoms: C_2  and  C_14
REMARK    4  A    between atoms: C_3  and  N_4
REMARK    5  A    between atoms: N_4  and  C_5
REMARK    6  A    between atoms: C_8  and  C_9
REMARK    7  A    between atoms: N_22  and  C_23
REMARK                            x       y       z     vdW  Elec       q    Type
REMARK                         _______ _______ _______ _____ _____    ______ ____
ROOT
ATOM      1  C   UNL     1       1.035   0.496  -0.255  0.00  0.00    +0.000 C 
ATOM      2  C   UNL     1       2.452   0.029   0.093  0.00  0.00    +0.000 C 
ENDROOT
BRANCH   2   3
ATOM      3  C   UNL     1       2.956  -0.861  -1.034  0.00  0.00    +0.000 A 
ATOM      4  C   UNL     1       3.660  -0.312  -2.083  0.00  0.00    +0.000 A 
ATOM      5  C   UNL     1       4.016  -1.181  -3.081  0.00  0.00    +0.000 A 
ATOM      6  N   UNL     1       3.708  -2.487  -3.076  0.00  0.00    +0.000 NA
ATOM      7  C   UNL     1       2.993  -2.956  -2.041  0.00  0.00    +0.000 A 
ATOM      8  N   UNL     1       2.671  -4.308  -2.004  0.00  0.00    +0.000 N 
ATOM      9  C   UNL     1       1.409  -4.617  -1.321  0.00  0.00    +0.000 C 
ATOM     10  C   UNL     1       1.288  -6.144  -1.111  0.00  0.00    +0.000 C 
ATOM     11  N   UNL     1       1.413  -6.911  -2.373  0.00  0.00    +0.000 NA
ATOM     12  C   UNL     1       1.359  -8.346  -2.103  0.00  0.00    +0.000 C 
ATOM     13  C   UNL     1       2.689  -6.553  -3.033  0.00  0.00    +0.000 C 
ATOM     14  C   UNL     1       2.836  -5.032  -3.273  0.00  0.00    +0.000 C 
ATOM     15  N   UNL     1       2.613  -2.168  -1.015  0.00  0.00    +0.000 NA
ENDBRANCH   2   3
BRANCH   2  16
ATOM     16  C   UNL     1       2.525  -0.687   1.462  0.00  0.00    +0.000 C 
BRANCH  16  17
ATOM     17  N   UNL     1       2.112   0.205   2.563  0.00  0.00    +0.000 N 
ATOM     18  H   UNL     1       1.217   0.653   2.379  0.00  0.00    +0.000 HD
BRANCH  17  19
ATOM     19  C   UNL     1       2.140  -0.295   3.875  0.00  0.00    +0.000 A 
ATOM     20  C   UNL     1       3.055  -1.252   4.313  0.00  0.00    +0.000 A 
ATOM     21  C   UNL     1       3.102  -1.631   5.656  0.00  0.00    +0.000 A 
ATOM     22  C   UNL     1       2.237  -1.017   6.546  0.00  0.00    +0.000 A 
ATOM     23  N   UNL     1       1.337  -0.063   6.188  0.00  0.00    +0.000 NA
ATOM     24  C   UNL     1       1.334   0.276   4.873  0.00  0.00    +0.000 A 
BRANCH  22  25
ATOM     25  C   UNL     1       2.297  -1.384   8.000  0.00  0.00    +0.000 C 
ATOM     26  N   UNL     1       1.414  -0.732   8.812  0.00  0.00    +0.000 N 
ATOM     27  O   UNL     1       3.090  -2.206   8.439  0.00  0.00    +0.000 OA
ATOM     28  H   UNL     1       0.793  -0.034   8.418  0.00  0.00    +0.000 HD
ATOM     29  H   UNL     1       1.431  -0.905   9.806  0.00  0.00    +0.000 HD
ENDBRANCH  22  25
ENDBRANCH  17  19
ENDBRANCH  16  17
ENDBRANCH   2  16
TORSDOF 5
