REMARK  Name = 
REMARK  9 active torsions:
REMARK  status: ('A' for Active; 'I' for Inactive)
REMARK    1  A    between atoms: C_1  and  C_2
REMARK    2  A    between atoms: C_2  and  C_3
REMARK    3  A    between atoms: C_3  and  N_4
REMARK    4  A    between atoms: C_10  and  C_11
REMARK    5  A    between atoms: N_13  and  C_14
REMARK    6  A    between atoms: C_14  and  C_15
REMARK    7  A    between atoms: C_18  and  C_19
REMARK    8  A    between atoms: C_19  and  N_20
REMARK    9  A    between atoms: C_21  and  C_23
REMARK                            x       y       z     vdW  Elec       q    Type
REMARK                         _______ _______ _______ _____ _____    ______ ____
ROOT
ATOM      1  C   UNL     1       8.212  -6.064  -1.455  0.00  0.00    +0.000 C 
ENDROOT
BRANCH   1   2
ATOM      2  C   UNL     1       9.527  -6.768  -1.688  0.00  0.00    +0.000 A 
ATOM      3  C   UNL     1      10.054  -7.608  -0.698  0.00  0.00    +0.000 A 
ATOM      4  C   UNL     1      11.273  -8.275  -0.890  0.00  0.00    +0.000 A 
ATOM      5  C   UNL     1      12.006  -8.090  -2.072  0.00  0.00    +0.000 A 
ATOM      6  C   UNL     1      11.480  -7.241  -3.055  0.00  0.00    +0.000 A 
ATOM      7  C   UNL     1      10.250  -6.596  -2.872  0.00  0.00    +0.000 A 
BRANCH   5   8
ATOM      8  C   UNL     1      13.333  -8.770  -2.312  0.00  0.00    +0.000 C 
BRANCH   8   9
ATOM      9  N   UNL     1      13.191 -10.055  -2.951  0.00  0.00    +0.000 N 
ATOM     10  C   UNL     1      14.287 -10.824  -3.281  0.00  0.00    +0.000 C 
ATOM     11  O   UNL     1      15.440 -10.462  -3.088  0.00  0.00    +0.000 OA
ATOM     12  H   UNL     1      12.266 -10.440  -3.046  0.00  0.00    +0.000 HD
BRANCH  10  13
ATOM     13  C   UNL     1      13.957 -12.103  -3.858  0.00  0.00    +0.000 A 
ATOM     14  C   UNL     1      12.751 -12.710  -4.149  0.00  0.00    +0.000 A 
ATOM     15  N   UNL     1      12.930 -13.969  -4.651  0.00  0.00    +0.000 NA
ATOM     16  C   UNL     1      14.231 -14.139  -4.695  0.00  0.00    +0.000 A 
ATOM     17  N   UNL     1      14.894 -13.032  -4.251  0.00  0.00    +0.000 N 
ATOM     18  H   UNL     1      15.898 -12.913  -4.194  0.00  0.00    +0.000 HD
ENDBRANCH  10  13
ENDBRANCH   8   9
ENDBRANCH   5   8
ENDBRANCH   1   2
BRANCH   1  21
ATOM     19  C   UNL     1       7.293  -3.996  -0.516  0.00  0.00    +0.000 C 
ATOM     20  O   UNL     1       6.138  -4.329  -0.797  0.00  0.00    +0.000 OA
ATOM     21  N   UNL     1       8.385  -4.762  -0.860  0.00  0.00    +0.000 N 
ATOM     22  H   UNL     1       9.270  -4.587  -0.394  0.00  0.00    +0.000 HD
BRANCH  19  29
ATOM     23  N   UNL     1      10.639  -2.629   2.406  0.00  0.00    +0.000 N 
ATOM     24  C   UNL     1      10.475  -1.308   2.769  0.00  0.00    +0.000 A 
ATOM     25  N   UNL     1       9.520  -0.529   2.375  0.00  0.00    +0.000 NA
ATOM     26  C   UNL     1       8.631  -1.120   1.529  0.00  0.00    +0.000 A 
ATOM     27  S   UNL     1       7.312  -0.254   0.903  0.00  0.00    +0.000 S 
ATOM     28  C   UNL     1       6.764  -1.617   0.026  0.00  0.00    +0.000 A 
ATOM     29  C   UNL     1       7.580  -2.731   0.172  0.00  0.00    +0.000 A 
ATOM     30  C   UNL     1       8.662  -2.421   1.076  0.00  0.00    +0.000 A 
ATOM     31  C   UNL     1       9.728  -3.267   1.576  0.00  0.00    +0.000 A 
ATOM     32  O   UNL     1       9.820  -4.454   1.266  0.00  0.00    +0.000 OA
BRANCH  23  33
ATOM     33  C   UNL     1      11.767  -3.397   2.918  0.00  0.00    +0.000 C 
BRANCH  33  35
ATOM     34  C   UNL     1      13.309  -2.710   1.039  0.00  0.00    +0.000 C 
ATOM     35  C   UNL     1      12.717  -3.876   1.815  0.00  0.00    +0.000 C 
ENDBRANCH  33  35
ENDBRANCH  23  33
ENDBRANCH  19  29
ENDBRANCH   1  21
TORSDOF 8
