REMARK  Name = 
REMARK  4 active torsions:
REMARK  status: ('A' for Active; 'I' for Inactive)
REMARK    1  A    between atoms: C_2  and  C_4
REMARK    2  A    between atoms: C_7  and  C_8
REMARK    3  A    between atoms: C_8  and  C_9
REMARK    4  A    between atoms: C_9  and  C_10
REMARK                            x       y       z     vdW  Elec       q    Type
REMARK                         _______ _______ _______ _____ _____    ______ ____
ROOT
ATOM      1  C   UNL     1       4.097   0.556  -1.498  0.00  0.00    +0.000 A 
ATOM      2  C   UNL     1       5.450   0.275  -1.684  0.00  0.00    +0.000 A 
ATOM      3  C   UNL     1       5.821  -0.921  -2.298  0.00  0.00    +0.000 A 
ATOM      4  C   UNL     1       4.828  -1.813  -2.704  0.00  0.00    +0.000 A 
ATOM      5  N   UNL     1       3.512  -1.575  -2.478  0.00  0.00    +0.000 NA
ATOM      6  C   UNL     1       3.175  -0.400  -1.889  0.00  0.00    +0.000 A 
ENDROOT
BRANCH   1   8
ATOM      7  N   UNL     1       4.409   2.917  -1.041  0.00  0.00    +0.000 N 
ATOM      8  C   UNL     1       3.609   1.817  -0.901  0.00  0.00    +0.000 C 
ATOM      9  O   UNL     1       2.522   1.889  -0.351  0.00  0.00    +0.000 OA
ATOM     10  H   UNL     1       4.013   3.799  -0.738  0.00  0.00    +0.000 HD
ATOM     11  H   UNL     1       5.172   2.954  -1.702  0.00  0.00    +0.000 HD
ENDBRANCH   1   8
BRANCH   4  12
ATOM     12  C   UNL     1       5.205  -3.143  -3.322  0.00  0.00    +0.000 C 
BRANCH  12  13
ATOM     13  C   UNL     1       4.862  -3.366  -4.803  0.00  0.00    +0.000 C 
ATOM     14  C   UNL     1       4.925  -2.189  -5.766  0.00  0.00    +0.000 C 
ATOM     15  C   UNL     1       3.594  -2.786  -5.413  0.00  0.00    +0.000 C 
BRANCH  13  16
ATOM     16  C   UNL     1       5.267  -4.746  -5.354  0.00  0.00    +0.000 C 
ATOM     17  C   UNL     1       4.693  -5.906  -4.529  0.00  0.00    +0.000 C 
ATOM     18  C   UNL     1       5.134  -7.242  -5.107  0.00  0.00    +0.000 C 
ATOM     19  O   UNL     1       6.558  -7.312  -5.181  0.00  0.00    +0.000 OA
ATOM     20  C   UNL     1       7.106  -6.305  -6.031  0.00  0.00    +0.000 C 
ATOM     21  C   UNL     1       6.784  -4.912  -5.498  0.00  0.00    +0.000 C 
ENDBRANCH  13  16
ENDBRANCH  12  13
ENDBRANCH   4  12
TORSDOF 4
