REMARK  Name = 
REMARK  7 active torsions:
REMARK  status: ('A' for Active; 'I' for Inactive)
REMARK    1  A    between atoms: C_2  and  C_4
REMARK    2  A    between atoms: C_7  and  N_8
REMARK    3  A    between atoms: N_8  and  C_9
REMARK    4  A    between atoms: C_9  and  C_10
REMARK    5  A    between atoms: C_10  and  C_11
REMARK    6  A    between atoms: C_16  and  O_17
REMARK    7  A    between atoms: O_17  and  C_18
REMARK                            x       y       z     vdW  Elec       q    Type
REMARK                         _______ _______ _______ _____ _____    ______ ____
ROOT
ATOM      1  C   UNL     1       3.094   0.005   1.325  0.00  0.00    +0.000 A 
ATOM      2  C   UNL     1       2.821  -0.637   2.550  0.00  0.00    +0.000 A 
ATOM      3  C   UNL     1       3.618  -0.425   3.677  0.00  0.00    +0.000 A 
ATOM      4  C   UNL     1       4.697   0.450   3.622  0.00  0.00    +0.000 A 
ATOM      5  C   UNL     1       4.990   1.051   2.396  0.00  0.00    +0.000 A 
ATOM      6  C   UNL     1       4.191   0.883   1.254  0.00  0.00    +0.000 A 
ENDROOT
BRANCH   1   8
ATOM      7  N   UNL     1       2.454   0.152  -1.034  0.00  0.00    +0.000 N 
ATOM      8  C   UNL     1       2.174  -0.341   0.203  0.00  0.00    +0.000 C 
ATOM      9  O   UNL     1       1.198  -1.067   0.363  0.00  0.00    +0.000 OA
ATOM     10  H   UNL     1       1.854  -0.122  -1.801  0.00  0.00    +0.000 HD
ATOM     11  H   UNL     1       3.254   0.734  -1.207  0.00  0.00    +0.000 HD
ENDBRANCH   1   8
BRANCH   4  12
ATOM     12  N   UNL     1       5.495   0.611   4.765  0.00  0.00    +0.000 N 
ATOM     13  H   UNL     1       6.102  -0.205   4.855  0.00  0.00    +0.000 HD
BRANCH  12  14
ATOM     14  C   UNL     1       6.246   1.856   4.929  0.00  0.00    +0.000 C 
BRANCH  14  15
ATOM     15  C   UNL     1       5.297   3.040   5.137  0.00  0.00    +0.000 C 
BRANCH  15  16
ATOM     16  C   UNL     1       6.082   4.329   5.317  0.00  0.00    +0.000 C 
ATOM     17  C   UNL     1       5.231   5.599   5.445  0.00  0.00    +0.000 C 
ATOM     18  O   UNL     1       6.004   6.263   4.415  0.00  0.00    +0.000 OA
ATOM     19  C   UNL     1       6.635   5.012   4.059  0.00  0.00    +0.000 C 
ENDBRANCH  15  16
ENDBRANCH  14  15
ENDBRANCH  12  14
ENDBRANCH   4  12
BRANCH   6  20
ATOM     20  O   UNL     1       4.498   1.543   0.075  0.00  0.00    +0.000 OA
BRANCH  20  21
ATOM     21  C   UNL     1       5.282   2.769   0.158  0.00  0.00    +0.000 C 
ATOM     22  C   UNL     1       4.541   4.027   0.665  0.00  0.00    +0.000 C 
ATOM     23  C   UNL     1       5.144   4.831  -0.491  0.00  0.00    +0.000 C 
ATOM     24  C   UNL     1       5.547   3.510  -1.167  0.00  0.00    +0.000 C 
ENDBRANCH  20  21
ENDBRANCH   6  20
TORSDOF 7
