REMARK  Name = 
REMARK  5 active torsions:
REMARK  status: ('A' for Active; 'I' for Inactive)
REMARK    1  A    between atoms: C_2  and  C_4
REMARK    2  A    between atoms: N_8  and  C_9
REMARK    3  A    between atoms: C_9  and  C_10
REMARK    4  A    between atoms: C_10  and  C_13
REMARK    5  A    between atoms: C_17  and  C_18
REMARK                            x       y       z     vdW  Elec       q    Type
REMARK                         _______ _______ _______ _____ _____    ______ ____
ROOT
ATOM      1  C   UNL     1       5.589   4.741  -5.621  0.00  0.00    +0.000 C 
ATOM      2  F   UNL     1       6.922   4.659  -5.339  0.00  0.00    +0.000 F 
ATOM      3  F   UNL     1       5.386   3.904  -6.680  0.00  0.00    +0.000 F 
ENDROOT
BRANCH   1   4
ATOM      4  C   UNL     1       5.151   6.165  -5.913  0.00  0.00    +0.000 A 
ATOM      5  C   UNL     1       4.118   6.426  -6.820  0.00  0.00    +0.000 A 
ATOM      6  C   UNL     1       3.655   7.726  -6.995  0.00  0.00    +0.000 A 
ATOM      7  C   UNL     1       4.202   8.772  -6.246  0.00  0.00    +0.000 A 
ATOM      8  C   UNL     1       5.214   8.547  -5.296  0.00  0.00    +0.000 A 
ATOM      9  C   UNL     1       5.699   7.232  -5.175  0.00  0.00    +0.000 A 
BRANCH   8  10
ATOM     10  C   UNL     1       5.673   9.616  -4.377  0.00  0.00    +0.000 A 
ATOM     11  C   UNL     1       4.772  10.592  -3.904  0.00  0.00    +0.000 A 
ATOM     12  C   UNL     1       5.151  11.538  -2.949  0.00  0.00    +0.000 A 
ATOM     13  C   UNL     1       6.442  11.519  -2.447  0.00  0.00    +0.000 A 
ATOM     14  F   UNL     1       6.797  12.400  -1.503  0.00  0.00    +0.000 F 
ATOM     15  C   UNL     1       7.367  10.590  -2.902  0.00  0.00    +0.000 A 
ATOM     16  C   UNL     1       6.988   9.652  -3.869  0.00  0.00    +0.000 A 
ENDBRANCH   8  10
ENDBRANCH   1   4
BRANCH   1  17
ATOM     17  C   UNL     1       4.784   4.221  -4.404  0.00  0.00    +0.000 C 
BRANCH  17  22
ATOM     18  C   UNL     1       3.184   0.732  -1.008  0.00  0.00    +0.000 A 
ATOM     19  C   UNL     1       2.846   2.069  -1.180  0.00  0.00    +0.000 A 
ATOM     20  C   UNL     1       3.480   2.798  -2.185  0.00  0.00    +0.000 A 
ATOM     21  C   UNL     1       4.433   2.190  -2.999  0.00  0.00    +0.000 A 
ATOM     22  N   UNL     1       5.080   2.848  -4.011  0.00  0.00    +0.000 N 
ATOM     23  N   UNL     1       4.781   0.902  -2.822  0.00  0.00    +0.000 NA
ATOM     24  C   UNL     1       4.167   0.203  -1.829  0.00  0.00    +0.000 A 
ATOM     25  H   UNL     1       5.734   2.288  -4.546  0.00  0.00    +0.000 HD
BRANCH  18  27
ATOM     26  N   UNL     1       1.268   0.205   0.384  0.00  0.00    +0.000 N 
ATOM     27  C   UNL     1       2.546  -0.117   0.017  0.00  0.00    +0.000 C 
ATOM     28  O   UNL     1       3.119  -1.089   0.492  0.00  0.00    +0.000 OA
ATOM     29  H   UNL     1       0.802  -0.443   1.007  0.00  0.00    +0.000 HD
ATOM     30  H   UNL     1       0.688   0.824  -0.163  0.00  0.00    +0.000 HD
ENDBRANCH  18  27
ENDBRANCH  17  22
ENDBRANCH   1  17
TORSDOF 5
