REMARK  Name = 
REMARK  8 active torsions:
REMARK  status: ('A' for Active; 'I' for Inactive)
REMARK    1  A    between atoms: C_1  and  N_2
REMARK    2  A    between atoms: C_6  and  C_7
REMARK    3  A    between atoms: N_9  and  C_10
REMARK    4  A    between atoms: C_10  and  C_11
REMARK    5  A    between atoms: C_10  and  C_13
REMARK    6  A    between atoms: C_16  and  C_17
REMARK    7  A    between atoms: C_17  and  N_18
REMARK    8  A    between atoms: C_19  and  C_21
REMARK                            x       y       z     vdW  Elec       q    Type
REMARK                         _______ _______ _______ _____ _____    ______ ____
ROOT
ATOM      1  C   UNL     1      -3.629  -4.479   0.227  0.00  0.00    +0.000 A 
ATOM      2  C   UNL     1      -4.243  -5.734   0.212  0.00  0.00    +0.000 A 
ATOM      3  C   UNL     1      -5.634  -5.814   0.253  0.00  0.00    +0.000 A 
ATOM      4  C   UNL     1      -6.402  -4.650   0.282  0.00  0.00    +0.000 A 
ATOM      5  C   UNL     1      -5.713  -3.443   0.308  0.00  0.00    +0.000 A 
ATOM      6  N   UNL     1      -4.359  -3.327   0.285  0.00  0.00    +0.000 NA
ENDROOT
BRANCH   1   7
ATOM      7  C   UNL     1      -2.100  -4.372   0.151  0.00  0.00    +0.000 C 
BRANCH   7  10
ATOM      8  C   UNL     1      -0.502  -2.591  -0.505  0.00  0.00    +0.000 C 
ATOM      9  O   UNL     1       0.214  -3.405  -1.078  0.00  0.00    +0.000 OA
ATOM     10  N   UNL     1      -1.673  -2.977   0.095  0.00  0.00    +0.000 N 
ATOM     11  H   UNL     1      -2.289  -2.313   0.543  0.00  0.00    +0.000 HD
BRANCH   8  17
ATOM     12  C   UNL     1       1.974  -1.185  -1.733  0.00  0.00    +0.000 C 
ATOM     13  N   UNL     1       0.913  -0.571  -0.964  0.00  0.00    +0.000 N 
ATOM     14  N   UNL     1       0.974   0.757  -0.734  0.00  0.00    +0.000 NA
ATOM     15  C   UNL     1      -0.111   1.007  -0.007  0.00  0.00    +0.000 A 
ATOM     16  C   UNL     1      -0.871  -0.147   0.223  0.00  0.00    +0.000 A 
ATOM     17  C   UNL     1      -0.195  -1.180  -0.409  0.00  0.00    +0.000 A 
ENDBRANCH   8  17
ENDBRANCH   7  10
BRANCH   7  18
ATOM     18  C   UNL     1      -1.466  -5.060   1.301  0.00  0.00    +0.000 C 
ATOM     19  N   UNL     1      -0.983  -5.614   2.201  0.00  0.00    +0.000 NA
ENDBRANCH   7  18
ENDBRANCH   1   7
BRANCH   4  20
ATOM     20  C   UNL     1      -7.904  -4.706   0.296  0.00  0.00    +0.000 C 
BRANCH  20  21
ATOM     21  N   UNL     1      -8.444  -4.679   1.634  0.00  0.00    +0.000 N 
ATOM     22  C   UNL     1      -8.636  -5.817   2.377  0.00  0.00    +0.000 C 
ATOM     23  O   UNL     1      -8.328  -6.930   1.959  0.00  0.00    +0.000 OA
ATOM     24  H   UNL     1      -8.850  -3.806   1.951  0.00  0.00    +0.000 HD
BRANCH  22  25
ATOM     25  C   UNL     1      -9.189  -5.632   3.726  0.00  0.00    +0.000 A 
ATOM     26  C   UNL     1      -8.968  -6.601   4.696  0.00  0.00    +0.000 A 
ATOM     27  S   UNL     1      -9.654  -6.224   6.210  0.00  0.00    +0.000 S 
ATOM     28  C   UNL     1     -10.311  -4.773   5.613  0.00  0.00    +0.000 A 
ATOM     29  N   UNL     1     -11.058  -3.964   6.411  0.00  0.00    +0.000 NA
ATOM     30  C   UNL     1     -11.525  -2.915   5.821  0.00  0.00    +0.000 A 
ATOM     31  N   UNL     1     -11.304  -2.596   4.506  0.00  0.00    +0.000 N 
ATOM     32  C   UNL     1     -10.511  -3.355   3.677  0.00  0.00    +0.000 A 
ATOM     33  O   UNL     1     -10.254  -2.993   2.532  0.00  0.00    +0.000 OA
ATOM     34  C   UNL     1      -9.990  -4.566   4.283  0.00  0.00    +0.000 A 
ATOM     35  H   UNL     1     -11.681  -1.746   4.113  0.00  0.00    +0.000 HD
ENDBRANCH  22  25
ENDBRANCH  20  21
ENDBRANCH   4  20
TORSDOF 7
