REMARK  Name = 
REMARK  5 active torsions:
REMARK  status: ('A' for Active; 'I' for Inactive)
REMARK    1  A    between atoms: C_2  and  C_4
REMARK    2  A    between atoms: C_7  and  O_8
REMARK    3  A    between atoms: O_8  and  C_9
REMARK    4  A    between atoms: C_9  and  C_10
REMARK    5  A    between atoms: C_14  and  C_15
REMARK                            x       y       z     vdW  Elec       q    Type
REMARK                         _______ _______ _______ _____ _____    ______ ____
ROOT
ATOM      1  C   UNL     1       5.849   4.206   5.719  0.00  0.00    +0.000 A 
ATOM      2  C   UNL     1       5.693   5.590   5.583  0.00  0.00    +0.000 A 
ATOM      3  C   UNL     1       6.407   6.459   6.401  0.00  0.00    +0.000 A 
ATOM      4  C   UNL     1       7.261   5.956   7.375  0.00  0.00    +0.000 A 
ATOM      5  C   UNL     1       7.429   4.570   7.553  0.00  0.00    +0.000 A 
ATOM      6  C   UNL     1       6.749   3.714   6.672  0.00  0.00    +0.000 A 
ENDROOT
BRANCH   5   7
ATOM      7  C   UNL     1       8.246   4.034   8.659  0.00  0.00    +0.000 A 
ATOM      8  C   UNL     1       8.946   2.819   8.532  0.00  0.00    +0.000 A 
ATOM      9  C   UNL     1       9.750   2.331   9.563  0.00  0.00    +0.000 A 
ATOM     10  C   UNL     1       9.868   3.061  10.736  0.00  0.00    +0.000 A 
ATOM     11  F   UNL     1      10.680   2.615  11.709  0.00  0.00    +0.000 F 
ATOM     12  C   UNL     1       9.170   4.243  10.901  0.00  0.00    +0.000 A 
ATOM     13  F   UNL     1       9.292   4.955  12.031  0.00  0.00    +0.000 F 
ATOM     14  C   UNL     1       8.347   4.722   9.887  0.00  0.00    +0.000 A 
ENDBRANCH   5   7
BRANCH   1  15
ATOM     15  C   UNL     1       4.978   3.253   4.944  0.00  0.00    +0.000 C 
BRANCH  15  16
ATOM     16  O   UNL     1       5.538   2.944   3.672  0.00  0.00    +0.000 OA
BRANCH  16  20
ATOM     17  C   UNL     1       3.471   0.305   1.173  0.00  0.00    +0.000 A 
ATOM     18  C   UNL     1       2.916   0.625   2.414  0.00  0.00    +0.000 A 
ATOM     19  C   UNL     1       3.576   1.508   3.272  0.00  0.00    +0.000 A 
ATOM     20  C   UNL     1       4.797   2.082   2.901  0.00  0.00    +0.000 A 
ATOM     21  C   UNL     1       5.345   1.767   1.656  0.00  0.00    +0.000 A 
ATOM     22  C   UNL     1       4.688   0.881   0.793  0.00  0.00    +0.000 A 
BRANCH  17  24
ATOM     23  N   UNL     1       1.478  -0.852   0.386  0.00  0.00    +0.000 N 
ATOM     24  C   UNL     1       2.832  -0.702   0.285  0.00  0.00    +0.000 C 
ATOM     25  O   UNL     1       3.487  -1.369  -0.501  0.00  0.00    +0.000 OA
ATOM     26  H   UNL     1       1.045  -1.518  -0.243  0.00  0.00    +0.000 HD
ATOM     27  H   UNL     1       0.878  -0.194   0.863  0.00  0.00    +0.000 HD
ENDBRANCH  17  24
ENDBRANCH  16  20
ENDBRANCH  15  16
ENDBRANCH   1  15
TORSDOF 5
