REMARK  Name = 
REMARK  7 active torsions:
REMARK  status: ('A' for Active; 'I' for Inactive)
REMARK    1  A    between atoms: C_2  and  C_4
REMARK    2  A    between atoms: N_8  and  C_9
REMARK    3  A    between atoms: C_9  and  C_10
REMARK    4  A    between atoms: C_10  and  C_11
REMARK    5  A    between atoms: C_15  and  C_16
REMARK    6  A    between atoms: C_16  and  C_18
REMARK    7  A    between atoms: C_16  and  C_20
REMARK                            x       y       z     vdW  Elec       q    Type
REMARK                         _______ _______ _______ _____ _____    ______ ____
ROOT
ATOM      1  C   UNL     1       6.114  -6.369  -2.574  0.00  0.00    +0.000 C 
ENDROOT
BRANCH   1   2
ATOM      2  C   UNL     1       5.869  -7.325  -3.716  0.00  0.00    +0.000 A 
ATOM      3  C   UNL     1       6.395  -8.619  -3.674  0.00  0.00    +0.000 A 
ATOM      4  C   UNL     1       6.131  -9.513  -4.707  0.00  0.00    +0.000 A 
ATOM      5  C   UNL     1       5.330  -9.130  -5.786  0.00  0.00    +0.000 A 
ATOM      6  C   UNL     1       4.795  -7.834  -5.868  0.00  0.00    +0.000 A 
ATOM      7  C   UNL     1       5.106  -6.934  -4.829  0.00  0.00    +0.000 A 
BRANCH   6   8
ATOM      8  C   UNL     1       3.897  -7.373  -7.018  0.00  0.00    +0.000 C 
ATOM      9  F   UNL     1       4.106  -6.036  -7.273  0.00  0.00    +0.000 F 
BRANCH   8  10
ATOM     10  C   UNL     1       2.400  -7.497  -6.704  0.00  0.00    +0.000 C 
ATOM     11  C   UNL     1       1.785  -6.759  -5.502  0.00  0.00    +0.000 C 
ATOM     12  N   UNL     1       1.028  -7.966  -5.148  0.00  0.00    +0.000 NA
ATOM     13  C   UNL     1       1.808  -8.780  -6.091  0.00  0.00    +0.000 C 
ATOM     14  H   UNL     1       0.033  -7.912  -5.363  0.00  0.00    +0.000 HD
ENDBRANCH   8  10
BRANCH   8  15
ATOM     15  C   UNL     1       4.169  -8.085  -8.356  0.00  0.00    +0.000 C 
ATOM     16  F   UNL     1       3.811  -9.397  -8.303  0.00  0.00    +0.000 F 
ENDBRANCH   8  15
ENDBRANCH   6   8
ENDBRANCH   1   2
BRANCH   1  17
ATOM     17  C   UNL     1       7.418  -5.586  -2.742  0.00  0.00    +0.000 C 
BRANCH  17  22
ATOM     18  C   UNL     1      10.863  -2.148  -1.264  0.00  0.00    +0.000 A 
ATOM     19  C   UNL     1      10.427  -2.468  -2.545  0.00  0.00    +0.000 A 
ATOM     20  C   UNL     1       9.339  -3.325  -2.699  0.00  0.00    +0.000 A 
ATOM     21  C   UNL     1       8.718  -3.863  -1.575  0.00  0.00    +0.000 A 
ATOM     22  N   UNL     1       7.579  -4.644  -1.644  0.00  0.00    +0.000 N 
ATOM     23  N   UNL     1       9.157  -3.591  -0.331  0.00  0.00    +0.000 NA
ATOM     24  C   UNL     1      10.217  -2.750  -0.196  0.00  0.00    +0.000 A 
ATOM     25  H   UNL     1       7.423  -5.018  -0.708  0.00  0.00    +0.000 HD
BRANCH  18  27
ATOM     26  N   UNL     1      12.204  -0.247  -1.957  0.00  0.00    +0.000 N 
ATOM     27  C   UNL     1      11.965  -1.202  -1.007  0.00  0.00    +0.000 C 
ATOM     28  O   UNL     1      12.613  -1.238   0.031  0.00  0.00    +0.000 OA
ATOM     29  H   UNL     1      12.881   0.466  -1.716  0.00  0.00    +0.000 HD
ATOM     30  H   UNL     1      11.537  -0.026  -2.683  0.00  0.00    +0.000 HD
ENDBRANCH  18  27
ENDBRANCH  17  22
ENDBRANCH   1  17
TORSDOF 7
