REMARK  Name = 
REMARK  6 active torsions:
REMARK  status: ('A' for Active; 'I' for Inactive)
REMARK    1  A    between atoms: C_1  and  C_2
REMARK    2  A    between atoms: C_4  and  C_5
REMARK    3  A    between atoms: C_10  and  N_11
REMARK    4  A    between atoms: N_11  and  C_12
REMARK    5  A    between atoms: C_12  and  C_13
REMARK    6  A    between atoms: C_16  and  C_17
REMARK                            x       y       z     vdW  Elec       q    Type
REMARK                         _______ _______ _______ _____ _____    ______ ____
ROOT
ATOM      1  N   UNL     1       1.021  -2.003   0.252  0.00  0.00    +0.000 N 
ATOM      2  H   UNL     1       0.896  -1.116  -0.228  0.00  0.00    +0.000 HD
ENDROOT
BRANCH   1   9
ATOM      3  C   UNL     1       0.761  -4.336   2.286  0.00  0.00    +0.000 C 
ATOM      4  C   UNL     1      -0.103  -3.122   2.186  0.00  0.00    +0.000 A 
ATOM      5  C   UNL     1      -1.188  -3.061   3.082  0.00  0.00    +0.000 A 
ATOM      6  C   UNL     1      -2.079  -1.998   3.068  0.00  0.00    +0.000 A 
ATOM      7  C   UNL     1      -1.839  -1.013   2.130  0.00  0.00    +0.000 A 
ATOM      8  N   UNL     1      -0.811  -1.040   1.239  0.00  0.00    +0.000 NA
ATOM      9  C   UNL     1       0.056  -2.089   1.259  0.00  0.00    +0.000 A 
BRANCH   6  10
ATOM     10  C   UNL     1      -3.199  -2.008   4.042  0.00  0.00    +0.000 C 
ATOM     11  N   UNL     1      -4.076  -0.964   4.067  0.00  0.00    +0.000 N 
ATOM     12  O   UNL     1      -3.347  -2.942   4.823  0.00  0.00    +0.000 OA
ATOM     13  H   UNL     1      -4.045  -0.145   3.484  0.00  0.00    +0.000 HD
ATOM     14  H   UNL     1      -4.816  -1.026   4.757  0.00  0.00    +0.000 HD
ENDBRANCH   6  10
ENDBRANCH   1   9
BRANCH   1  15
ATOM     15  C   UNL     1       2.341  -2.652   0.192  0.00  0.00    +0.000 C 
ATOM     16  C   UNL     1       3.368  -2.281   1.250  0.00  0.00    +0.000 C 
ATOM     17  C   UNL     1       3.562  -1.791  -0.143  0.00  0.00    +0.000 C 
BRANCH  15  18
ATOM     18  C   UNL     1       2.357  -4.008  -0.532  0.00  0.00    +0.000 A 
ATOM     19  C   UNL     1       1.716  -4.179  -1.775  0.00  0.00    +0.000 A 
ATOM     20  C   UNL     1       1.693  -5.417  -2.431  0.00  0.00    +0.000 A 
ATOM     21  C   UNL     1       2.320  -6.533  -1.863  0.00  0.00    +0.000 A 
ATOM     22  C   UNL     1       2.976  -6.380  -0.637  0.00  0.00    +0.000 A 
ATOM     23  C   UNL     1       2.999  -5.140   0.004  0.00  0.00    +0.000 A 
BRANCH  21  24
ATOM     24  C   UNL     1       2.301  -7.885  -2.527  0.00  0.00    +0.000 C 
ATOM     25  F   UNL     1       1.630  -7.909  -3.712  0.00  0.00    +0.000 F 
ATOM     26  F   UNL     1       3.554  -8.346  -2.797  0.00  0.00    +0.000 F 
ATOM     27  F   UNL     1       1.717  -8.838  -1.747  0.00  0.00    +0.000 F 
ENDBRANCH  21  24
ENDBRANCH  15  18
ENDBRANCH   1  15
TORSDOF 5
