REMARK  Name = 
REMARK  6 active torsions:
REMARK  status: ('A' for Active; 'I' for Inactive)
REMARK    1  A    between atoms: C_2  and  C_18
REMARK    2  A    between atoms: N_3  and  C_4
REMARK    3  A    between atoms: C_4  and  C_5
REMARK    4  A    between atoms: C_8  and  C_9
REMARK    5  A    between atoms: C_9  and  C_10
REMARK    6  A    between atoms: C_10  and  C_11
REMARK                            x       y       z     vdW  Elec       q    Type
REMARK                         _______ _______ _______ _____ _____    ______ ____
ROOT
ATOM      1  O   UNL     1       0.939   0.091  -0.217  0.00  0.00    +0.000 OA
ATOM      2  C   UNL     1       1.911   0.672  -0.691  0.00  0.00    +0.000 C 
ATOM      3  N   UNL     1       2.639   1.590   0.027  0.00  0.00    +0.000 N 
ATOM      4  H   UNL     1       3.271   2.216  -0.461  0.00  0.00    +0.000 HD
ENDROOT
BRANCH   2   5
ATOM      5  C   UNL     1       2.377   0.386  -2.049  0.00  0.00    +0.000 A 
ATOM      6  C   UNL     1       2.139  -0.858  -2.622  0.00  0.00    +0.000 A 
ATOM      7  S   UNL     1       2.745  -1.001  -4.210  0.00  0.00    +0.000 S 
ATOM      8  C   UNL     1       3.308   0.604  -4.200  0.00  0.00    +0.000 A 
ATOM      9  N   UNL     1       3.906   1.148  -5.296  0.00  0.00    +0.000 NA
ATOM     10  C   UNL     1       4.253   2.383  -5.154  0.00  0.00    +0.000 A 
ATOM     11  N   UNL     1       4.066   3.127  -4.019  0.00  0.00    +0.000 N 
ATOM     12  C   UNL     1       3.511   2.610  -2.871  0.00  0.00    +0.000 A 
ATOM     13  O   UNL     1       3.423   3.275  -1.843  0.00  0.00    +0.000 OA
ATOM     14  C   UNL     1       3.069   1.231  -2.990  0.00  0.00    +0.000 A 
ATOM     15  H   UNL     1       4.383   4.079  -3.962  0.00  0.00    +0.000 HD
ENDBRANCH   2   5
BRANCH   3  16
ATOM     16  C   UNL     1       2.194   1.993   1.335  0.00  0.00    +0.000 C 
BRANCH  16  17
ATOM     17  C   UNL     1       3.096   3.020   1.964  0.00  0.00    +0.000 A 
ATOM     18  C   UNL     1       2.872   4.381   1.736  0.00  0.00    +0.000 A 
ATOM     19  C   UNL     1       3.656   5.349   2.368  0.00  0.00    +0.000 A 
ATOM     20  C   UNL     1       4.687   4.985   3.245  0.00  0.00    +0.000 A 
ATOM     21  C   UNL     1       4.945   3.618   3.426  0.00  0.00    +0.000 A 
ATOM     22  C   UNL     1       4.161   2.646   2.792  0.00  0.00    +0.000 A 
BRANCH  20  23
ATOM     23  C   UNL     1       5.566   6.011   3.938  0.00  0.00    +0.000 C 
BRANCH  23  24
ATOM     24  C   UNL     1       4.859   7.333   4.272  0.00  0.00    +0.000 C 
BRANCH  24  25
ATOM     25  C   UNL     1       5.764   8.337   4.983  0.00  0.00    +0.000 C 
ATOM     26  C   UNL     1       5.030   9.639   5.285  0.00  0.00    +0.000 C 
ATOM     27  C   UNL     1       6.118  10.672   5.151  0.00  0.00    +0.000 C 
ATOM     28  C   UNL     1       6.956  10.104   4.029  0.00  0.00    +0.000 C 
ATOM     29  O   UNL     1       6.879   8.678   4.141  0.00  0.00    +0.000 OA
ENDBRANCH  24  25
ENDBRANCH  23  24
ENDBRANCH  20  23
ENDBRANCH  16  17
ENDBRANCH   3  16
TORSDOF 6
