REMARK  Name = 
REMARK  8 active torsions:
REMARK  status: ('A' for Active; 'I' for Inactive)
REMARK    1  A    between atoms: C_1  and  C_2
REMARK    2  A    between atoms: C_2  and  C_3
REMARK    3  A    between atoms: C_3  and  N_4
REMARK    4  A    between atoms: C_3  and  C_17
REMARK    5  A    between atoms: C_5  and  C_7
REMARK    6  A    between atoms: C_20  and  O_21
REMARK    7  A    between atoms: O_21  and  C_22
REMARK    8  A    between atoms: C_22  and  C_23
REMARK                            x       y       z     vdW  Elec       q    Type
REMARK                         _______ _______ _______ _____ _____    ______ ____
ROOT
ATOM      1  C   UNL     1       2.931  -0.675   1.057  0.00  0.00    +0.000 C 
ENDROOT
BRANCH   1   2
ATOM      2  C   UNL     1       4.465  -0.736   1.091  0.00  0.00    +0.000 A 
ATOM      3  C   UNL     1       5.166  -0.259   2.203  0.00  0.00    +0.000 A 
ATOM      4  C   UNL     1       6.575  -0.329   2.274  0.00  0.00    +0.000 A 
ATOM      5  C   UNL     1       7.289  -0.899   1.199  0.00  0.00    +0.000 A 
ATOM      6  C   UNL     1       6.586  -1.329   0.095  0.00  0.00    +0.000 A 
ATOM      7  C   UNL     1       5.206  -1.264   0.022  0.00  0.00    +0.000 A 
BRANCH   5   8
ATOM      8  O   UNL     1       8.662  -1.009   1.229  0.00  0.00    +0.000 OA
BRANCH   8   9
ATOM      9  C   UNL     1       9.164  -2.108   0.423  0.00  0.00    +0.000 C 
BRANCH   9  10
ATOM     10  C   UNL     1      10.480  -2.571   0.992  0.00  0.00    +0.000 A 
ATOM     11  C   UNL     1      11.558  -1.695   1.050  0.00  0.00    +0.000 A 
ATOM     12  C   UNL     1      12.750  -2.138   1.608  0.00  0.00    +0.000 A 
ATOM     13  C   UNL     1      12.839  -3.443   2.079  0.00  0.00    +0.000 A 
ATOM     14  C   UNL     1      11.721  -4.252   1.976  0.00  0.00    +0.000 A 
ATOM     15  N   UNL     1      10.550  -3.851   1.442  0.00  0.00    +0.000 NA
ENDBRANCH   9  10
ENDBRANCH   8   9
ENDBRANCH   5   8
ENDBRANCH   1   2
BRANCH   1  16
ATOM     16  N   UNL     1       2.369  -2.018   1.009  0.00  0.00    +0.000 N 
ATOM     17  C   UNL     1       1.193  -2.391   1.614  0.00  0.00    +0.000 C 
ATOM     18  O   UNL     1       0.482  -1.616   2.255  0.00  0.00    +0.000 OA
ATOM     19  H   UNL     1       2.992  -2.760   0.688  0.00  0.00    +0.000 HD
BRANCH  17  20
ATOM     20  C   UNL     1       0.810  -3.792   1.445  0.00  0.00    +0.000 A 
ATOM     21  C   UNL     1      -0.516  -4.200   1.414  0.00  0.00    +0.000 A 
ATOM     22  S   UNL     1      -0.686  -5.899   1.303  0.00  0.00    +0.000 S 
ATOM     23  C   UNL     1       1.003  -6.124   1.319  0.00  0.00    +0.000 A 
ATOM     24  N   UNL     1       1.562  -7.366   1.327  0.00  0.00    +0.000 NA
ATOM     25  C   UNL     1       2.850  -7.367   1.385  0.00  0.00    +0.000 A 
ATOM     26  N   UNL     1       3.639  -6.245   1.414  0.00  0.00    +0.000 N 
ATOM     27  C   UNL     1       3.129  -4.977   1.367  0.00  0.00    +0.000 A 
ATOM     28  O   UNL     1       3.868  -4.019   1.304  0.00  0.00    +0.000 OA
ATOM     29  C   UNL     1       1.678  -4.928   1.350  0.00  0.00    +0.000 A 
ATOM     30  H   UNL     1       4.648  -6.307   1.433  0.00  0.00    +0.000 HD
ENDBRANCH  17  20
ENDBRANCH   1  16
BRANCH   1  32
ATOM     31  C   UNL     1       2.867   1.598  -0.218  0.00  0.00    +0.000 C 
ATOM     32  C   UNL     1       2.394   0.153  -0.136  0.00  0.00    +0.000 C 
ENDBRANCH   1  32
TORSDOF 7
