REMARK  Name = 
REMARK  9 active torsions:
REMARK  status: ('A' for Active; 'I' for Inactive)
REMARK    1  A    between atoms: C_1  and  O_2
REMARK    2  A    between atoms: O_2  and  C_3
REMARK    3  A    between atoms: C_10  and  C_11
REMARK    4  A    between atoms: N_13  and  C_14
REMARK    5  A    between atoms: C_14  and  C_15
REMARK    6  A    between atoms: C_18  and  C_19
REMARK    7  A    between atoms: C_19  and  O_20
REMARK    8  A    between atoms: O_20  and  C_21
REMARK    9  A    between atoms: C_21  and  C_22
REMARK                            x       y       z     vdW  Elec       q    Type
REMARK                         _______ _______ _______ _____ _____    ______ ____
ROOT
ATOM      1  C   UNL     1       3.010  -1.652   2.866  0.00  0.00    +0.000 C 
ENDROOT
BRANCH   1   2
ATOM      2  C   UNL     1       1.876  -0.729   3.245  0.00  0.00    +0.000 A 
ATOM      3  C   UNL     1       0.641  -1.243   3.664  0.00  0.00    +0.000 A 
ATOM      4  C   UNL     1      -0.410  -0.382   4.003  0.00  0.00    +0.000 A 
ATOM      5  C   UNL     1      -0.255   1.009   3.920  0.00  0.00    +0.000 A 
ATOM      6  C   UNL     1       0.972   1.519   3.477  0.00  0.00    +0.000 A 
ATOM      7  C   UNL     1       2.023   0.660   3.138  0.00  0.00    +0.000 A 
BRANCH   5   8
ATOM      8  C   UNL     1      -1.390   1.934   4.291  0.00  0.00    +0.000 C 
BRANCH   8   9
ATOM      9  O   UNL     1      -1.741   1.706   5.651  0.00  0.00    +0.000 OA
BRANCH   9  10
ATOM     10  C   UNL     1      -2.790   2.577   6.086  0.00  0.00    +0.000 C 
BRANCH  10  11
ATOM     11  C   UNL     1      -3.146   2.312   7.533  0.00  0.00    +0.000 A 
ATOM     12  C   UNL     1      -2.176   1.886   8.440  0.00  0.00    +0.000 A 
ATOM     13  C   UNL     1      -2.537   1.660   9.765  0.00  0.00    +0.000 A 
ATOM     14  C   UNL     1      -3.851   1.880  10.158  0.00  0.00    +0.000 A 
ATOM     15  C   UNL     1      -4.751   2.324   9.205  0.00  0.00    +0.000 A 
ATOM     16  N   UNL     1      -4.430   2.550   7.910  0.00  0.00    +0.000 NA
ENDBRANCH  10  11
ENDBRANCH   9  10
ENDBRANCH   8   9
ENDBRANCH   5   8
ENDBRANCH   1   2
BRANCH   1  19
ATOM     17  C   UNL     1       3.860  -2.834   0.874  0.00  0.00    +0.000 C 
ATOM     18  O   UNL     1       4.764  -3.362   1.521  0.00  0.00    +0.000 OA
ATOM     19  N   UNL     1       2.963  -1.987   1.467  0.00  0.00    +0.000 N 
ATOM     20  H   UNL     1       2.263  -1.520   0.908  0.00  0.00    +0.000 HD
BRANCH  17  28
ATOM     21  C   UNL     1       1.535  -1.812  -1.454  0.00  0.00    +0.000 A 
ATOM     22  N   UNL     1       0.775  -1.580  -2.542  0.00  0.00    +0.000 NA
ATOM     23  C   UNL     1       1.126  -2.164  -3.691  0.00  0.00    +0.000 A 
ATOM     24  N   UNL     1       2.169  -2.966  -3.893  0.00  0.00    +0.000 NA
ATOM     25  C   UNL     1       2.904  -3.165  -2.785  0.00  0.00    +0.000 A 
ATOM     26  S   UNL     1       4.276  -4.159  -2.858  0.00  0.00    +0.000 S 
ATOM     27  C   UNL     1       4.600  -3.919  -1.205  0.00  0.00    +0.000 A 
ATOM     28  C   UNL     1       3.685  -3.091  -0.568  0.00  0.00    +0.000 A 
ATOM     29  C   UNL     1       2.674  -2.635  -1.520  0.00  0.00    +0.000 A 
BRANCH  21  31
ATOM     30  C   UNL     1      -0.189  -0.829  -0.210  0.00  0.00    +0.000 C 
ATOM     31  O   UNL     1       1.193  -1.174  -0.281  0.00  0.00    +0.000 OA
ENDBRANCH  21  31
ENDBRANCH  17  28
ENDBRANCH   1  19
TORSDOF 8
