REMARK  Name = 
REMARK  7 active torsions:
REMARK  status: ('A' for Active; 'I' for Inactive)
REMARK    1  A    between atoms: C_1  and  C_2
REMARK    2  A    between atoms: C_2  and  C_3
REMARK    3  A    between atoms: C_2  and  C_4
REMARK    4  A    between atoms: C_2  and  C_5
REMARK    5  A    between atoms: C_8  and  C_9
REMARK    6  A    between atoms: C_9  and  N_10
REMARK    7  A    between atoms: C_16  and  C_17
REMARK                            x       y       z     vdW  Elec       q    Type
REMARK                         _______ _______ _______ _____ _____    ______ ____
ROOT
ATOM      1  N   UNL     1       3.499  -6.186   2.619  0.00  0.00    +0.000 N 
ATOM      2  C   UNL     1       4.274  -7.149   3.279  0.00  0.00    +0.000 A 
ATOM      3  C   UNL     1       3.540  -7.485   4.396  0.00  0.00    +0.000 A 
ATOM      4  C   UNL     1       2.218  -7.517   3.867  0.00  0.00    +0.000 A 
ATOM      5  C   UNL     1       1.059  -8.274   4.109  0.00  0.00    +0.000 A 
ATOM      6 CL   UNL     1       1.319  -9.722   4.994  0.00  0.00    +0.000 Cl
ATOM      7  C   UNL     1      -0.145  -7.925   3.500  0.00  0.00    +0.000 A 
ATOM      8  C   UNL     1      -0.204  -6.747   2.744  0.00  0.00    +0.000 A 
ATOM      9  C   UNL     1       0.947  -5.998   2.437  0.00  0.00    +0.000 A 
ATOM     10  C   UNL     1       2.164  -6.470   2.931  0.00  0.00    +0.000 A 
ENDROOT
BRANCH   7  11
ATOM     11  C   UNL     1      -1.303  -8.780   3.593  0.00  0.00    +0.000 C 
ATOM     12  N   UNL     1      -2.233  -9.450   3.616  0.00  0.00    +0.000 NA
ENDBRANCH   7  11
BRANCH   1  13
ATOM     13  C   UNL     1       4.012  -5.624   1.365  0.00  0.00    +0.000 C 
BRANCH  13  17
ATOM     14  C   UNL     1       3.098  -1.482   0.383  0.00  0.00    +0.000 A 
ATOM     15  C   UNL     1       3.950  -1.795   1.457  0.00  0.00    +0.000 A 
ATOM     16  C   UNL     1       4.240  -3.127   1.802  0.00  0.00    +0.000 A 
ATOM     17  C   UNL     1       3.683  -4.189   1.081  0.00  0.00    +0.000 A 
ATOM     18  C   UNL     1       2.883  -3.884  -0.024  0.00  0.00    +0.000 A 
ATOM     19  C   UNL     1       2.596  -2.560  -0.365  0.00  0.00    +0.000 A 
BRANCH  14  21
ATOM     20  C   UNL     1       3.271   1.028   0.963  0.00  0.00    +0.000 C 
ATOM     21  C   UNL     1       2.663  -0.046   0.034  0.00  0.00    +0.000 C 
ATOM     22  C   UNL     1       1.124   0.055   0.157  0.00  0.00    +0.000 C 
ATOM     23  C   UNL     1       3.059   0.323  -1.412  0.00  0.00    +0.000 C 
ENDBRANCH  14  21
ENDBRANCH  13  17
ENDBRANCH   1  13
TORSDOF 4
