REMARK  Name = 
REMARK  4 active torsions:
REMARK  status: ('A' for Active; 'I' for Inactive)
REMARK    1  A    between atoms: C_2  and  C_4
REMARK    2  A    between atoms: N_8  and  C_9
REMARK    3  A    between atoms: C_9  and  C_10
REMARK    4  A    between atoms: C_15  and  C_16
REMARK                            x       y       z     vdW  Elec       q    Type
REMARK                         _______ _______ _______ _____ _____    ______ ____
ROOT
ATOM      1  C   UNL     1       5.056   2.363  -5.507  0.00  0.00    +0.000 C 
ATOM      2  C   UNL     1       5.058   3.877  -5.305  0.00  0.00    +0.000 C 
ATOM      3  C   UNL     1       3.790   3.183  -5.670  0.00  0.00    +0.000 C 
ENDROOT
BRANCH   1   8
ATOM      4  C   UNL     1       3.479  -1.873  -2.927  0.00  0.00    +0.000 A 
ATOM      5  C   UNL     1       2.708  -0.928  -3.598  0.00  0.00    +0.000 A 
ATOM      6  C   UNL     1       3.318   0.225  -4.099  0.00  0.00    +0.000 A 
ATOM      7  C   UNL     1       4.682   0.418  -3.912  0.00  0.00    +0.000 A 
ATOM      8  N   UNL     1       5.351   1.584  -4.294  0.00  0.00    +0.000 N 
ATOM      9  N   UNL     1       5.438  -0.487  -3.257  0.00  0.00    +0.000 NA
ATOM     10  C   UNL     1       4.831  -1.603  -2.775  0.00  0.00    +0.000 A 
ATOM     11  H   UNL     1       6.335   1.415  -4.092  0.00  0.00    +0.000 HD
BRANCH   4  13
ATOM     12  N   UNL     1       1.769  -3.596  -2.904  0.00  0.00    +0.000 N 
ATOM     13  C   UNL     1       2.918  -3.108  -2.346  0.00  0.00    +0.000 C 
ATOM     14  O   UNL     1       3.469  -3.687  -1.419  0.00  0.00    +0.000 OA
ATOM     15  H   UNL     1       1.446  -4.491  -2.557  0.00  0.00    +0.000 HD
ATOM     16  H   UNL     1       1.426  -3.294  -3.805  0.00  0.00    +0.000 HD
ENDBRANCH   4  13
ENDBRANCH   1   8
BRANCH   1  17
ATOM     17  C   UNL     1       5.728   1.816  -6.765  0.00  0.00    +0.000 A 
ATOM     18  C   UNL     1       7.017   2.228  -7.148  0.00  0.00    +0.000 A 
ATOM     19  C   UNL     1       7.642   1.710  -8.284  0.00  0.00    +0.000 A 
ATOM     20  C   UNL     1       6.992   0.754  -9.054  0.00  0.00    +0.000 A 
ATOM     21  F   UNL     1       7.621   0.271 -10.133  0.00  0.00    +0.000 F 
ATOM     22  C   UNL     1       5.720   0.307  -8.716  0.00  0.00    +0.000 A 
ATOM     23  C   UNL     1       5.099   0.849  -7.572  0.00  0.00    +0.000 A 
BRANCH  22  24
ATOM     24  C   UNL     1       5.018  -0.737  -9.532  0.00  0.00    +0.000 C 
ATOM     25  F   UNL     1       5.710  -1.201 -10.607  0.00  0.00    +0.000 F 
ATOM     26  F   UNL     1       4.705  -1.839  -8.792  0.00  0.00    +0.000 F 
ATOM     27  F   UNL     1       3.829  -0.285 -10.026  0.00  0.00    +0.000 F 
ENDBRANCH  22  24
ENDBRANCH   1  17
TORSDOF 4
