REMARK  Name = 
REMARK  7 active torsions:
REMARK  status: ('A' for Active; 'I' for Inactive)
REMARK    1  A    between atoms: C_2  and  C_21
REMARK    2  A    between atoms: N_3  and  C_4
REMARK    3  A    between atoms: C_4  and  C_5
REMARK    4  A    between atoms: C_8  and  C_9
REMARK    5  A    between atoms: C_9  and  N_10
REMARK    6  A    between atoms: C_11  and  C_13
REMARK    7  A    between atoms: C_16  and  O_17
REMARK                            x       y       z     vdW  Elec       q    Type
REMARK                         _______ _______ _______ _____ _____    ______ ____
ROOT
ATOM      1  C   UNL     1       3.216  -3.470  -0.703  0.00  0.00    +0.000 A 
ATOM      2  C   UNL     1       4.576  -3.212  -0.925  0.00  0.00    +0.000 A 
ATOM      3  C   UNL     1       5.488  -4.263  -1.096  0.00  0.00    +0.000 A 
ATOM      4  C   UNL     1       5.057  -5.596  -1.074  0.00  0.00    +0.000 A 
ATOM      5  C   UNL     1       3.693  -5.852  -0.875  0.00  0.00    +0.000 A 
ATOM      6  C   UNL     1       2.782  -4.802  -0.703  0.00  0.00    +0.000 A 
ENDROOT
BRANCH   1   7
ATOM      7  C   UNL     1       2.236  -2.337  -0.509  0.00  0.00    +0.000 C 
BRANCH   7  10
ATOM      8  O   UNL     1       0.176  -0.468  -0.830  0.00  0.00    +0.000 OA
ATOM      9  C   UNL     1       0.693  -0.951  -1.832  0.00  0.00    +0.000 C 
ATOM     10  N   UNL     1       1.654  -1.930  -1.763  0.00  0.00    +0.000 N 
ATOM     11  H   UNL     1       2.195  -2.149  -2.593  0.00  0.00    +0.000 HD
BRANCH   9  12
ATOM     12  C   UNL     1       0.296  -0.532  -3.185  0.00  0.00    +0.000 A 
ATOM     13  C   UNL     1      -0.946   0.053  -3.396  0.00  0.00    +0.000 A 
ATOM     14  S   UNL     1      -1.245   0.452  -5.030  0.00  0.00    +0.000 S 
ATOM     15  C   UNL     1       0.296  -0.095  -5.503  0.00  0.00    +0.000 A 
ATOM     16  N   UNL     1       0.703  -0.011  -6.797  0.00  0.00    +0.000 NA
ATOM     17  C   UNL     1       1.904  -0.439  -7.009  0.00  0.00    +0.000 A 
ATOM     18  N   UNL     1       2.732  -0.944  -6.044  0.00  0.00    +0.000 N 
ATOM     19  C   UNL     1       2.355  -1.077  -4.733  0.00  0.00    +0.000 A 
ATOM     20  O   UNL     1       3.107  -1.582  -3.908  0.00  0.00    +0.000 OA
ATOM     21  C   UNL     1       1.017  -0.598  -4.436  0.00  0.00    +0.000 A 
ATOM     22  H   UNL     1       3.658  -1.273  -6.276  0.00  0.00    +0.000 HD
ENDBRANCH   9  12
ENDBRANCH   7  10
ENDBRANCH   1   7
BRANCH   4  23
ATOM     23  C   UNL     1       6.041  -6.731  -1.236  0.00  0.00    +0.000 C 
BRANCH  23  24
ATOM     24  N   UNL     1       6.558  -7.173   0.040  0.00  0.00    +0.000 N 
ATOM     25  C   UNL     1       7.419  -8.247   0.148  0.00  0.00    +0.000 C 
ATOM     26  O   UNL     1       7.819  -8.886  -0.817  0.00  0.00    +0.000 OA
ATOM     27  H   UNL     1       6.314  -6.638   0.862  0.00  0.00    +0.000 HD
BRANCH  25  28
ATOM     28  C   UNL     1       7.817  -8.546   1.593  0.00  0.00    +0.000 C 
ATOM     29  C   UNL     1       8.823  -9.697   1.777  0.00  0.00    +0.000 C 
ATOM     30  C   UNL     1       8.109 -10.759   2.615  0.00  0.00    +0.000 C 
ATOM     31  C   UNL     1       7.077  -9.978   3.411  0.00  0.00    +0.000 C 
ATOM     32  C   UNL     1       6.582  -8.936   2.421  0.00  0.00    +0.000 C 
BRANCH  31  33
ATOM     33  O   UNL     1       7.664  -9.346   4.542  0.00  0.00    +0.000 OA
ATOM     34  H   UNL     1       8.437  -8.832   4.258  0.00  0.00    +0.000 HD
ENDBRANCH  31  33
ENDBRANCH  25  28
ENDBRANCH  23  24
ENDBRANCH   4  23
TORSDOF 7
