REMARK  Name = 
REMARK  5 active torsions:
REMARK  status: ('A' for Active; 'I' for Inactive)
REMARK    1  A    between atoms: C_2  and  C_4
REMARK    2  A    between atoms: C_7  and  O_8
REMARK    3  A    between atoms: O_8  and  C_9
REMARK    4  A    between atoms: C_9  and  C_10
REMARK    5  A    between atoms: C_14  and  N_15
REMARK                            x       y       z     vdW  Elec       q    Type
REMARK                         _______ _______ _______ _____ _____    ______ ____
ROOT
ATOM      1  C   UNL     1       5.595  -4.438   3.366  0.00  0.00    +0.000 C 
ENDROOT
BRANCH   1   2
ATOM      2  C   UNL     1       6.620  -5.031   4.311  0.00  0.00    +0.000 A 
ATOM      3  C   UNL     1       7.516  -4.235   5.025  0.00  0.00    +0.000 A 
ATOM      4  C   UNL     1       8.375  -4.820   5.949  0.00  0.00    +0.000 A 
ATOM      5  C   UNL     1       8.327  -6.199   6.184  0.00  0.00    +0.000 A 
ATOM      6  C   UNL     1       7.432  -7.040   5.505  0.00  0.00    +0.000 A 
ATOM      7  C   UNL     1       6.596  -6.420   4.561  0.00  0.00    +0.000 A 
BRANCH   6   8
ATOM      8  N   UNL     1       7.353  -8.393   5.781  0.00  0.00    +0.000 N 
ATOM      9  C   UNL     1       6.123  -9.166   5.581  0.00  0.00    +0.000 C 
ATOM     10  C   UNL     1       5.793  -9.943   6.861  0.00  0.00    +0.000 C 
ATOM     11  C   UNL     1       6.976 -10.776   7.349  0.00  0.00    +0.000 C 
ATOM     12  C   UNL     1       8.222  -9.912   7.505  0.00  0.00    +0.000 C 
ATOM     13  F   UNL     1       9.272 -10.717   7.825  0.00  0.00    +0.000 F 
ATOM     14  C   UNL     1       8.527  -9.172   6.202  0.00  0.00    +0.000 C 
ENDBRANCH   6   8
ENDBRANCH   1   2
BRANCH   1  15
ATOM     15  O   UNL     1       6.050  -3.214   2.778  0.00  0.00    +0.000 OA
BRANCH  15  19
ATOM     16  C   UNL     1       3.187  -1.415   0.417  0.00  0.00    +0.000 A 
ATOM     17  C   UNL     1       4.429  -0.799   0.589  0.00  0.00    +0.000 A 
ATOM     18  C   UNL     1       5.393  -1.420   1.388  0.00  0.00    +0.000 A 
ATOM     19  C   UNL     1       5.080  -2.634   1.984  0.00  0.00    +0.000 A 
ATOM     20  N   UNL     1       3.889  -3.251   1.830  0.00  0.00    +0.000 NA
ATOM     21  C   UNL     1       2.966  -2.625   1.061  0.00  0.00    +0.000 A 
BRANCH  16  23
ATOM     22  N   UNL     1       2.414   0.010  -1.398  0.00  0.00    +0.000 N 
ATOM     23  C   UNL     1       2.084  -0.839  -0.379  0.00  0.00    +0.000 C 
ATOM     24  O   UNL     1       0.917  -1.137  -0.161  0.00  0.00    +0.000 OA
ATOM     25  H   UNL     1       1.650   0.305  -1.994  0.00  0.00    +0.000 HD
ATOM     26  H   UNL     1       3.350   0.080  -1.773  0.00  0.00    +0.000 HD
ENDBRANCH  16  23
ENDBRANCH  15  19
ENDBRANCH   1  15
TORSDOF 5
