REMARK  Name = 
REMARK  6 active torsions:
REMARK  status: ('A' for Active; 'I' for Inactive)
REMARK    1  A    between atoms: C_2  and  C_25
REMARK    2  A    between atoms: N_3  and  C_4
REMARK    3  A    between atoms: C_4  and  C_5
REMARK    4  A    between atoms: C_8  and  C_9
REMARK    5  A    between atoms: C_9  and  N_10
REMARK    6  A    between atoms: C_11  and  C_13
REMARK                            x       y       z     vdW  Elec       q    Type
REMARK                         _______ _______ _______ _____ _____    ______ ____
ROOT
ATOM      1  C   UNL     1       3.373  -0.157   3.548  0.00  0.00    +0.000 A 
ATOM      2  C   UNL     1       3.874   1.035   4.075  0.00  0.00    +0.000 A 
ATOM      3  C   UNL     1       4.742   0.999   5.163  0.00  0.00    +0.000 A 
ATOM      4  C   UNL     1       5.088  -0.235   5.708  0.00  0.00    +0.000 A 
ATOM      5  N   UNL     1       4.638  -1.408   5.191  0.00  0.00    +0.000 NA
ATOM      6  C   UNL     1       3.801  -1.342   4.131  0.00  0.00    +0.000 A 
ENDROOT
BRANCH   1   7
ATOM      7  C   UNL     1       2.396  -0.160   2.414  0.00  0.00    +0.000 C 
BRANCH   7  10
ATOM      8  O   UNL     1       1.023  -0.148   0.040  0.00  0.00    +0.000 OA
ATOM      9  C   UNL     1       2.251  -0.168  -0.019  0.00  0.00    +0.000 C 
ATOM     10  N   UNL     1       3.029  -0.180   1.120  0.00  0.00    +0.000 N 
ATOM     11  H   UNL     1       4.037  -0.144   1.024  0.00  0.00    +0.000 HD
BRANCH   9  12
ATOM     12  C   UNL     1       2.979  -0.175  -1.272  0.00  0.00    +0.000 A 
ATOM     13  C   UNL     1       2.510  -0.102  -2.570  0.00  0.00    +0.000 A 
ATOM     14  C   UNL     1       3.640  -0.173  -3.418  0.00  0.00    +0.000 A 
ATOM     15  C   UNL     1       4.730  -0.284  -2.587  0.00  0.00    +0.000 A 
ATOM     16  O   UNL     1       4.344  -0.280  -1.282  0.00  0.00    +0.000 OA
ENDBRANCH   9  12
ENDBRANCH   7  10
ENDBRANCH   1   7
BRANCH   4  17
ATOM     17  C   UNL     1       6.007  -0.309   6.902  0.00  0.00    +0.000 C 
BRANCH  17  18
ATOM     18  N   UNL     1       7.393  -0.430   6.514  0.00  0.00    +0.000 N 
ATOM     19  C   UNL     1       8.246   0.639   6.474  0.00  0.00    +0.000 C 
ATOM     20  O   UNL     1       7.885   1.774   6.775  0.00  0.00    +0.000 OA
ATOM     21  H   UNL     1       7.641  -1.296   6.044  0.00  0.00    +0.000 HD
BRANCH  19  22
ATOM     22  C   UNL     1       9.641   0.349   6.118  0.00  0.00    +0.000 A 
ATOM     23  C   UNL     1      10.647   1.219   6.518  0.00  0.00    +0.000 A 
ATOM     24  S   UNL     1      12.210   0.720   6.053  0.00  0.00    +0.000 S 
ATOM     25  C   UNL     1      11.595  -0.654   5.261  0.00  0.00    +0.000 A 
ATOM     26  N   UNL     1      12.422  -1.514   4.607  0.00  0.00    +0.000 NA
ATOM     27  C   UNL     1      11.822  -2.494   4.023  0.00  0.00    +0.000 A 
ATOM     28  N   UNL     1      10.464  -2.700   4.042  0.00  0.00    +0.000 N 
ATOM     29  C   UNL     1       9.599  -1.890   4.735  0.00  0.00    +0.000 A 
ATOM     30  O   UNL     1       8.403  -2.157   4.810  0.00  0.00    +0.000 OA
ATOM     31  C   UNL     1      10.219  -0.749   5.377  0.00  0.00    +0.000 A 
ATOM     32  H   UNL     1      10.055  -3.501   3.585  0.00  0.00    +0.000 HD
ENDBRANCH  19  22
ENDBRANCH  17  18
ENDBRANCH   4  17
TORSDOF 6
