REMARK  Name = 
REMARK  8 active torsions:
REMARK  status: ('A' for Active; 'I' for Inactive)
REMARK    1  A    between atoms: N_1  and  C_2
REMARK    2  A    between atoms: C_2  and  C_3
REMARK    3  A    between atoms: C_2  and  C_17
REMARK    4  A    between atoms: C_3  and  N_4
REMARK    5  A    between atoms: C_5  and  C_7
REMARK    6  A    between atoms: C_20  and  C_21
REMARK    7  A    between atoms: C_21  and  N_22
REMARK    8  A    between atoms: C_23  and  C_25
REMARK                            x       y       z     vdW  Elec       q    Type
REMARK                         _______ _______ _______ _____ _____    ______ ____
ROOT
ATOM      1  C   UNL     1       2.571  -0.062  -0.077  0.00  0.00    +0.000 C 
ENDROOT
BRANCH   1   2
ATOM      2  C   UNL     1       2.917   1.286   0.549  0.00  0.00    +0.000 A 
ATOM      3  C   UNL     1       2.594   2.482  -0.117  0.00  0.00    +0.000 A 
ATOM      4  C   UNL     1       2.901   3.728   0.433  0.00  0.00    +0.000 A 
ATOM      5  C   UNL     1       3.529   3.816   1.679  0.00  0.00    +0.000 A 
ATOM      6  C   UNL     1       3.806   2.638   2.377  0.00  0.00    +0.000 A 
ATOM      7  C   UNL     1       3.502   1.393   1.822  0.00  0.00    +0.000 A 
BRANCH   5   8
ATOM      8  C   UNL     1       3.861   5.152   2.276  0.00  0.00    +0.000 C 
BRANCH   8   9
ATOM      9  N   UNL     1       2.772   5.645   3.084  0.00  0.00    +0.000 N 
ATOM     10  C   UNL     1       2.899   6.827   3.779  0.00  0.00    +0.000 C 
ATOM     11  O   UNL     1       3.911   7.519   3.726  0.00  0.00    +0.000 OA
ATOM     12  H   UNL     1       1.879   5.174   3.024  0.00  0.00    +0.000 HD
BRANCH  10  13
ATOM     13  C   UNL     1       1.669   7.202   4.591  0.00  0.00    +0.000 C 
ATOM     14  C   UNL     1       1.816   8.530   5.303  0.00  0.00    +0.000 C 
ATOM     15  C   UNL     1       2.528   8.143   6.581  0.00  0.00    +0.000 C 
ATOM     16  O   UNL     1       2.077   6.823   6.913  0.00  0.00    +0.000 OA
ATOM     17  C   UNL     1       1.471   6.240   5.749  0.00  0.00    +0.000 C 
ENDBRANCH  10  13
ENDBRANCH   8   9
ENDBRANCH   5   8
ENDBRANCH   1   2
BRANCH   1  18
ATOM     18  N   UNL     1       2.584   0.013  -1.553  0.00  0.00    +0.000 NA
ATOM     19  H   UNL     1       2.481  -0.932  -1.922  0.00  0.00    +0.000 HD
ATOM     20  H   UNL     1       3.525   0.284  -1.846  0.00  0.00    +0.000 HD
ENDBRANCH   1  18
BRANCH   1  21
ATOM     21  C   UNL     1       3.476  -1.230   0.411  0.00  0.00    +0.000 C 
BRANCH  21  22
ATOM     22  N   UNL     1       3.059  -2.522  -0.102  0.00  0.00    +0.000 N 
ATOM     23  C   UNL     1       3.589  -3.099  -1.224  0.00  0.00    +0.000 C 
ATOM     24  O   UNL     1       4.478  -2.565  -1.879  0.00  0.00    +0.000 OA
ATOM     25  H   UNL     1       2.211  -2.907   0.301  0.00  0.00    +0.000 HD
BRANCH  23  26
ATOM     26  C   UNL     1       3.045  -4.410  -1.582  0.00  0.00    +0.000 A 
ATOM     27  C   UNL     1       3.808  -5.291  -2.335  0.00  0.00    +0.000 A 
ATOM     28  S   UNL     1       3.038  -6.785  -2.618  0.00  0.00    +0.000 S 
ATOM     29  C   UNL     1       1.637  -6.285  -1.788  0.00  0.00    +0.000 A 
ATOM     30  N   UNL     1       0.559  -7.106  -1.675  0.00  0.00    +0.000 NA
ATOM     31  C   UNL     1      -0.448  -6.584  -1.058  0.00  0.00    +0.000 A 
ATOM     32  N   UNL     1      -0.471  -5.316  -0.534  0.00  0.00    +0.000 N 
ATOM     33  C   UNL     1       0.612  -4.472  -0.574  0.00  0.00    +0.000 A 
ATOM     34  O   UNL     1       0.595  -3.386  -0.002  0.00  0.00    +0.000 OA
ATOM     35  C   UNL     1       1.763  -5.003  -1.286  0.00  0.00    +0.000 A 
ATOM     36  H   UNL     1      -1.288  -4.976  -0.046  0.00  0.00    +0.000 HD
ENDBRANCH  23  26
ENDBRANCH  21  22
ENDBRANCH   1  21
TORSDOF 8
