REMARK  Name = 
REMARK  5 active torsions:
REMARK  status: ('A' for Active; 'I' for Inactive)
REMARK    1  A    between atoms: N_1  and  C_2
REMARK    2  A    between atoms: C_2  and  C_3
REMARK    3  A    between atoms: C_7  and  C_8
REMARK    4  A    between atoms: C_8  and  S_9
REMARK    5  A    between atoms: S_9  and  C_10
REMARK                            x       y       z     vdW  Elec       q    Type
REMARK                         _______ _______ _______ _____ _____    ______ ____
ROOT
ATOM      1  C   UNL     1       2.880   1.085   0.726  0.00  0.00    +0.000 A 
ATOM      2  C   UNL     1       3.619   1.104   1.901  0.00  0.00    +0.000 A 
ATOM      3  N   UNL     1       3.959   2.236   2.561  0.00  0.00    +0.000 NA
ATOM      4  C   UNL     1       3.517   3.405   2.040  0.00  0.00    +0.000 A 
ATOM      5  C   UNL     1       2.749   3.513   0.885  0.00  0.00    +0.000 A 
ATOM      6  C   UNL     1       2.472   2.319   0.210  0.00  0.00    +0.000 A 
ENDROOT
BRANCH   1   7
ATOM      7  C   UNL     1       2.486  -0.196   0.053  0.00  0.00    +0.000 C 
BRANCH   7   8
ATOM      8  N   UNL     1       2.984  -0.263  -1.315  0.00  0.00    +0.000 NA
ATOM      9  H   UNL     1       2.761  -1.174  -1.711  0.00  0.00    +0.000 HD
ATOM     10  H   UNL     1       4.000  -0.191  -1.305  0.00  0.00    +0.000 HD
ENDBRANCH   7   8
ENDBRANCH   1   7
BRANCH   5  11
ATOM     11  C   UNL     1       2.303   4.867   0.385  0.00  0.00    +0.000 C 
BRANCH  11  12
ATOM     12  S   UNL     1       0.677   4.813  -0.458  0.00  0.00    +0.000 S 
BRANCH  12  13
ATOM     13  C   UNL     1       0.372   6.481  -1.002  0.00  0.00    +0.000 A 
ATOM     14  C   UNL     1       1.166   7.586  -0.714  0.00  0.00    +0.000 A 
ATOM     15  C   UNL     1       0.761   8.827  -1.187  0.00  0.00    +0.000 A 
ATOM     16  N   UNL     1      -0.355   9.032  -1.915  0.00  0.00    +0.000 NA
ATOM     17  C   UNL     1      -1.106   7.946  -2.189  0.00  0.00    +0.000 A 
ATOM     18  C   UNL     1      -0.786   6.672  -1.761  0.00  0.00    +0.000 A 
ENDBRANCH  12  13
ENDBRANCH  11  12
ENDBRANCH   5  11
TORSDOF 5
