REMARK  Name = 
REMARK  10 active torsions:
REMARK  status: ('A' for Active; 'I' for Inactive)
REMARK    1  A    between atoms: C_1  and  C_2
REMARK    2  A    between atoms: C_2  and  C_3
REMARK    3  A    between atoms: C_3  and  N_4
REMARK    4  A    between atoms: C_3  and  C_20
REMARK    5  A    between atoms: N_4  and  C_5
REMARK    6  A    between atoms: C_5  and  C_6
REMARK    7  A    between atoms: C_9  and  C_10
REMARK    8  A    between atoms: C_10  and  O_11
REMARK    9  A    between atoms: O_11  and  C_12
REMARK   10  A    between atoms: C_12  and  C_13
REMARK                            x       y       z     vdW  Elec       q    Type
REMARK                         _______ _______ _______ _____ _____    ______ ____
ROOT
ATOM      1  N   UNL     1       2.479   2.231   0.011  0.00  0.00    +0.000 NA
ATOM      2  H   UNL     1       3.033   3.035  -0.275  0.00  0.00    +0.000 HD
ENDROOT
BRANCH   1   3
ATOM      3  C   UNL     1       2.934   1.055  -0.747  0.00  0.00    +0.000 C 
BRANCH   3   4
ATOM      4  C   UNL     1       2.256  -0.189  -0.176  0.00  0.00    +0.000 A 
ATOM      5  C   UNL     1       1.072  -0.721  -0.668  0.00  0.00    +0.000 A 
ATOM      6  S   UNL     1       0.477  -2.038   0.233  0.00  0.00    +0.000 S 
ATOM      7  C   UNL     1       1.795  -1.971   1.302  0.00  0.00    +0.000 A 
ATOM      8  N   UNL     1       1.885  -2.839   2.342  0.00  0.00    +0.000 NA
ATOM      9  C   UNL     1       2.930  -2.673   3.081  0.00  0.00    +0.000 A 
ATOM     10  N   UNL     1       3.900  -1.726   2.866  0.00  0.00    +0.000 N 
ATOM     11  C   UNL     1       3.879  -0.855   1.795  0.00  0.00    +0.000 A 
ATOM     12  O   UNL     1       4.824  -0.104   1.573  0.00  0.00    +0.000 OA
ATOM     13  C   UNL     1       2.694  -0.968   0.963  0.00  0.00    +0.000 A 
ATOM     14  H   UNL     1       4.713  -1.681   3.458  0.00  0.00    +0.000 HD
ENDBRANCH   3   4
BRANCH   3  16
ATOM     15  C   UNL     1       3.401   2.404  -2.920  0.00  0.00    +0.000 C 
ATOM     16  C   UNL     1       2.768   1.173  -2.285  0.00  0.00    +0.000 C 
ENDBRANCH   3  16
ENDBRANCH   1   3
BRANCH   1  17
ATOM     17  C   UNL     1       1.060   2.550  -0.140  0.00  0.00    +0.000 C 
BRANCH  17  18
ATOM     18  C   UNL     1       0.670   3.803   0.605  0.00  0.00    +0.000 A 
ATOM     19  C   UNL     1       1.242   5.044   0.291  0.00  0.00    +0.000 A 
ATOM     20  C   UNL     1       0.833   6.199   0.958  0.00  0.00    +0.000 A 
ATOM     21  C   UNL     1      -0.166   6.141   1.939  0.00  0.00    +0.000 A 
ATOM     22  C   UNL     1      -0.744   4.904   2.247  0.00  0.00    +0.000 A 
ATOM     23  C   UNL     1      -0.328   3.747   1.590  0.00  0.00    +0.000 A 
BRANCH  21  24
ATOM     24  C   UNL     1      -0.606   7.388   2.654  0.00  0.00    +0.000 C 
BRANCH  24  25
ATOM     25  O   UNL     1      -1.113   8.304   1.690  0.00  0.00    +0.000 OA
BRANCH  25  26
ATOM     26  C   UNL     1      -1.581   9.496   2.313  0.00  0.00    +0.000 C 
BRANCH  26  27
ATOM     27  C   UNL     1      -2.079  10.387   1.233  0.00  0.00    +0.000 A 
ATOM     28  C   UNL     1      -2.627  11.654   1.288  0.00  0.00    +0.000 A 
ATOM     29  C   UNL     1      -2.926  12.049  -0.039  0.00  0.00    +0.000 A 
ATOM     30  C   UNL     1      -2.557  11.015  -0.869  0.00  0.00    +0.000 A 
ATOM     31  N   UNL     1      -2.050  10.011  -0.090  0.00  0.00    +0.000 N 
ATOM     32  H   UNL     1      -1.698   9.116  -0.409  0.00  0.00    +0.000 HD
ENDBRANCH  26  27
ENDBRANCH  25  26
ENDBRANCH  24  25
ENDBRANCH  21  24
ENDBRANCH  17  18
ENDBRANCH   1  17
TORSDOF 9
