REMARK  Name = 
REMARK  5 active torsions:
REMARK  status: ('A' for Active; 'I' for Inactive)
REMARK    1  A    between atoms: C_2  and  C_4
REMARK    2  A    between atoms: C_7  and  O_8
REMARK    3  A    between atoms: O_8  and  C_9
REMARK    4  A    between atoms: C_9  and  C_10
REMARK    5  A    between atoms: C_15  and  N_16
REMARK                            x       y       z     vdW  Elec       q    Type
REMARK                         _______ _______ _______ _____ _____    ______ ____
ROOT
ATOM      1  C   UNL     1       5.181  -5.022  -3.244  0.00  0.00    +0.000 C 
ATOM      2  C   UNL     1       5.126  -4.785  -4.748  0.00  0.00    +0.000 C 
ATOM      3  C   UNL     1       3.862  -5.019  -3.991  0.00  0.00    +0.000 C 
ENDROOT
BRANCH   1   4
ATOM      4  C   UNL     1       5.790  -6.320  -2.736  0.00  0.00    +0.000 A 
ATOM      5  C   UNL     1       7.163  -6.556  -2.873  0.00  0.00    +0.000 A 
ATOM      6  C   UNL     1       7.747  -7.713  -2.363  0.00  0.00    +0.000 A 
ATOM      7  C   UNL     1       6.971  -8.655  -1.678  0.00  0.00    +0.000 A 
ATOM      8 CL   UNL     1       7.797 -10.109  -1.206  0.00  0.00    +0.000 Cl
ATOM      9  C   UNL     1       5.587  -8.455  -1.464  0.00  0.00    +0.000 A 
ATOM     10  C   UNL     1       5.032  -7.296  -2.048  0.00  0.00    +0.000 A 
BRANCH   9  11
ATOM     11  N   UNL     1       4.790  -9.305  -0.702  0.00  0.00    +0.000 N 
ATOM     12  C   UNL     1       3.396  -9.599  -1.036  0.00  0.00    +0.000 C 
ATOM     13  C   UNL     1       2.450  -9.052   0.035  0.00  0.00    +0.000 C 
ATOM     14  C   UNL     1       2.854  -9.531   1.428  0.00  0.00    +0.000 C 
ATOM     15  C   UNL     1       4.309  -9.175   1.709  0.00  0.00    +0.000 C 
ATOM     16  C   UNL     1       5.241  -9.726   0.629  0.00  0.00    +0.000 C 
ENDBRANCH   9  11
ENDBRANCH   1   4
BRANCH   1  17
ATOM     17  O   UNL     1       5.601  -3.814  -2.566  0.00  0.00    +0.000 OA
BRANCH  17  21
ATOM     18  C   UNL     1       3.738  -2.299   0.847  0.00  0.00    +0.000 A 
ATOM     19  C   UNL     1       3.263  -3.499   0.297  0.00  0.00    +0.000 A 
ATOM     20  C   UNL     1       3.873  -4.050  -0.834  0.00  0.00    +0.000 A 
ATOM     21  C   UNL     1       4.954  -3.406  -1.431  0.00  0.00    +0.000 A 
ATOM     22  C   UNL     1       5.436  -2.217  -0.880  0.00  0.00    +0.000 A 
ATOM     23  C   UNL     1       4.830  -1.659   0.247  0.00  0.00    +0.000 A 
BRANCH  18  25
ATOM     24  N   UNL     1       2.419  -2.479   2.880  0.00  0.00    +0.000 N 
ATOM     25  C   UNL     1       3.097  -1.664   2.018  0.00  0.00    +0.000 C 
ATOM     26  O   UNL     1       3.190  -0.462   2.229  0.00  0.00    +0.000 OA
ATOM     27  H   UNL     1       2.076  -2.046   3.725  0.00  0.00    +0.000 HD
ATOM     28  H   UNL     1       2.538  -3.483   2.879  0.00  0.00    +0.000 HD
ENDBRANCH  18  25
ENDBRANCH  17  21
ENDBRANCH   1  17
TORSDOF 5
