REMARK  Name = 
REMARK  7 active torsions:
REMARK  status: ('A' for Active; 'I' for Inactive)
REMARK    1  A    between atoms: N_1  and  C_2
REMARK    2  A    between atoms: C_2  and  C_3
REMARK    3  A    between atoms: C_7  and  O_8
REMARK    4  A    between atoms: O_8  and  C_9
REMARK    5  A    between atoms: C_9  and  C_10
REMARK    6  A    between atoms: C_10  and  C_11
REMARK    7  A    between atoms: C_16  and  O_17
REMARK                            x       y       z     vdW  Elec       q    Type
REMARK                         _______ _______ _______ _____ _____    ______ ____
ROOT
ATOM      1  O   UNL     1       4.403  -1.529   4.248  0.00  0.00    +0.000 OA
ENDROOT
BRANCH   1   6
ATOM      2  C   UNL     1       2.855  -1.049   0.900  0.00  0.00    +0.000 A 
ATOM      3  C   UNL     1       2.589  -2.394   0.666  0.00  0.00    +0.000 A 
ATOM      4  N   UNL     1       2.889  -3.389   1.530  0.00  0.00    +0.000 NA
ATOM      5  C   UNL     1       3.486  -3.019   2.689  0.00  0.00    +0.000 A 
ATOM      6  C   UNL     1       3.803  -1.710   3.032  0.00  0.00    +0.000 A 
ATOM      7  C   UNL     1       3.477  -0.715   2.112  0.00  0.00    +0.000 A 
BRANCH   2   8
ATOM      8  C   UNL     1       2.465   0.006  -0.094  0.00  0.00    +0.000 C 
BRANCH   8   9
ATOM      9  N   UNL     1       3.621   0.755  -0.572  0.00  0.00    +0.000 NA
ATOM     10  H   UNL     1       3.325   1.398  -1.304  0.00  0.00    +0.000 HD
ATOM     11  H   UNL     1       4.282   0.111  -1.004  0.00  0.00    +0.000 HD
ENDBRANCH   8   9
ENDBRANCH   2   8
ENDBRANCH   1   6
BRANCH   1  12
ATOM     12  C   UNL     1       4.726  -0.175   4.583  0.00  0.00    +0.000 C 
BRANCH  12  13
ATOM     13  C   UNL     1       5.377  -0.130   5.965  0.00  0.00    +0.000 C 
BRANCH  13  14
ATOM     14  C   UNL     1       5.730   1.275   6.392  0.00  0.00    +0.000 A 
ATOM     15  N   UNL     1       5.461   2.284   5.520  0.00  0.00    +0.000 NA
ATOM     16  C   UNL     1       5.765   3.543   5.897  0.00  0.00    +0.000 A 
ATOM     17  C   UNL     1       6.332   3.860   7.119  0.00  0.00    +0.000 A 
ATOM     18  C   UNL     1       6.609   2.825   8.007  0.00  0.00    +0.000 A 
ATOM     19  C   UNL     1       6.306   1.516   7.640  0.00  0.00    +0.000 A 
BRANCH  19  20
ATOM     20  O   UNL     1       6.565   0.480   8.488  0.00  0.00    +0.000 OA
ATOM     21  H   UNL     1       6.966   0.830   9.301  0.00  0.00    +0.000 HD
ENDBRANCH  19  20
ENDBRANCH  13  14
ENDBRANCH  12  13
ENDBRANCH   1  12
TORSDOF 7
