REMARK  Name = 
REMARK  10 active torsions:
REMARK  status: ('A' for Active; 'I' for Inactive)
REMARK    1  A    between atoms: C_1  and  N_2
REMARK    2  A    between atoms: C_8  and  C_9
REMARK    3  A    between atoms: N_11  and  C_12
REMARK    4  A    between atoms: C_12  and  C_13
REMARK    5  A    between atoms: C_16  and  C_17
REMARK    6  A    between atoms: C_17  and  N_18
REMARK    7  A    between atoms: N_18  and  C_19
REMARK    8  A    between atoms: C_19  and  C_20
REMARK    9  A    between atoms: C_19  and  C_21
REMARK   10  A    between atoms: C_19  and  C_22
REMARK                            x       y       z     vdW  Elec       q    Type
REMARK                         _______ _______ _______ _____ _____    ______ ____
ROOT
ATOM      1  C   UNL     1       7.367  -6.564   0.061  0.00  0.00    +0.000 A 
ATOM      2  C   UNL     1       7.376  -7.966   0.079  0.00  0.00    +0.000 A 
ATOM      3  C   UNL     1       8.581  -8.671   0.091  0.00  0.00    +0.000 A 
ATOM      4  C   UNL     1       9.798  -7.980   0.077  0.00  0.00    +0.000 A 
ATOM      5  C   UNL     1       9.791  -6.585   0.067  0.00  0.00    +0.000 A 
ATOM      6  C   UNL     1       8.589  -5.884   0.066  0.00  0.00    +0.000 A 
ENDROOT
BRANCH   1   7
ATOM      7  C   UNL     1       6.043  -5.852   0.051  0.00  0.00    +0.000 C 
BRANCH   7  10
ATOM      8  C   UNL     1       4.746  -6.447   2.056  0.00  0.00    +0.000 C 
ATOM      9  O   UNL     1       4.405  -7.542   1.584  0.00  0.00    +0.000 OA
ATOM     10  N   UNL     1       5.567  -5.592   1.384  0.00  0.00    +0.000 N 
ATOM     11  H   UNL     1       5.846  -4.729   1.826  0.00  0.00    +0.000 HD
BRANCH   8  19
ATOM     12  C   UNL     1       4.131  -0.973   3.130  0.00  0.00    +0.000 C 
ATOM     13  N   UNL     1       4.004  -2.239   3.812  0.00  0.00    +0.000 N 
ATOM     14  C   UNL     1       3.630  -2.302   5.135  0.00  0.00    +0.000 A 
ATOM     15  N   UNL     1       3.487  -3.388   5.825  0.00  0.00    +0.000 NA
ATOM     16  C   UNL     1       3.743  -4.525   5.135  0.00  0.00    +0.000 A 
ATOM     17  S   UNL     1       3.602  -6.040   5.887  0.00  0.00    +0.000 S 
ATOM     18  C   UNL     1       4.054  -6.852   4.448  0.00  0.00    +0.000 A 
ATOM     19  C   UNL     1       4.327  -5.997   3.389  0.00  0.00    +0.000 A 
ATOM     20  C   UNL     1       4.129  -4.625   3.812  0.00  0.00    +0.000 A 
ATOM     21  C   UNL     1       4.260  -3.382   3.076  0.00  0.00    +0.000 A 
ATOM     22  O   UNL     1       4.607  -3.317   1.886  0.00  0.00    +0.000 OA
ENDBRANCH   8  19
ENDBRANCH   7  10
ENDBRANCH   1   7
BRANCH   4  23
ATOM     23  C   UNL     1      11.137  -8.658   0.097  0.00  0.00    +0.000 C 
BRANCH  23  24
ATOM     24  N   UNL     1      11.646  -8.923  -1.236  0.00  0.00    +0.000 NA
ATOM     25  H   UNL     1      11.713  -8.057  -1.779  0.00  0.00    +0.000 HD
BRANCH  24  26
ATOM     26  C   UNL     1      12.985  -9.576  -1.283  0.00  0.00    +0.000 C 
ATOM     27  C   UNL     1      14.047  -8.691  -0.594  0.00  0.00    +0.000 C 
ATOM     28  C   UNL     1      12.908 -10.956  -0.599  0.00  0.00    +0.000 C 
BRANCH  26  29
ATOM     29  C   UNL     1      13.434  -9.790  -2.751  0.00  0.00    +0.000 A 
ATOM     30  N   UNL     1      13.014  -8.906  -3.686  0.00  0.00    +0.000 NA
ATOM     31  C   UNL     1      13.401  -9.139  -4.954  0.00  0.00    +0.000 A 
ATOM     32  C   UNL     1      14.216 -10.183  -5.318  0.00  0.00    +0.000 A 
ATOM     33  C   UNL     1      14.621 -11.004  -4.297  0.00  0.00    +0.000 A 
ATOM     34  N   UNL     1      14.254 -10.831  -3.017  0.00  0.00    +0.000 NA
ENDBRANCH  26  29
ENDBRANCH  24  26
ENDBRANCH  23  24
ENDBRANCH   4  23
TORSDOF 7
