REMARK  Name = 
REMARK  8 active torsions:
REMARK  status: ('A' for Active; 'I' for Inactive)
REMARK    1  A    between atoms: C_1  and  O_2
REMARK    2  A    between atoms: O_2  and  C_3
REMARK    3  A    between atoms: C_10  and  C_11
REMARK    4  A    between atoms: N_13  and  C_14
REMARK    5  A    between atoms: C_14  and  C_15
REMARK    6  A    between atoms: C_18  and  C_19
REMARK    7  A    between atoms: C_19  and  C_20
REMARK    8  A    between atoms: C_20  and  N_21
REMARK                            x       y       z     vdW  Elec       q    Type
REMARK                         _______ _______ _______ _____ _____    ______ ____
ROOT
ATOM      1  C   UNL     1       1.728   2.914   1.822  0.00  0.00    +0.000 A 
ATOM      2  C   UNL     1       0.628   2.117   1.491  0.00  0.00    +0.000 A 
ATOM      3  C   UNL     1      -0.438   2.639   0.752  0.00  0.00    +0.000 A 
ATOM      4  C   UNL     1      -0.429   3.970   0.313  0.00  0.00    +0.000 A 
ATOM      5  C   UNL     1       0.666   4.773   0.668  0.00  0.00    +0.000 A 
ATOM      6  C   UNL     1       1.734   4.252   1.409  0.00  0.00    +0.000 A 
ENDROOT
BRANCH   1   7
ATOM      7  C   UNL     1       2.904   2.319   2.549  0.00  0.00    +0.000 C 
BRANCH   7  10
ATOM      8  C   UNL     1       4.978   1.103   2.051  0.00  0.00    +0.000 C 
ATOM      9  O   UNL     1       5.229   1.006   3.251  0.00  0.00    +0.000 OA
ATOM     10  N   UNL     1       3.850   1.747   1.619  0.00  0.00    +0.000 N 
ATOM     11  H   UNL     1       3.642   1.809   0.632  0.00  0.00    +0.000 HD
BRANCH   8  19
ATOM     12  C   UNL     1       4.923   0.972  -1.399  0.00  0.00    +0.000 A 
ATOM     13  N   UNL     1       5.126   0.729  -2.710  0.00  0.00    +0.000 NA
ATOM     14  C   UNL     1       6.209   0.030  -3.061  0.00  0.00    +0.000 A 
ATOM     15  N   UNL     1       7.139  -0.461  -2.249  0.00  0.00    +0.000 NA
ATOM     16  C   UNL     1       6.892  -0.210  -0.952  0.00  0.00    +0.000 A 
ATOM     17  S   UNL     1       7.984  -0.758   0.226  0.00  0.00    +0.000 S 
ATOM     18  C   UNL     1       7.033  -0.112   1.476  0.00  0.00    +0.000 A 
ATOM     19  C   UNL     1       5.878   0.526   1.037  0.00  0.00    +0.000 A 
ATOM     20  C   UNL     1       5.806   0.482  -0.421  0.00  0.00    +0.000 A 
BRANCH  12  22
ATOM     21  C   UNL     1       3.392   2.596  -2.071  0.00  0.00    +0.000 C 
ATOM     22  O   UNL     1       3.806   1.699  -1.041  0.00  0.00    +0.000 OA
ENDBRANCH  12  22
ENDBRANCH   8  19
ENDBRANCH   7  10
ENDBRANCH   1   7
BRANCH   4  23
ATOM     23  C   UNL     1      -1.532   4.575  -0.539  0.00  0.00    +0.000 C 
BRANCH  23  24
ATOM     24  C   UNL     1      -2.690   3.633  -0.899  0.00  0.00    +0.000 C 
BRANCH  24  25
ATOM     25  N   UNL     1      -3.680   4.303  -1.732  0.00  0.00    +0.000 N 
ATOM     26  C   UNL     1      -4.754   3.487  -2.074  0.00  0.00    +0.000 A 
ATOM     27  N   UNL     1      -5.162   2.517  -1.239  0.00  0.00    +0.000 NA
ATOM     28  C   UNL     1      -6.209   1.759  -1.630  0.00  0.00    +0.000 A 
ATOM     29  C   UNL     1      -6.862   1.932  -2.824  0.00  0.00    +0.000 A 
ATOM     30 CL   UNL     1      -8.186   0.960  -3.292  0.00  0.00    +0.000 Cl
ATOM     31  C   UNL     1      -6.368   2.942  -3.613  0.00  0.00    +0.000 A 
ATOM     32  N   UNL     1      -5.318   3.724  -3.268  0.00  0.00    +0.000 NA
ATOM     33  H   UNL     1      -3.341   4.700  -2.602  0.00  0.00    +0.000 HD
ENDBRANCH  24  25
ENDBRANCH  23  24
ENDBRANCH   4  23
TORSDOF 7
