REMARK  Name = 
REMARK  6 active torsions:
REMARK  status: ('A' for Active; 'I' for Inactive)
REMARK    1  A    between atoms: C_2  and  C_4
REMARK    2  A    between atoms: N_8  and  C_9
REMARK    3  A    between atoms: C_9  and  C_10
REMARK    4  A    between atoms: C_10  and  C_13
REMARK    5  A    between atoms: C_15  and  O_16
REMARK    6  A    between atoms: O_16  and  C_17
REMARK                            x       y       z     vdW  Elec       q    Type
REMARK                         _______ _______ _______ _____ _____    ______ ____
ROOT
ATOM      1  C   UNL     1       5.134   2.998   5.198  0.00  0.00    +0.000 C 
ENDROOT
BRANCH   1   6
ATOM      2  C   UNL     1       3.011   1.163   0.892  0.00  0.00    +0.000 A 
ATOM      3  C   UNL     1       2.606   1.094   2.219  0.00  0.00    +0.000 A 
ATOM      4  C   UNL     1       3.396   1.695   3.200  0.00  0.00    +0.000 A 
ATOM      5  C   UNL     1       4.577   2.344   2.849  0.00  0.00    +0.000 A 
ATOM      6  N   UNL     1       5.390   2.968   3.757  0.00  0.00    +0.000 N 
ATOM      7  N   UNL     1       4.985   2.399   1.567  0.00  0.00    +0.000 NA
ATOM      8  C   UNL     1       4.207   1.807   0.619  0.00  0.00    +0.000 A 
ATOM      9  H   UNL     1       6.245   3.356   3.376  0.00  0.00    +0.000 HD
BRANCH   2  11
ATOM     10  N   UNL     1       0.891   0.404  -0.026  0.00  0.00    +0.000 N 
ATOM     11  C   UNL     1       2.238   0.561  -0.214  0.00  0.00    +0.000 C 
ATOM     12  O   UNL     1       2.770   0.239  -1.266  0.00  0.00    +0.000 OA
ATOM     13  H   UNL     1       0.360   0.076  -0.823  0.00  0.00    +0.000 HD
ATOM     14  H   UNL     1       0.383   0.871   0.712  0.00  0.00    +0.000 HD
ENDBRANCH   2  11
ENDBRANCH   1   6
BRANCH   1  15
ATOM     15  C   UNL     1       6.195   3.759   6.027  0.00  0.00    +0.000 C 
ATOM     16  F   UNL     1       7.418   3.187   5.792  0.00  0.00    +0.000 F 
ATOM     17  F   UNL     1       6.304   5.035   5.543  0.00  0.00    +0.000 F 
BRANCH  15  18
ATOM     18  C   UNL     1       5.855   3.747   7.516  0.00  0.00    +0.000 A 
ATOM     19  C   UNL     1       6.742   4.344   8.413  0.00  0.00    +0.000 A 
ATOM     20  C   UNL     1       6.473   4.256   9.775  0.00  0.00    +0.000 A 
ATOM     21  C   UNL     1       5.313   3.632  10.209  0.00  0.00    +0.000 A 
ATOM     22  C   UNL     1       4.468   3.089   9.262  0.00  0.00    +0.000 A 
ATOM     23  N   UNL     1       4.716   3.125   7.936  0.00  0.00    +0.000 NA
BRANCH  20  24
ATOM     24  O   UNL     1       7.285   4.762  10.761  0.00  0.00    +0.000 OA
BRANCH  24  25
ATOM     25  C   UNL     1       8.701   4.881  10.494  0.00  0.00    +0.000 C 
ATOM     26  C   UNL     1       9.488   3.567  10.264  0.00  0.00    +0.000 C 
ATOM     27  C   UNL     1      10.568   4.068  11.231  0.00  0.00    +0.000 C 
ATOM     28  C   UNL     1       9.575   5.117  11.749  0.00  0.00    +0.000 C 
ENDBRANCH  24  25
ENDBRANCH  20  24
ENDBRANCH  15  18
ENDBRANCH   1  15
TORSDOF 6
