REMARK  Name = 
REMARK  7 active torsions:
REMARK  status: ('A' for Active; 'I' for Inactive)
REMARK    1  A    between atoms: C_1  and  O_2
REMARK    2  A    between atoms: O_2  and  C_3
REMARK    3  A    between atoms: N_9  and  C_10
REMARK    4  A    between atoms: C_10  and  C_11
REMARK    5  A    between atoms: C_14  and  C_15
REMARK    6  A    between atoms: C_15  and  C_16
REMARK    7  A    between atoms: C_16  and  N_17
REMARK                            x       y       z     vdW  Elec       q    Type
REMARK                         _______ _______ _______ _____ _____    ______ ____
ROOT
ATOM      1  C   UNL     1       6.402  -0.420   3.881  0.00  0.00    +0.000 C 
ENDROOT
BRANCH   1   8
ATOM      2  C   UNL     1       2.699  -2.873   5.002  0.00  0.00    +0.000 A 
ATOM      3  C   UNL     1       2.592  -4.057   4.273  0.00  0.00    +0.000 A 
ATOM      4  C   UNL     1       3.513  -4.355   3.263  0.00  0.00    +0.000 A 
ATOM      5  C   UNL     1       4.570  -3.462   2.995  0.00  0.00    +0.000 A 
ATOM      6  C   UNL     1       5.645  -3.480   2.073  0.00  0.00    +0.000 A 
ATOM      7  C   UNL     1       6.391  -2.344   2.280  0.00  0.00    +0.000 A 
ATOM      8  N   UNL     1       5.810  -1.628   3.303  0.00  0.00    +0.000 N 
ATOM      9  C   UNL     1       4.669  -2.278   3.739  0.00  0.00    +0.000 A 
ATOM     10  C   UNL     1       3.718  -1.954   4.725  0.00  0.00    +0.000 A 
BRANCH   2  12
ATOM     11  C   UNL     1       1.274  -3.575   6.745  0.00  0.00    +0.000 C 
ATOM     12  O   UNL     1       1.831  -2.497   5.995  0.00  0.00    +0.000 OA
ENDBRANCH   2  12
ENDBRANCH   1   8
BRANCH   1  13
ATOM     13  C   UNL     1       6.009   0.814   3.108  0.00  0.00    +0.000 A 
ATOM     14  C   UNL     1       4.922   1.593   3.524  0.00  0.00    +0.000 A 
ATOM     15  C   UNL     1       4.416   2.598   2.698  0.00  0.00    +0.000 A 
ATOM     16  C   UNL     1       4.981   2.831   1.438  0.00  0.00    +0.000 A 
ATOM     17  C   UNL     1       6.148   2.147   1.081  0.00  0.00    +0.000 A 
ATOM     18  C   UNL     1       6.657   1.144   1.909  0.00  0.00    +0.000 A 
BRANCH  16  19
ATOM     19  C   UNL     1       4.267   3.704   0.435  0.00  0.00    +0.000 C 
BRANCH  19  20
ATOM     20  C   UNL     1       4.582   5.192   0.540  0.00  0.00    +0.000 C 
BRANCH  20  21
ATOM     21  N   UNL     1       3.803   5.936  -0.454  0.00  0.00    +0.000 NA
ATOM     22  H   UNL     1       4.060   5.629  -1.393  0.00  0.00    +0.000 HD
ATOM     23  H   UNL     1       4.039   6.926  -0.402  0.00  0.00    +0.000 HD
ENDBRANCH  20  21
ENDBRANCH  19  20
ENDBRANCH  16  19
ENDBRANCH   1  13
TORSDOF 6
