REMARK  Name = 
REMARK  9 active torsions:
REMARK  status: ('A' for Active; 'I' for Inactive)
REMARK    1  A    between atoms: C_1  and  C_2
REMARK    2  A    between atoms: C_7  and  C_8
REMARK    3  A    between atoms: C_12  and  C_13
REMARK    4  A    between atoms: C_13  and  O_14
REMARK    5  A    between atoms: O_14  and  C_15
REMARK    6  A    between atoms: C_15  and  C_16
REMARK    7  A    between atoms: C_16  and  C_17
REMARK    8  A    between atoms: C_16  and  C_18
REMARK    9  A    between atoms: C_16  and  C_19
REMARK                            x       y       z     vdW  Elec       q    Type
REMARK                         _______ _______ _______ _____ _____    ______ ____
ROOT
ATOM      1  C   UNL     1       2.617  -4.130   0.974  0.00  0.00    +0.000 A 
ATOM      2  C   UNL     1       1.944  -2.896   1.033  0.00  0.00    +0.000 A 
ATOM      3  C   UNL     1       0.829  -2.626   0.232  0.00  0.00    +0.000 A 
ATOM      4  C   UNL     1       0.328  -3.607  -0.622  0.00  0.00    +0.000 A 
ATOM      5  C   UNL     1       0.949  -4.856  -0.693  0.00  0.00    +0.000 A 
ATOM      6  C   UNL     1       2.111  -5.078   0.066  0.00  0.00    +0.000 A 
ENDROOT
BRANCH   1  13
ATOM      7  C   UNL     1       3.238  -6.807   2.450  0.00  0.00    +0.000 C 
ATOM      8  C   UNL     1       4.130  -5.596   2.462  0.00  0.00    +0.000 A 
ATOM      9  N   UNL     1       5.263  -5.775   3.205  0.00  0.00    +0.000 NA
ATOM     10  C   UNL     1       6.127  -4.749   3.312  0.00  0.00    +0.000 A 
ATOM     11  C   UNL     1       5.933  -3.531   2.702  0.00  0.00    +0.000 A 
ATOM     12  C   UNL     1       4.784  -3.360   1.936  0.00  0.00    +0.000 A 
ATOM     13  C   UNL     1       3.831  -4.390   1.792  0.00  0.00    +0.000 A 
ENDBRANCH   1  13
BRANCH   5  14
ATOM     14  C   UNL     1       0.423  -5.930  -1.613  0.00  0.00    +0.000 C 
BRANCH  14  15
ATOM     15  O   UNL     1       0.644  -7.217  -1.028  0.00  0.00    +0.000 OA
BRANCH  15  16
ATOM     16  C   UNL     1       0.167  -8.277  -1.858  0.00  0.00    +0.000 C 
BRANCH  16  17
ATOM     17  C   UNL     1       0.449  -9.673  -1.234  0.00  0.00    +0.000 C 
ATOM     18  C   UNL     1       1.964  -9.823  -0.979  0.00  0.00    +0.000 C 
ATOM     19  C   UNL     1       0.013 -10.724  -2.282  0.00  0.00    +0.000 C 
BRANCH  17  20
ATOM     20  C   UNL     1      -0.302  -9.974   0.071  0.00  0.00    +0.000 A 
ATOM     21  C   UNL     1      -1.142  -9.057   0.705  0.00  0.00    +0.000 A 
ATOM     22  C   UNL     1      -1.818  -9.427   1.871  0.00  0.00    +0.000 A 
ATOM     23  C   UNL     1      -1.639 -10.701   2.387  0.00  0.00    +0.000 A 
ATOM     24 CL   UNL     1      -2.464 -11.199   3.806  0.00  0.00    +0.000 Cl
ATOM     25  C   UNL     1      -0.782 -11.555   1.721  0.00  0.00    +0.000 A 
ATOM     26  N   UNL     1      -0.122 -11.223   0.585  0.00  0.00    +0.000 NA
ENDBRANCH  17  20
ENDBRANCH  16  17
ENDBRANCH  15  16
ENDBRANCH  14  15
ENDBRANCH   5  14
TORSDOF 6
