REMARK  Name = 
REMARK  7 active torsions:
REMARK  status: ('A' for Active; 'I' for Inactive)
REMARK    1  A    between atoms: C_1  and  O_2
REMARK    2  A    between atoms: O_2  and  C_3
REMARK    3  A    between atoms: C_6  and  C_7
REMARK    4  A    between atoms: C_11  and  C_12
REMARK    5  A    between atoms: C_12  and  C_13
REMARK    6  A    between atoms: C_13  and  N_14
REMARK    7  A    between atoms: C_18  and  C_19
REMARK                            x       y       z     vdW  Elec       q    Type
REMARK                         _______ _______ _______ _____ _____    ______ ____
ROOT
ATOM      1  C   UNL     1       6.073   5.087  -6.463  0.00  0.00    +0.000 C 
ENDROOT
BRANCH   1   6
ATOM      2  C   UNL     1       5.024   4.128  -2.856  0.00  0.00    +0.000 A 
ATOM      3  C   UNL     1       5.631   5.187  -2.163  0.00  0.00    +0.000 A 
ATOM      4  C   UNL     1       6.315   6.201  -2.836  0.00  0.00    +0.000 A 
ATOM      5  C   UNL     1       6.430   6.165  -4.223  0.00  0.00    +0.000 A 
ATOM      6  C   UNL     1       5.872   5.111  -4.956  0.00  0.00    +0.000 A 
ATOM      7  C   UNL     1       5.164   4.110  -4.256  0.00  0.00    +0.000 A 
BRANCH   2  11
ATOM      8  C   UNL     1       2.983   1.007  -0.817  0.00  0.00    +0.000 A 
ATOM      9  C   UNL     1       2.918   2.296  -0.306  0.00  0.00    +0.000 A 
ATOM     10  C   UNL     1       3.557   3.335  -0.981  0.00  0.00    +0.000 A 
ATOM     11  C   UNL     1       4.275   3.071  -2.147  0.00  0.00    +0.000 A 
ATOM     12  N   UNL     1       4.336   1.819  -2.669  0.00  0.00    +0.000 NA
ATOM     13  C   UNL     1       3.703   0.826  -1.991  0.00  0.00    +0.000 A 
BRANCH   8  15
ATOM     14  C   UNL     1       1.333   0.145   0.630  0.00  0.00    +0.000 C 
ATOM     15  O   UNL     1       2.429  -0.101  -0.246  0.00  0.00    +0.000 OA
ENDBRANCH   8  15
ENDBRANCH   2  11
ENDBRANCH   1   6
BRANCH   1  16
ATOM     16  C   UNL     1       5.446   3.875  -7.155  0.00  0.00    +0.000 C 
BRANCH  16  17
ATOM     17  N   UNL     1       5.693   3.846  -8.601  0.00  0.00    +0.000 N 
ATOM     18  C   UNL     1       5.097   2.702  -9.181  0.00  0.00    +0.000 A 
ATOM     19  C   UNL     1       5.236   2.485 -10.547  0.00  0.00    +0.000 A 
ATOM     20  C   UNL     1       4.632   1.363 -11.128  0.00  0.00    +0.000 A 
ATOM     21  C   UNL     1       3.901   0.476 -10.335  0.00  0.00    +0.000 A 
ATOM     22  C   UNL     1       3.810   0.773  -8.987  0.00  0.00    +0.000 A 
ATOM     23  N   UNL     1       4.381   1.854  -8.412  0.00  0.00    +0.000 NA
ATOM     24  H   UNL     1       6.685   3.833  -8.820  0.00  0.00    +0.000 HD
BRANCH  21  25
ATOM     25  C   UNL     1       3.266  -0.711 -10.951  0.00  0.00    +0.000 C 
ATOM     26  N   UNL     1       2.562  -1.580 -10.161  0.00  0.00    +0.000 N 
ATOM     27  O   UNL     1       3.365  -0.927 -12.154  0.00  0.00    +0.000 OA
ATOM     28  H   UNL     1       2.423  -1.502  -9.166  0.00  0.00    +0.000 HD
ATOM     29  H   UNL     1       2.149  -2.373 -10.628  0.00  0.00    +0.000 HD
ENDBRANCH  21  25
ENDBRANCH  16  17
ENDBRANCH   1  16
TORSDOF 6
