REMARK  Name = 
REMARK  3 active torsions:
REMARK  status: ('A' for Active; 'I' for Inactive)
REMARK    1  A    between atoms: C_2  and  C_4
REMARK    2  A    between atoms: N_8  and  C_9
REMARK    3  A    between atoms: C_9  and  C_10
REMARK                            x       y       z     vdW  Elec       q    Type
REMARK                         _______ _______ _______ _____ _____    ______ ____
ROOT
ATOM      1  C   UNL     1       3.211  -1.342  -0.190  0.00  0.00    +0.000 A 
ATOM      2  C   UNL     1       3.789  -1.762   1.003  0.00  0.00    +0.000 A 
ATOM      3  C   UNL     1       4.530  -2.943   1.016  0.00  0.00    +0.000 A 
ATOM      4  C   UNL     1       4.658  -3.698  -0.149  0.00  0.00    +0.000 A 
ATOM      5  N   UNL     1       5.284  -4.932  -0.044  0.00  0.00    +0.000 N 
ATOM      6  N   UNL     1       4.097  -3.303  -1.307  0.00  0.00    +0.000 NA
ATOM      7  C   UNL     1       3.389  -2.142  -1.309  0.00  0.00    +0.000 A 
ATOM      8  H   UNL     1       6.210  -4.884   0.361  0.00  0.00    +0.000 HD
ENDROOT
BRANCH   1  10
ATOM      9  N   UNL     1       2.609   0.869   0.617  0.00  0.00    +0.000 N 
ATOM     10  C   UNL     1       2.389  -0.121  -0.301  0.00  0.00    +0.000 C 
ATOM     11  O   UNL     1       1.560   0.014  -1.190  0.00  0.00    +0.000 OA
ATOM     12  H   UNL     1       2.101   1.734   0.476  0.00  0.00    +0.000 HD
ATOM     13  H   UNL     1       3.420   0.895   1.216  0.00  0.00    +0.000 HD
ENDBRANCH   1  10
BRANCH   5  14
ATOM     14  C   UNL     1       5.146  -5.889  -1.126  0.00  0.00    +0.000 C 
BRANCH  14  15
ATOM     15  C   UNL     1       4.811  -7.226  -0.505  0.00  0.00    +0.000 A 
ATOM     16  C   UNL     1       3.700  -7.339   0.343  0.00  0.00    +0.000 A 
ATOM     17  C   UNL     1       3.414  -8.567   0.915  0.00  0.00    +0.000 A 
ATOM     18  N   UNL     1       4.141  -9.680   0.692  0.00  0.00    +0.000 NA
ATOM     19  C   UNL     1       5.199  -9.556  -0.139  0.00  0.00    +0.000 A 
ATOM     20  C   UNL     1       5.571  -8.369  -0.756  0.00  0.00    +0.000 A 
ENDBRANCH  14  15
ENDBRANCH   5  14
TORSDOF 3
