REMARK  Name = 
REMARK  6 active torsions:
REMARK  status: ('A' for Active; 'I' for Inactive)
REMARK    1  A    between atoms: C_1  and  C_2
REMARK    2  A    between atoms: C_2  and  O_3
REMARK    3  A    between atoms: C_2  and  C_14
REMARK    4  A    between atoms: O_3  and  C_4
REMARK    5  A    between atoms: C_7  and  C_8
REMARK    6  A    between atoms: C_12  and  N_13
REMARK                            x       y       z     vdW  Elec       q    Type
REMARK                         _______ _______ _______ _____ _____    ______ ____
ROOT
ATOM      1  C   UNL     1       2.204  -2.142  -1.216  0.00  0.00    +0.000 A 
ATOM      2  N   UNL     1       2.347  -2.779  -0.027  0.00  0.00    +0.000 NA
ATOM      3  C   UNL     1       2.067  -4.109  -0.051  0.00  0.00    +0.000 A 
ATOM      4  C   UNL     1       1.660  -4.760  -1.206  0.00  0.00    +0.000 A 
ATOM      5  N   UNL     1       1.529  -4.128  -2.407  0.00  0.00    +0.000 NA
ATOM      6  C   UNL     1       1.828  -2.815  -2.400  0.00  0.00    +0.000 A 
ENDROOT
BRANCH   4   7
ATOM      7  C   UNL     1       1.366  -6.218  -1.189  0.00  0.00    +0.000 C 
ATOM      8  N   UNL     1       0.943  -6.744  -2.380  0.00  0.00    +0.000 N 
ATOM      9  O   UNL     1       1.497  -6.903  -0.181  0.00  0.00    +0.000 OA
ATOM     10  H   UNL     1       0.842  -6.142  -3.188  0.00  0.00    +0.000 HD
ATOM     11  H   UNL     1       0.733  -7.730  -2.452  0.00  0.00    +0.000 HD
ENDBRANCH   4   7
BRANCH   6  12
ATOM     12  N   UNL     1       1.711  -2.175  -3.635  0.00  0.00    +0.000 N 
ATOM     13  H   UNL     1       1.502  -2.881  -4.334  0.00  0.00    +0.000 HD
ATOM     14  H   UNL     1       2.558  -1.655  -3.848  0.00  0.00    +0.000 HD
ENDBRANCH   6  12
BRANCH   1  15
ATOM     15  O   UNL     1       2.469  -0.787  -1.301  0.00  0.00    +0.000 OA
BRANCH  15  17
ATOM     16  C   UNL     1       1.041   0.020   0.518  0.00  0.00    +0.000 C 
ATOM     17  C   UNL     1       2.463  -0.079  -0.050  0.00  0.00    +0.000 C 
BRANCH  17  18
ATOM     18  C   UNL     1       2.987   1.333  -0.276  0.00  0.00    +0.000 A 
ATOM     19  C   UNL     1       2.804   2.034  -1.473  0.00  0.00    +0.000 A 
ATOM     20  C   UNL     1       3.241   3.353  -1.584  0.00  0.00    +0.000 A 
ATOM     21  C   UNL     1       3.847   3.939  -0.486  0.00  0.00    +0.000 A 
ATOM     22  N   UNL     1       4.046   3.301   0.687  0.00  0.00    +0.000 NA
ATOM     23  C   UNL     1       3.613   2.020   0.764  0.00  0.00    +0.000 A 
ENDBRANCH  17  18
ENDBRANCH  15  17
ENDBRANCH   1  15
TORSDOF 5
