REMARK  Name = 
REMARK  9 active torsions:
REMARK  status: ('A' for Active; 'I' for Inactive)
REMARK    1  A    between atoms: C_1  and  O_2
REMARK    2  A    between atoms: O_2  and  C_3
REMARK    3  A    between atoms: C_10  and  C_11
REMARK    4  A    between atoms: N_13  and  C_14
REMARK    5  A    between atoms: C_14  and  C_15
REMARK    6  A    between atoms: C_18  and  N_19
REMARK    7  A    between atoms: N_19  and  C_20
REMARK    8  A    between atoms: C_20  and  C_21
REMARK    9  A    between atoms: N_24  and  C_25
REMARK                            x       y       z     vdW  Elec       q    Type
REMARK                         _______ _______ _______ _____ _____    ______ ____
ROOT
ATOM      1  C   UNL     1       3.057  -2.766   1.725  0.00  0.00    +0.000 C 
ENDROOT
BRANCH   1   2
ATOM      2  C   UNL     1       2.032  -2.139   2.641  0.00  0.00    +0.000 A 
ATOM      3  C   UNL     1       1.125  -2.928   3.356  0.00  0.00    +0.000 A 
ATOM      4  C   UNL     1       0.223  -2.343   4.260  0.00  0.00    +0.000 A 
ATOM      5  C   UNL     1       0.162  -0.956   4.438  0.00  0.00    +0.000 A 
ATOM      6  C   UNL     1       1.077  -0.176   3.727  0.00  0.00    +0.000 A 
ATOM      7  C   UNL     1       1.995  -0.753   2.838  0.00  0.00    +0.000 A 
BRANCH   5   8
ATOM      8  N   UNL     1      -0.698  -0.320   5.325  0.00  0.00    +0.000 N 
ATOM      9  H   UNL     1      -1.208   0.481   4.969  0.00  0.00    +0.000 HD
BRANCH   8  10
ATOM     10  C   UNL     1      -1.186  -1.009   6.497  0.00  0.00    +0.000 C 
BRANCH  10  11
ATOM     11  C   UNL     1      -2.173  -0.172   7.333  0.00  0.00    +0.000 C 
ATOM     12  C   UNL     1      -1.628   1.166   7.853  0.00  0.00    +0.000 C 
ATOM     13  C   UNL     1      -0.503   0.970   8.867  0.00  0.00    +0.000 C 
ATOM     14  N   UNL     1      -0.944   0.139   9.998  0.00  0.00    +0.000 NA
ATOM     15  C   UNL     1       0.164  -0.041  10.937  0.00  0.00    +0.000 C 
ATOM     16  C   UNL     1      -1.450  -1.167   9.557  0.00  0.00    +0.000 C 
ATOM     17  C   UNL     1      -2.598  -1.014   8.549  0.00  0.00    +0.000 C 
ENDBRANCH  10  11
ENDBRANCH   8  10
ENDBRANCH   5   8
ENDBRANCH   1   2
BRANCH   1  20
ATOM     18  C   UNL     1       3.158  -2.468  -0.741  0.00  0.00    +0.000 C 
ATOM     19  O   UNL     1       4.183  -1.806  -0.702  0.00  0.00    +0.000 OA
ATOM     20  N   UNL     1       2.556  -2.981   0.384  0.00  0.00    +0.000 N 
ATOM     21  H   UNL     1       1.712  -3.526   0.287  0.00  0.00    +0.000 HD
BRANCH  18  29
ATOM     22  C   UNL     1      -0.055  -3.218  -1.576  0.00  0.00    +0.000 A 
ATOM     23  N   UNL     1      -1.232  -3.504  -2.161  0.00  0.00    +0.000 NA
ATOM     24  C   UNL     1      -1.255  -3.665  -3.486  0.00  0.00    +0.000 A 
ATOM     25  N   UNL     1      -0.216  -3.601  -4.315  0.00  0.00    +0.000 NA
ATOM     26  C   UNL     1       0.942  -3.335  -3.691  0.00  0.00    +0.000 A 
ATOM     27  S   UNL     1       2.384  -3.220  -4.582  0.00  0.00    +0.000 S 
ATOM     28  C   UNL     1       3.286  -2.863  -3.181  0.00  0.00    +0.000 A 
ATOM     29  C   UNL     1       2.520  -2.819  -2.025  0.00  0.00    +0.000 A 
ATOM     30  C   UNL     1       1.127  -3.125  -2.327  0.00  0.00    +0.000 A 
BRANCH  22  32
ATOM     31  C   UNL     1      -1.324  -3.071   0.385  0.00  0.00    +0.000 C 
ATOM     32  O   UNL     1      -0.027  -3.051  -0.207  0.00  0.00    +0.000 OA
ENDBRANCH  22  32
ENDBRANCH  18  29
ENDBRANCH   1  20
TORSDOF 7
