REMARK  Name = 
REMARK  10 active torsions:
REMARK  status: ('A' for Active; 'I' for Inactive)
REMARK    1  A    between atoms: N_1  and  C_2
REMARK    2  A    between atoms: C_2  and  C_3
REMARK    3  A    between atoms: C_3  and  N_4
REMARK    4  A    between atoms: N_4  and  C_5
REMARK    5  A    between atoms: N_4  and  C_26
REMARK    6  A    between atoms: C_5  and  C_6
REMARK    7  A    between atoms: C_9  and  C_10
REMARK    8  A    between atoms: C_10  and  N_11
REMARK    9  A    between atoms: C_12  and  C_14
REMARK   10  A    between atoms: C_26  and  C_27
REMARK                            x       y       z     vdW  Elec       q    Type
REMARK                         _______ _______ _______ _____ _____    ______ ____
ROOT
ATOM      1  C   UNL     1       4.708  -0.800   1.309  0.00  0.00    +0.000 A 
ATOM      2  C   UNL     1       4.278  -1.553   2.407  0.00  0.00    +0.000 A 
ATOM      3  C   UNL     1       3.946  -0.925   3.614  0.00  0.00    +0.000 A 
ATOM      4  C   UNL     1       4.010   0.471   3.737  0.00  0.00    +0.000 A 
ATOM      5  C   UNL     1       4.480   1.220   2.652  0.00  0.00    +0.000 A 
ATOM      6  C   UNL     1       4.837   0.591   1.459  0.00  0.00    +0.000 A 
ENDROOT
BRANCH   1   7
ATOM      7  C   UNL     1       4.977  -1.449  -0.039  0.00  0.00    +0.000 C 
BRANCH   7   8
ATOM      8  N   UNL     1       3.792  -1.528  -0.924  0.00  0.00    +0.000 NA
BRANCH   8   9
ATOM      9  C   UNL     1       4.113  -2.262  -2.178  0.00  0.00    +0.000 C 
BRANCH   9  10
ATOM     10  C   UNL     1       5.164  -1.600  -3.105  0.00  0.00    +0.000 C 
BRANCH  10  11
ATOM     11  N   UNL     1       5.405  -2.342  -4.342  0.00  0.00    +0.000 NA
ATOM     12  H   UNL     1       6.098  -1.827  -4.888  0.00  0.00    +0.000 HD
ATOM     13  H   UNL     1       4.554  -2.321  -4.906  0.00  0.00    +0.000 HD
ENDBRANCH  10  11
ENDBRANCH   9  10
ENDBRANCH   8   9
BRANCH   8  14
ATOM     14  C   UNL     1       3.265  -0.174  -1.215  0.00  0.00    +0.000 C 
BRANCH  14  15
ATOM     15  C   UNL     1       2.001  -0.117  -2.047  0.00  0.00    +0.000 A 
ATOM     16  C   UNL     1       0.836  -0.729  -1.591  0.00  0.00    +0.000 A 
ATOM     17  C   UNL     1      -0.333  -0.577  -2.335  0.00  0.00    +0.000 A 
ATOM     18  C   UNL     1      -0.302   0.183  -3.497  0.00  0.00    +0.000 A 
ATOM     19  C   UNL     1       0.902   0.752  -3.881  0.00  0.00    +0.000 A 
ATOM     20  N   UNL     1       2.049   0.616  -3.191  0.00  0.00    +0.000 NA
ENDBRANCH  14  15
ENDBRANCH   8  14
ENDBRANCH   7   8
ENDBRANCH   1   7
BRANCH   4  21
ATOM     21  C   UNL     1       3.598   1.174   5.005  0.00  0.00    +0.000 C 
BRANCH  21  22
ATOM     22  N   UNL     1       4.716   1.354   5.892  0.00  0.00    +0.000 N 
ATOM     23  C   UNL     1       4.559   1.931   7.127  0.00  0.00    +0.000 C 
ATOM     24  O   UNL     1       3.464   2.286   7.551  0.00  0.00    +0.000 OA
ATOM     25  H   UNL     1       5.640   1.335   5.473  0.00  0.00    +0.000 HD
BRANCH  23  26
ATOM     26  C   UNL     1       5.772   2.056   7.944  0.00  0.00    +0.000 A 
ATOM     27  C   UNL     1       5.674   2.096   9.328  0.00  0.00    +0.000 A 
ATOM     28  S   UNL     1       7.180   2.240  10.117  0.00  0.00    +0.000 S 
ATOM     29  C   UNL     1       8.016   2.286   8.634  0.00  0.00    +0.000 A 
ATOM     30  N   UNL     1       9.364   2.434   8.595  0.00  0.00    +0.000 NA
ATOM     31  C   UNL     1       9.864   2.469   7.404  0.00  0.00    +0.000 A 
ATOM     32  N   UNL     1       9.135   2.357   6.249  0.00  0.00    +0.000 N 
ATOM     33  C   UNL     1       7.775   2.186   6.241  0.00  0.00    +0.000 A 
ATOM     34  O   UNL     1       7.158   2.045   5.189  0.00  0.00    +0.000 OA
ATOM     35  C   UNL     1       7.158   2.160   7.555  0.00  0.00    +0.000 A 
ATOM     36  H   UNL     1       9.588   2.371   5.346  0.00  0.00    +0.000 HD
ENDBRANCH  23  26
ENDBRANCH  21  22
ENDBRANCH   4  21
TORSDOF 10
