REMARK  Name = 
REMARK  4 active torsions:
REMARK  status: ('A' for Active; 'I' for Inactive)
REMARK    1  A    between atoms: C_2  and  C_4
REMARK    2  A    between atoms: C_7  and  N_8
REMARK    3  A    between atoms: N_8  and  C_9
REMARK    4  A    between atoms: C_9  and  C_10
REMARK                            x       y       z     vdW  Elec       q    Type
REMARK                         _______ _______ _______ _____ _____    ______ ____
ROOT
ATOM      1  C   UNL     1       3.051   1.056  -0.633  0.00  0.00    +0.000 A 
ATOM      2  C   UNL     1       2.360   1.975  -1.428  0.00  0.00    +0.000 A 
ATOM      3  C   UNL     1       3.057   2.993  -2.089  0.00  0.00    +0.000 A 
ATOM      4  C   UNL     1       4.443   3.127  -1.946  0.00  0.00    +0.000 A 
ATOM      5  C   UNL     1       5.127   2.166  -1.193  0.00  0.00    +0.000 A 
ATOM      6  C   UNL     1       4.440   1.153  -0.519  0.00  0.00    +0.000 A 
ENDROOT
BRANCH   1   8
ATOM      7  N   UNL     1       1.161  -0.459  -0.376  0.00  0.00    +0.000 N 
ATOM      8  C   UNL     1       2.350  -0.012   0.126  0.00  0.00    +0.000 C 
ATOM      9  O   UNL     1       2.828  -0.501   1.141  0.00  0.00    +0.000 OA
ATOM     10  H   UNL     1       0.755  -1.260   0.091  0.00  0.00    +0.000 HD
ATOM     11  H   UNL     1       0.870  -0.272  -1.325  0.00  0.00    +0.000 HD
ENDBRANCH   1   8
BRANCH   4  12
ATOM     12  N   UNL     1       5.197   4.129  -2.566  0.00  0.00    +0.000 N 
ATOM     13  H   UNL     1       5.654   3.772  -3.403  0.00  0.00    +0.000 HD
BRANCH  12  14
ATOM     14  C   UNL     1       4.539   5.408  -2.822  0.00  0.00    +0.000 C 
BRANCH  14  15
ATOM     15  C   UNL     1       5.539   6.538  -2.931  0.00  0.00    +0.000 A 
ATOM     16  C   UNL     1       5.198   7.686  -3.665  0.00  0.00    +0.000 A 
ATOM     17  C   UNL     1       6.055   8.788  -3.706  0.00  0.00    +0.000 A 
ATOM     18  C   UNL     1       7.260   8.762  -3.009  0.00  0.00    +0.000 A 
ATOM     19  C   UNL     1       7.610   7.635  -2.268  0.00  0.00    +0.000 A 
ATOM     20  C   UNL     1       6.750   6.535  -2.222  0.00  0.00    +0.000 A 
ENDBRANCH  14  15
ENDBRANCH  12  14
ENDBRANCH   4  12
TORSDOF 4
