REMARK  Name = 
REMARK  6 active torsions:
REMARK  status: ('A' for Active; 'I' for Inactive)
REMARK    1  A    between atoms: C_1  and  C_2
REMARK    2  A    between atoms: C_4  and  C_5
REMARK    3  A    between atoms: C_10  and  N_11
REMARK    4  A    between atoms: N_11  and  C_12
REMARK    5  A    between atoms: C_12  and  C_13
REMARK    6  A    between atoms: C_17  and  C_18
REMARK                            x       y       z     vdW  Elec       q    Type
REMARK                         _______ _______ _______ _____ _____    ______ ____
ROOT
ATOM      1  N   UNL     1       1.006  -2.402  -0.132  0.00  0.00    +0.000 N 
ATOM      2  H   UNL     1       0.432  -3.106   0.327  0.00  0.00    +0.000 HD
ENDROOT
BRANCH   1   9
ATOM      3  C   UNL     1       2.534   0.328  -0.086  0.00  0.00    +0.000 C 
ATOM      4  C   UNL     1       1.048   0.112  -0.193  0.00  0.00    +0.000 A 
ATOM      5  C   UNL     1       0.275   1.290  -0.323  0.00  0.00    +0.000 A 
ATOM      6  C   UNL     1      -1.118   1.267  -0.435  0.00  0.00    +0.000 A 
ATOM      7  C   UNL     1      -1.760   0.035  -0.413  0.00  0.00    +0.000 A 
ATOM      8  C   UNL     1      -1.004  -1.142  -0.282  0.00  0.00    +0.000 A 
ATOM      9  C   UNL     1       0.404  -1.143  -0.152  0.00  0.00    +0.000 A 
BRANCH   6  10
ATOM     10  C   UNL     1      -1.819   2.577  -0.586  0.00  0.00    +0.000 C 
ATOM     11  N   UNL     1      -3.179   2.585  -0.711  0.00  0.00    +0.000 N 
ATOM     12  O   UNL     1      -1.204   3.635  -0.602  0.00  0.00    +0.000 OA
ATOM     13  H   UNL     1      -3.769   1.771  -0.721  0.00  0.00    +0.000 HD
ATOM     14  H   UNL     1      -3.616   3.491  -0.823  0.00  0.00    +0.000 HD
ENDBRANCH   6  10
ENDBRANCH   1   9
BRANCH   1  15
ATOM     15  C   UNL     1       2.430  -2.625   0.043  0.00  0.00    +0.000 C 
BRANCH  15  16
ATOM     16  C   UNL     1       2.774  -4.088   0.007  0.00  0.00    +0.000 A 
ATOM     17  C   UNL     1       3.481  -4.685   1.041  0.00  0.00    +0.000 A 
ATOM     18  N   UNL     1       3.900  -5.967   1.022  0.00  0.00    +0.000 NA
ATOM     19  C   UNL     1       3.603  -6.688  -0.088  0.00  0.00    +0.000 A 
ATOM     20  C   UNL     1       2.893  -6.212  -1.193  0.00  0.00    +0.000 A 
ATOM     21  C   UNL     1       2.483  -4.873  -1.115  0.00  0.00    +0.000 A 
BRANCH  20  22
ATOM     22  C   UNL     1       2.580  -7.054  -2.366  0.00  0.00    +0.000 A 
ATOM     23  C   UNL     1       2.336  -8.436  -2.232  0.00  0.00    +0.000 A 
ATOM     24  C   UNL     1       1.996  -9.230  -3.333  0.00  0.00    +0.000 A 
ATOM     25  C   UNL     1       1.885  -8.655  -4.594  0.00  0.00    +0.000 A 
ATOM     26  C   UNL     1       2.129  -7.298  -4.745  0.00  0.00    +0.000 A 
ATOM     27  F   UNL     1       2.016  -6.739  -5.957  0.00  0.00    +0.000 F 
ATOM     28  C   UNL     1       2.481  -6.504  -3.657  0.00  0.00    +0.000 A 
ENDBRANCH  20  22
ENDBRANCH  15  16
ENDBRANCH   1  15
TORSDOF 5
