REMARK  Name = 
REMARK  4 active torsions:
REMARK  status: ('A' for Active; 'I' for Inactive)
REMARK    1  A    between atoms: C_2  and  C_4
REMARK    2  A    between atoms: N_8  and  C_9
REMARK    3  A    between atoms: C_9  and  C_10
REMARK    4  A    between atoms: C_14  and  N_15
REMARK                            x       y       z     vdW  Elec       q    Type
REMARK                         _______ _______ _______ _____ _____    ______ ____
ROOT
ATOM      1  C   UNL     1       7.845  -1.552  -0.518  0.00  0.00    +0.000 A 
ATOM      2  C   UNL     1       7.288  -2.722  -1.019  0.00  0.00    +0.000 A 
ATOM      3  C   UNL     1       6.575  -3.560  -0.157  0.00  0.00    +0.000 A 
ATOM      4  C   UNL     1       6.434  -3.219   1.184  0.00  0.00    +0.000 A 
ATOM      5  N   UNL     1       5.686  -3.943   2.082  0.00  0.00    +0.000 N 
ATOM      6  N   UNL     1       6.982  -2.091   1.682  0.00  0.00    +0.000 NA
ATOM      7  C   UNL     1       7.682  -1.291   0.833  0.00  0.00    +0.000 A 
ATOM      8  H   UNL     1       5.773  -3.543   3.010  0.00  0.00    +0.000 HD
ENDROOT
BRANCH   1  10
ATOM      9  N   UNL     1       8.279  -0.537  -2.681  0.00  0.00    +0.000 N 
ATOM     10  C   UNL     1       8.600  -0.599  -1.354  0.00  0.00    +0.000 C 
ATOM     11  O   UNL     1       9.455   0.135  -0.874  0.00  0.00    +0.000 OA
ATOM     12  H   UNL     1       8.728   0.193  -3.219  0.00  0.00    +0.000 HD
ATOM     13  H   UNL     1       7.419  -0.923  -3.050  0.00  0.00    +0.000 HD
ENDBRANCH   1  10
BRANCH   5  14
ATOM     14  C   UNL     1       5.512  -5.380   2.015  0.00  0.00    +0.000 C 
BRANCH  14  15
ATOM     15  C   UNL     1       6.577  -6.199   2.696  0.00  0.00    +0.000 A 
ATOM     16  C   UNL     1       6.452  -7.586   2.669  0.00  0.00    +0.000 A 
ATOM     17  N   UNL     1       7.331  -8.444   3.221  0.00  0.00    +0.000 NA
ATOM     18  C   UNL     1       8.400  -7.885   3.841  0.00  0.00    +0.000 A 
ATOM     19  C   UNL     1       8.657  -6.516   3.955  0.00  0.00    +0.000 A 
ATOM     20  C   UNL     1       7.699  -5.682   3.358  0.00  0.00    +0.000 A 
BRANCH  19  21
ATOM     21  N   UNL     1       9.768  -6.008   4.599  0.00  0.00    +0.000 N 
ATOM     22  C   UNL     1      11.048  -6.718   4.620  0.00  0.00    +0.000 C 
ATOM     23  C   UNL     1      11.445  -7.027   6.061  0.00  0.00    +0.000 C 
ATOM     24  C   UNL     1      11.431  -5.763   6.919  0.00  0.00    +0.000 C 
ATOM     25  C   UNL     1      10.090  -5.038   6.814  0.00  0.00    +0.000 C 
ATOM     26  C   UNL     1       9.711  -4.758   5.359  0.00  0.00    +0.000 C 
ENDBRANCH  19  21
ENDBRANCH  14  15
ENDBRANCH   5  14
TORSDOF 4
