REMARK  Name = 
REMARK  7 active torsions:
REMARK  status: ('A' for Active; 'I' for Inactive)
REMARK    1  A    between atoms: N_1  and  C_2
REMARK    2  A    between atoms: C_2  and  C_3
REMARK    3  A    between atoms: C_3  and  N_4
REMARK    4  A    between atoms: C_3  and  C_5
REMARK    5  A    between atoms: C_8  and  C_9
REMARK    6  A    between atoms: C_9  and  N_10
REMARK    7  A    between atoms: C_15  and  C_16
REMARK                            x       y       z     vdW  Elec       q    Type
REMARK                         _______ _______ _______ _____ _____    ______ ____
ROOT
ATOM      1  C   UNL     1       8.929   0.576  -0.926  0.00  0.00    +0.000 C 
ENDROOT
BRANCH   1   2
ATOM      2  N   UNL     1       9.270   0.123   0.415  0.00  0.00    +0.000 N 
ATOM      3  N   UNL     1       9.380  -1.205   0.644  0.00  0.00    +0.000 NA
ATOM      4  N   UNL     1       8.964  -1.421   1.884  0.00  0.00    +0.000 NA
ATOM      5  C   UNL     1       8.699  -0.208   2.458  0.00  0.00    +0.000 A 
ATOM      6  C   UNL     1       8.128   0.104   3.695  0.00  0.00    +0.000 A 
ATOM      7  C   UNL     1       7.973   1.458   4.024  0.00  0.00    +0.000 A 
ATOM      8  C   UNL     1       8.455   2.470   3.181  0.00  0.00    +0.000 A 
ATOM      9  C   UNL     1       8.990   2.170   1.922  0.00  0.00    +0.000 A 
ATOM     10  C   UNL     1       9.049   0.814   1.584  0.00  0.00    +0.000 A 
BRANCH   7  11
ATOM     11  C   UNL     1       7.265   1.846   5.270  0.00  0.00    +0.000 C 
ATOM     12  N   UNL     1       6.256   1.024   5.684  0.00  0.00    +0.000 N 
ATOM     13  O   UNL     1       7.524   2.887   5.859  0.00  0.00    +0.000 OA
ATOM     14  H   UNL     1       5.848   0.330   5.074  0.00  0.00    +0.000 HD
ATOM     15  H   UNL     1       5.684   1.362   6.448  0.00  0.00    +0.000 HD
ENDBRANCH   7  11
ENDBRANCH   1   2
BRANCH   1  19
ATOM     16  C   UNL     1       4.586   0.678  -1.150  0.00  0.00    +0.000 A 
ATOM     17  C   UNL     1       5.324   1.856  -0.959  0.00  0.00    +0.000 A 
ATOM     18  C   UNL     1       6.723   1.835  -0.928  0.00  0.00    +0.000 A 
ATOM     19  C   UNL     1       7.421   0.630  -1.078  0.00  0.00    +0.000 A 
ATOM     20  C   UNL     1       6.685  -0.551  -1.257  0.00  0.00    +0.000 A 
ATOM     21  C   UNL     1       5.288  -0.528  -1.290  0.00  0.00    +0.000 A 
BRANCH  16  22
ATOM     22  C   UNL     1       3.071   0.733  -1.209  0.00  0.00    +0.000 C 
BRANCH  22  23
ATOM     23  N   UNL     1       2.446   0.029  -0.077  0.00  0.00    +0.000 NA
ATOM     24  H   UNL     1       2.713  -0.953  -0.122  0.00  0.00    +0.000 HD
ATOM     25  H   UNL     1       1.441   0.014  -0.280  0.00  0.00    +0.000 HD
ENDBRANCH  22  23
BRANCH  22  26
ATOM     26  C   UNL     1       2.519   0.199  -2.563  0.00  0.00    +0.000 C 
BRANCH  26  27
ATOM     27  N   UNL     1       1.050   0.281  -2.635  0.00  0.00    +0.000 NA
ATOM     28  H   UNL     1       0.748  -0.064  -3.546  0.00  0.00    +0.000 HD
ATOM     29  H   UNL     1       0.774   1.263  -2.605  0.00  0.00    +0.000 HD
ENDBRANCH  26  27
ENDBRANCH  22  26
ENDBRANCH  16  22
ENDBRANCH   1  19
TORSDOF 7
