REMARK  Name = 
REMARK  9 active torsions:
REMARK  status: ('A' for Active; 'I' for Inactive)
REMARK    1  A    between atoms: C_1  and  O_2
REMARK    2  A    between atoms: O_2  and  C_3
REMARK    3  A    between atoms: C_10  and  C_11
REMARK    4  A    between atoms: N_13  and  C_14
REMARK    5  A    between atoms: C_14  and  C_15
REMARK    6  A    between atoms: C_18  and  C_19
REMARK    7  A    between atoms: C_19  and  S_20
REMARK    8  A    between atoms: S_20  and  C_21
REMARK    9  A    between atoms: C_21  and  C_22
REMARK                            x       y       z     vdW  Elec       q    Type
REMARK                         _______ _______ _______ _____ _____    ______ ____
ROOT
ATOM      1  C   UNL     1       2.922   0.885   3.321  0.00  0.00    +0.000 C 
ENDROOT
BRANCH   1   2
ATOM      2  C   UNL     1       1.838   1.877   2.984  0.00  0.00    +0.000 A 
ATOM      3  C   UNL     1       0.528   1.444   2.748  0.00  0.00    +0.000 A 
ATOM      4  C   UNL     1      -0.478   2.359   2.422  0.00  0.00    +0.000 A 
ATOM      5  C   UNL     1      -0.205   3.734   2.336  0.00  0.00    +0.000 A 
ATOM      6  C   UNL     1       1.114   4.162   2.544  0.00  0.00    +0.000 A 
ATOM      7  C   UNL     1       2.125   3.243   2.860  0.00  0.00    +0.000 A 
BRANCH   5   8
ATOM      8  C   UNL     1      -1.307   4.725   2.018  0.00  0.00    +0.000 C 
BRANCH   8   9
ATOM      9  S   UNL     1      -2.622   4.697   3.285  0.00  0.00    +0.000 S 
BRANCH   9  10
ATOM     10  C   UNL     1      -3.751   5.955   2.608  0.00  0.00    +0.000 C 
BRANCH  10  11
ATOM     11  C   UNL     1      -4.979   6.099   3.482  0.00  0.00    +0.000 A 
ATOM     12  C   UNL     1      -4.991   7.006   4.554  0.00  0.00    +0.000 A 
ATOM     13  C   UNL     1      -6.113   7.117   5.382  0.00  0.00    +0.000 A 
ATOM     14  C   UNL     1      -7.228   6.318   5.149  0.00  0.00    +0.000 A 
ATOM     15 CL   UNL     1      -8.609   6.454   6.169  0.00  0.00    +0.000 Cl
ATOM     16  C   UNL     1      -7.231   5.404   4.098  0.00  0.00    +0.000 A 
ATOM     17  C   UNL     1      -6.110   5.294   3.268  0.00  0.00    +0.000 A 
ENDBRANCH  10  11
ENDBRANCH   9  10
ENDBRANCH   8   9
ENDBRANCH   5   8
ENDBRANCH   1   2
BRANCH   1  20
ATOM     18  C   UNL     1       4.535  -0.572   2.173  0.00  0.00    +0.000 C 
ATOM     19  O   UNL     1       4.900  -1.050   3.245  0.00  0.00    +0.000 OA
ATOM     20  N   UNL     1       3.561   0.389   2.126  0.00  0.00    +0.000 N 
ATOM     21  H   UNL     1       3.287   0.796   1.243  0.00  0.00    +0.000 HD
BRANCH  18  29
ATOM     22  C   UNL     1       3.868   0.159  -1.130  0.00  0.00    +0.000 A 
ATOM     23  N   UNL     1       3.847   0.284  -2.473  0.00  0.00    +0.000 NA
ATOM     24  C   UNL     1       4.742  -0.409  -3.183  0.00  0.00    +0.000 A 
ATOM     25  N   UNL     1       5.673  -1.232  -2.711  0.00  0.00    +0.000 NA
ATOM     26  C   UNL     1       5.666  -1.320  -1.370  0.00  0.00    +0.000 A 
ATOM     27  S   UNL     1       6.785  -2.333  -0.596  0.00  0.00    +0.000 S 
ATOM     28  C   UNL     1       6.177  -1.917   0.934  0.00  0.00    +0.000 A 
ATOM     29  C   UNL     1       5.129  -1.004   0.896  0.00  0.00    +0.000 A 
ATOM     30  C   UNL     1       4.816  -0.658  -0.489  0.00  0.00    +0.000 A 
BRANCH  22  32
ATOM     31  C   UNL     1       1.775   1.194  -1.134  0.00  0.00    +0.000 C 
ATOM     32  O   UNL     1       2.959   0.895  -0.399  0.00  0.00    +0.000 OA
ENDBRANCH  22  32
ENDBRANCH  18  29
ENDBRANCH   1  20
TORSDOF 8
