REMARK  Name = 
REMARK  10 active torsions:
REMARK  status: ('A' for Active; 'I' for Inactive)
REMARK    1  A    between atoms: C_1  and  O_2
REMARK    2  A    between atoms: O_2  and  C_3
REMARK    3  A    between atoms: N_7  and  C_8
REMARK    4  A    between atoms: C_8  and  C_9
REMARK    5  A    between atoms: C_9  and  C_10
REMARK    6  A    between atoms: C_9  and  C_11
REMARK    7  A    between atoms: C_9  and  C_12
REMARK    8  A    between atoms: C_17  and  O_18
REMARK    9  A    between atoms: O_18  and  C_19
REMARK   10  A    between atoms: N_21  and  C_22
REMARK                            x       y       z     vdW  Elec       q    Type
REMARK                         _______ _______ _______ _____ _____    ______ ____
ROOT
ATOM      1  C   UNL     1       5.846   7.075  -0.969  0.00  0.00    +0.000 C 
ATOM      2  C   UNL     1       7.277   6.647  -0.555  0.00  0.00    +0.000 C 
ATOM      3  C   UNL     1       5.793   7.139  -2.516  0.00  0.00    +0.000 C 
ENDROOT
BRANCH   1   4
ATOM      4  C   UNL     1       5.559   8.466  -0.362  0.00  0.00    +0.000 A 
ATOM      5  C   UNL     1       6.325   9.574  -0.752  0.00  0.00    +0.000 A 
ATOM      6  C   UNL     1       6.072  10.849  -0.236  0.00  0.00    +0.000 A 
ATOM      7  C   UNL     1       5.041  11.063   0.686  0.00  0.00    +0.000 A 
ATOM      8 CL   UNL     1       4.780  12.701   1.153  0.00  0.00    +0.000 Cl
ATOM      9  C   UNL     1       4.277   9.980   1.118  0.00  0.00    +0.000 A 
ATOM     10  C   UNL     1       4.546   8.699   0.589  0.00  0.00    +0.000 A 
BRANCH   9  11
ATOM     11  O   UNL     1       3.188   9.979   1.959  0.00  0.00    +0.000 OA
BRANCH  11  12
ATOM     12  C   UNL     1       3.072  10.908   3.060  0.00  0.00    +0.000 C 
ATOM     13  C   UNL     1       4.119  10.867   4.192  0.00  0.00    +0.000 C 
ATOM     14  N   UNL     1       3.065  10.631   5.195  0.00  0.00    +0.000 NA
ATOM     15  C   UNL     1       2.811  11.837   5.982  0.00  0.00    +0.000 C 
ATOM     16  C   UNL     1       2.050  10.485   4.139  0.00  0.00    +0.000 C 
ENDBRANCH  11  12
ENDBRANCH   9  11
ENDBRANCH   1   4
BRANCH   1  17
ATOM     17  C   UNL     1       4.893   5.936  -0.487  0.00  0.00    +0.000 C 
BRANCH  17  22
ATOM     18  C   UNL     1       0.258   3.819   0.159  0.00  0.00    +0.000 A 
ATOM     19  C   UNL     1       1.520   3.392   0.544  0.00  0.00    +0.000 A 
ATOM     20  C   UNL     1       2.639   4.143   0.182  0.00  0.00    +0.000 A 
ATOM     21  C   UNL     1       2.482   5.316  -0.546  0.00  0.00    +0.000 A 
ATOM     22  N   UNL     1       3.535   6.084  -0.975  0.00  0.00    +0.000 N 
ATOM     23  N   UNL     1       1.264   5.754  -0.913  0.00  0.00    +0.000 NA
ATOM     24  C   UNL     1       0.188   5.002  -0.562  0.00  0.00    +0.000 A 
ATOM     25  H   UNL     1       3.222   6.971  -1.358  0.00  0.00    +0.000 HD
BRANCH  18  27
ATOM     26  C   UNL     1      -0.832   1.945   1.110  0.00  0.00    +0.000 C 
ATOM     27  O   UNL     1      -0.924   3.186   0.419  0.00  0.00    +0.000 OA
ENDBRANCH  18  27
ENDBRANCH  17  22
ENDBRANCH   1  17
TORSDOF 6
