REMARK  Name = 
REMARK  7 active torsions:
REMARK  status: ('A' for Active; 'I' for Inactive)
REMARK    1  A    between atoms: C_1  and  C_2
REMARK    2  A    between atoms: C_2  and  C_3
REMARK    3  A    between atoms: C_7  and  C_8
REMARK    4  A    between atoms: C_8  and  C_9
REMARK    5  A    between atoms: C_9  and  N_10
REMARK    6  A    between atoms: C_14  and  C_15
REMARK    7  A    between atoms: C_23  and  O_24
REMARK                            x       y       z     vdW  Elec       q    Type
REMARK                         _______ _______ _______ _____ _____    ______ ____
ROOT
ATOM      1  C   UNL     1       2.892   0.465   1.373  0.00  0.00    +0.000 A 
ATOM      2  C   UNL     1       2.649   1.738   1.910  0.00  0.00    +0.000 A 
ATOM      3  C   UNL     1       2.968   2.035   3.239  0.00  0.00    +0.000 A 
ATOM      4  C   UNL     1       3.527   1.061   4.069  0.00  0.00    +0.000 A 
ATOM      5  C   UNL     1       3.793  -0.216   3.571  0.00  0.00    +0.000 A 
ATOM      6  C   UNL     1       3.497  -0.475   2.220  0.00  0.00    +0.000 A 
ENDROOT
BRANCH   1   8
ATOM      7  C   UNL     1       0.870   0.176  -0.033  0.00  0.00    +0.000 C 
ATOM      8  C   UNL     1       2.417   0.080  -0.048  0.00  0.00    +0.000 C 
ATOM      9  C   UNL     1       3.021   1.048  -1.098  0.00  0.00    +0.000 C 
ATOM     10  C   UNL     1       2.670   0.681  -2.543  0.00  0.00    +0.000 C 
ATOM     11  C   UNL     1       3.044  -0.759  -2.884  0.00  0.00    +0.000 C 
ATOM     12  C   UNL     1       2.458  -1.750  -1.888  0.00  0.00    +0.000 C 
ATOM     13  C   UNL     1       2.818  -1.375  -0.455  0.00  0.00    +0.000 C 
BRANCH  11  14
ATOM     14  O   UNL     1       2.583  -1.079  -4.192  0.00  0.00    +0.000 OA
ATOM     15  H   UNL     1       1.610  -1.046  -4.184  0.00  0.00    +0.000 HD
ENDBRANCH  11  14
ENDBRANCH   1   8
BRANCH   5  16
ATOM     16  C   UNL     1       4.330  -1.299   4.497  0.00  0.00    +0.000 C 
BRANCH  16  17
ATOM     17  C   UNL     1       4.561  -2.644   3.797  0.00  0.00    +0.000 C 
BRANCH  17  18
ATOM     18  N   UNL     1       5.027  -3.703   4.692  0.00  0.00    +0.000 N 
ATOM     19  C   UNL     1       5.212  -4.912   3.978  0.00  0.00    +0.000 A 
ATOM     20  C   UNL     1       5.644  -6.038   4.669  0.00  0.00    +0.000 A 
ATOM     21  C   UNL     1       5.836  -7.237   3.975  0.00  0.00    +0.000 A 
ATOM     22  C   UNL     1       5.592  -7.295   2.602  0.00  0.00    +0.000 A 
ATOM     23  C   UNL     1       5.177  -6.127   1.992  0.00  0.00    +0.000 A 
ATOM     24  N   UNL     1       4.990  -4.954   2.646  0.00  0.00    +0.000 NA
ATOM     25  H   UNL     1       4.371  -3.881   5.449  0.00  0.00    +0.000 HD
BRANCH  22  26
ATOM     26  C   UNL     1       5.779  -8.574   1.877  0.00  0.00    +0.000 C 
ATOM     27  N   UNL     1       5.513  -8.625   0.534  0.00  0.00    +0.000 N 
ATOM     28  O   UNL     1       6.158  -9.580   2.460  0.00  0.00    +0.000 OA
ATOM     29  H   UNL     1       5.202  -7.860  -0.045  0.00  0.00    +0.000 HD
ATOM     30  H   UNL     1       5.659  -9.520   0.082  0.00  0.00    +0.000 HD
ENDBRANCH  22  26
ENDBRANCH  17  18
ENDBRANCH  16  17
ENDBRANCH   5  16
TORSDOF 6
