REMARK  Name = 
REMARK  8 active torsions:
REMARK  status: ('A' for Active; 'I' for Inactive)
REMARK    1  A    between atoms: N_1  and  C_2
REMARK    2  A    between atoms: C_2  and  C_3
REMARK    3  A    between atoms: C_3  and  N_4
REMARK    4  A    between atoms: C_3  and  C_17
REMARK    5  A    between atoms: C_5  and  C_7
REMARK    6  A    between atoms: C_20  and  C_21
REMARK    7  A    between atoms: C_21  and  N_22
REMARK    8  A    between atoms: C_23  and  C_25
REMARK                            x       y       z     vdW  Elec       q    Type
REMARK                         _______ _______ _______ _____ _____    ______ ____
ROOT
ATOM      1  C   UNL     1       2.859   0.761   1.222  0.00  0.00    +0.000 C 
ENDROOT
BRANCH   1   2
ATOM      2  C   UNL     1       4.392   0.731   1.291  0.00  0.00    +0.000 A 
ATOM      3  C   UNL     1       5.056   1.116   2.464  0.00  0.00    +0.000 A 
ATOM      4  C   UNL     1       6.457   1.093   2.545  0.00  0.00    +0.000 A 
ATOM      5  C   UNL     1       7.234   0.690   1.450  0.00  0.00    +0.000 A 
ATOM      6  C   UNL     1       6.576   0.280   0.285  0.00  0.00    +0.000 A 
ATOM      7  C   UNL     1       5.176   0.304   0.204  0.00  0.00    +0.000 A 
BRANCH   5   8
ATOM      8  C   UNL     1       8.744   0.693   1.524  0.00  0.00    +0.000 C 
BRANCH   8   9
ATOM      9  N   UNL     1       9.272  -0.559   2.012  0.00  0.00    +0.000 N 
ATOM     10  C   UNL     1      10.626  -0.791   2.069  0.00  0.00    +0.000 C 
ATOM     11  O   UNL     1      11.454   0.036   1.687  0.00  0.00    +0.000 OA
ATOM     12  H   UNL     1       8.633  -1.226   2.417  0.00  0.00    +0.000 HD
BRANCH  10  13
ATOM     13  C   UNL     1      11.017  -2.077   2.611  0.00  0.00    +0.000 A 
ATOM     14  C   UNL     1      10.273  -3.160   3.062  0.00  0.00    +0.000 A 
ATOM     15  C   UNL     1      11.173  -4.176   3.473  0.00  0.00    +0.000 A 
ATOM     16  C   UNL     1      12.446  -3.699   3.270  0.00  0.00    +0.000 A 
ATOM     17  N   UNL     1      12.343  -2.435   2.752  0.00  0.00    +0.000 N 
ATOM     18  H   UNL     1      13.118  -1.833   2.498  0.00  0.00    +0.000 HD
ENDBRANCH  10  13
ENDBRANCH   8   9
ENDBRANCH   5   8
ENDBRANCH   1   2
BRANCH   1  19
ATOM     19  N   UNL     1       2.369  -0.610   1.148  0.00  0.00    +0.000 N 
ATOM     20  C   UNL     1       1.042  -0.961   1.192  0.00  0.00    +0.000 C 
ATOM     21  O   UNL     1       0.144  -0.147   1.380  0.00  0.00    +0.000 OA
ATOM     22  H   UNL     1       3.057  -1.316   0.924  0.00  0.00    +0.000 HD
BRANCH  20  23
ATOM     23  C   UNL     1       0.763  -2.396   1.062  0.00  0.00    +0.000 A 
ATOM     24  C   UNL     1      -0.401  -2.938   1.588  0.00  0.00    +0.000 A 
ATOM     25  S   UNL     1      -0.483  -4.638   1.445  0.00  0.00    +0.000 S 
ATOM     26  C   UNL     1       1.011  -4.698   0.630  0.00  0.00    +0.000 A 
ATOM     27  N   UNL     1       1.560  -5.882   0.248  0.00  0.00    +0.000 NA
ATOM     28  C   UNL     1       2.685  -5.772  -0.377  0.00  0.00    +0.000 A 
ATOM     29  N   UNL     1       3.298  -4.583  -0.680  0.00  0.00    +0.000 N 
ATOM     30  C   UNL     1       2.768  -3.365  -0.335  0.00  0.00    +0.000 A 
ATOM     31  O   UNL     1       3.324  -2.319  -0.652  0.00  0.00    +0.000 OA
ATOM     32  C   UNL     1       1.540  -3.436   0.432  0.00  0.00    +0.000 A 
ATOM     33  H   UNL     1       4.165  -4.562  -1.195  0.00  0.00    +0.000 HD
ENDBRANCH  20  23
ENDBRANCH   1  19
BRANCH   1  34
ATOM     34  C   UNL     1       2.330   1.638   0.046  0.00  0.00    +0.000 C 
BRANCH  34  35
ATOM     35  N   UNL     1       2.766   3.040   0.092  0.00  0.00    +0.000 NA
ATOM     36  H   UNL     1       2.536   3.485  -0.795  0.00  0.00    +0.000 HD
ATOM     37  H   UNL     1       3.782   3.078   0.180  0.00  0.00    +0.000 HD
ENDBRANCH  34  35
ENDBRANCH   1  34
TORSDOF 8
