REMARK  Name = 
REMARK  7 active torsions:
REMARK  status: ('A' for Active; 'I' for Inactive)
REMARK    1  A    between atoms: C_2  and  C_20
REMARK    2  A    between atoms: N_3  and  C_4
REMARK    3  A    between atoms: C_4  and  C_5
REMARK    4  A    between atoms: C_8  and  C_9
REMARK    5  A    between atoms: C_9  and  C_10
REMARK    6  A    between atoms: C_10  and  C_11
REMARK    7  A    between atoms: C_11  and  N_12
REMARK                            x       y       z     vdW  Elec       q    Type
REMARK                         _______ _______ _______ _____ _____    ______ ____
ROOT
ATOM      1  C   UNL     1       2.128   1.629  -2.041  0.00  0.00    +0.000 C 
ENDROOT
BRANCH   1   2
ATOM      2  C   UNL     1       3.065   2.586  -2.711  0.00  0.00    +0.000 A 
ATOM      3  C   UNL     1       2.913   3.972  -2.616  0.00  0.00    +0.000 A 
ATOM      4  C   UNL     1       3.834   4.814  -3.238  0.00  0.00    +0.000 A 
ATOM      5  C   UNL     1       4.897   4.246  -3.929  0.00  0.00    +0.000 A 
ATOM      6  N   UNL     1       5.090   2.904  -3.993  0.00  0.00    +0.000 NA
ATOM      7  C   UNL     1       4.180   2.113  -3.390  0.00  0.00    +0.000 A 
BRANCH   5   8
ATOM      8  C   UNL     1       5.891   5.095  -4.675  0.00  0.00    +0.000 C 
BRANCH   8   9
ATOM      9  C   UNL     1       5.914   4.758  -6.172  0.00  0.00    +0.000 C 
BRANCH   9  10
ATOM     10  C   UNL     1       4.616   5.134  -6.906  0.00  0.00    +0.000 C 
BRANCH  10  11
ATOM     11  N   UNL     1       4.233   6.542  -6.717  0.00  0.00    +0.000 NA
ATOM     12  C   UNL     1       5.202   7.466  -7.326  0.00  0.00    +0.000 C 
ATOM     13  C   UNL     1       4.840   8.913  -6.998  0.00  0.00    +0.000 C 
ATOM     14  C   UNL     1       3.430   9.247  -7.461  0.00  0.00    +0.000 C 
ATOM     15  C   UNL     1       2.435   8.221  -6.929  0.00  0.00    +0.000 C 
ATOM     16  C   UNL     1       2.881   6.791  -7.242  0.00  0.00    +0.000 C 
ENDBRANCH  10  11
ENDBRANCH   9  10
ENDBRANCH   8   9
ENDBRANCH   5   8
ENDBRANCH   1   2
BRANCH   1  19
ATOM     17  O   UNL     1       1.077  -0.282  -0.209  0.00  0.00    +0.000 OA
ATOM     18  C   UNL     1       1.902   0.543   0.151  0.00  0.00    +0.000 C 
ATOM     19  N   UNL     1       2.571   1.397  -0.694  0.00  0.00    +0.000 N 
ATOM     20  H   UNL     1       3.038   2.181  -0.253  0.00  0.00    +0.000 HD
BRANCH  18  21
ATOM     21  C   UNL     1       2.144   0.902   1.546  0.00  0.00    +0.000 A 
ATOM     22  C   UNL     1       1.169   0.955   2.520  0.00  0.00    +0.000 A 
ATOM     23  N   UNL     1       1.650   1.732   3.544  0.00  0.00    +0.000 N 
ATOM     24  C   UNL     1       2.949   2.102   3.280  0.00  0.00    +0.000 A 
ATOM     25  C   UNL     1       3.802   2.976   3.942  0.00  0.00    +0.000 A 
ATOM     26  N   UNL     1       5.075   3.114   3.503  0.00  0.00    +0.000 NA
ATOM     27  C   UNL     1       5.490   2.385   2.442  0.00  0.00    +0.000 A 
ATOM     28  C   UNL     1       4.677   1.542   1.705  0.00  0.00    +0.000 A 
ATOM     29  C   UNL     1       3.339   1.440   2.121  0.00  0.00    +0.000 A 
ATOM     30  H   UNL     1       1.110   2.042   4.341  0.00  0.00    +0.000 HD
ENDBRANCH  18  21
ENDBRANCH   1  19
TORSDOF 7
