REMARK  Name = 
REMARK  5 active torsions:
REMARK  status: ('A' for Active; 'I' for Inactive)
REMARK    1  A    between atoms: C_2  and  C_4
REMARK    2  A    between atoms: C_7  and  O_8
REMARK    3  A    between atoms: O_8  and  C_9
REMARK    4  A    between atoms: C_9  and  C_10
REMARK    5  A    between atoms: C_14  and  C_15
REMARK                            x       y       z     vdW  Elec       q    Type
REMARK                         _______ _______ _______ _____ _____    ______ ____
ROOT
ATOM      1  C   UNL     1       5.059  -1.332   5.734  0.00  0.00    +0.000 C 
ENDROOT
BRANCH   1   2
ATOM      2  C   UNL     1       5.993  -1.233   6.907  0.00  0.00    +0.000 A 
ATOM      3  C   UNL     1       6.470  -2.384   7.523  0.00  0.00    +0.000 A 
ATOM      4  N   UNL     1       7.260  -2.391   8.613  0.00  0.00    +0.000 NA
ATOM      5  C   UNL     1       7.584  -1.182   9.127  0.00  0.00    +0.000 A 
ATOM      6  C   UNL     1       7.163   0.045   8.622  0.00  0.00    +0.000 A 
ATOM      7  C   UNL     1       6.350  -0.006   7.478  0.00  0.00    +0.000 A 
BRANCH   6   8
ATOM      8  C   UNL     1       7.499   1.316   9.285  0.00  0.00    +0.000 A 
ATOM      9  C   UNL     1       7.656   2.509   8.555  0.00  0.00    +0.000 A 
ATOM     10  C   UNL     1       7.881   3.728   9.196  0.00  0.00    +0.000 A 
ATOM     11  C   UNL     1       7.954   3.778  10.586  0.00  0.00    +0.000 A 
ATOM     12  C   UNL     1       7.836   2.604  11.315  0.00  0.00    +0.000 A 
ATOM     13  F   UNL     1       7.902   2.647  12.653  0.00  0.00    +0.000 F 
ATOM     14  C   UNL     1       7.621   1.388  10.684  0.00  0.00    +0.000 A 
ENDBRANCH   6   8
ENDBRANCH   1   2
BRANCH   1  15
ATOM     15  O   UNL     1       5.238  -0.208   4.872  0.00  0.00    +0.000 OA
BRANCH  15  19
ATOM     16  C   UNL     1       2.980   0.176   1.392  0.00  0.00    +0.000 A 
ATOM     17  C   UNL     1       2.765  -0.942   2.205  0.00  0.00    +0.000 A 
ATOM     18  C   UNL     1       3.502  -1.108   3.382  0.00  0.00    +0.000 A 
ATOM     19  C   UNL     1       4.455  -0.158   3.752  0.00  0.00    +0.000 A 
ATOM     20  C   UNL     1       4.673   0.953   2.936  0.00  0.00    +0.000 A 
ATOM     21  C   UNL     1       3.944   1.121   1.755  0.00  0.00    +0.000 A 
BRANCH  16  23
ATOM     22  N   UNL     1       0.973  -0.164   0.063  0.00  0.00    +0.000 N 
ATOM     23  C   UNL     1       2.231   0.367   0.124  0.00  0.00    +0.000 C 
ATOM     24  O   UNL     1       2.703   0.993  -0.813  0.00  0.00    +0.000 OA
ATOM     25  H   UNL     1       0.437   0.054  -0.767  0.00  0.00    +0.000 HD
ATOM     26  H   UNL     1       0.466  -0.445   0.890  0.00  0.00    +0.000 HD
ENDBRANCH  16  23
ENDBRANCH  15  19
ENDBRANCH   1  15
TORSDOF 5
