REMARK  Name = 
REMARK  5 active torsions:
REMARK  status: ('A' for Active; 'I' for Inactive)
REMARK    1  A    between atoms: C_1  and  C_2
REMARK    2  A    between atoms: N_9  and  C_10
REMARK    3  A    between atoms: C_10  and  C_11
REMARK    4  A    between atoms: C_14  and  C_15
REMARK    5  A    between atoms: C_15  and  N_16
REMARK                            x       y       z     vdW  Elec       q    Type
REMARK                         _______ _______ _______ _____ _____    ______ ____
ROOT
ATOM      1  C   UNL     1       7.668   0.645   0.034  0.00  0.00    +0.000 C 
ENDROOT
BRANCH   1  10
ATOM      2  C   UNL     1       3.221  -2.304  -3.915  0.00  0.00    +0.000 C 
ATOM      3  C   UNL     1       4.139  -1.761  -2.866  0.00  0.00    +0.000 A 
ATOM      4  C   UNL     1       5.208  -0.925  -3.186  0.00  0.00    +0.000 A 
ATOM      5  N   UNL     1       6.082  -0.368  -2.309  0.00  0.00    +0.000 NA
ATOM      6  C   UNL     1       5.826  -0.701  -1.027  0.00  0.00    +0.000 A 
ATOM      7  C   UNL     1       4.810  -1.535  -0.568  0.00  0.00    +0.000 A 
ATOM      8  C   UNL     1       4.935  -1.611   0.845  0.00  0.00    +0.000 A 
ATOM      9  C   UNL     1       6.004  -0.823   1.212  0.00  0.00    +0.000 A 
ATOM     10  N   UNL     1       6.526  -0.259   0.071  0.00  0.00    +0.000 N 
ATOM     11  C   UNL     1       3.938  -2.084  -1.520  0.00  0.00    +0.000 A 
ENDBRANCH   1  10
BRANCH   1  12
ATOM     12  C   UNL     1       7.236   2.079   0.155  0.00  0.00    +0.000 A 
ATOM     13  C   UNL     1       7.050   2.696   1.394  0.00  0.00    +0.000 A 
ATOM     14  C   UNL     1       6.581   4.007   1.451  0.00  0.00    +0.000 A 
ATOM     15  C   UNL     1       6.308   4.679   0.262  0.00  0.00    +0.000 A 
ATOM     16  N   UNL     1       6.503   4.109  -0.953  0.00  0.00    +0.000 NA
ATOM     17  C   UNL     1       6.950   2.832  -0.979  0.00  0.00    +0.000 A 
BRANCH  15  18
ATOM     18  C   UNL     1       5.736   6.081   0.288  0.00  0.00    +0.000 C 
BRANCH  18  19
ATOM     19  N   UNL     1       4.416   6.142   0.929  0.00  0.00    +0.000 NA
ATOM     20  H   UNL     1       3.793   5.527   0.405  0.00  0.00    +0.000 HD
ATOM     21  H   UNL     1       4.043   7.082   0.811  0.00  0.00    +0.000 HD
ENDBRANCH  18  19
ENDBRANCH  15  18
ENDBRANCH   1  12
TORSDOF 4
