REMARK  Name = 
REMARK  9 active torsions:
REMARK  status: ('A' for Active; 'I' for Inactive)
REMARK    1  A    between atoms: C_1  and  O_2
REMARK    2  A    between atoms: O_2  and  C_3
REMARK    3  A    between atoms: C_10  and  C_11
REMARK    4  A    between atoms: N_13  and  C_14
REMARK    5  A    between atoms: C_14  and  C_15
REMARK    6  A    between atoms: C_18  and  C_19
REMARK    7  A    between atoms: C_19  and  O_20
REMARK    8  A    between atoms: O_20  and  C_21
REMARK    9  A    between atoms: C_21  and  C_22
REMARK                            x       y       z     vdW  Elec       q    Type
REMARK                         _______ _______ _______ _____ _____    ______ ____
ROOT
ATOM      1  C   UNL     1       2.579   3.239  -0.778  0.00  0.00    +0.000 C 
ENDROOT
BRANCH   1   2
ATOM      2  C   UNL     1       1.345   2.863  -1.569  0.00  0.00    +0.000 A 
ATOM      3  C   UNL     1       1.195   1.572  -2.095  0.00  0.00    +0.000 A 
ATOM      4  C   UNL     1       0.002   1.185  -2.722  0.00  0.00    +0.000 A 
ATOM      5  C   UNL     1      -1.061   2.087  -2.870  0.00  0.00    +0.000 A 
ATOM      6  C   UNL     1      -0.879   3.402  -2.417  0.00  0.00    +0.000 A 
ATOM      7  C   UNL     1       0.309   3.785  -1.775  0.00  0.00    +0.000 A 
BRANCH   5   8
ATOM      8  C   UNL     1      -2.360   1.653  -3.513  0.00  0.00    +0.000 C 
BRANCH   8   9
ATOM      9  O   UNL     1      -2.923   0.570  -2.773  0.00  0.00    +0.000 OA
BRANCH   9  10
ATOM     10  C   UNL     1      -4.163   0.117  -3.335  0.00  0.00    +0.000 C 
BRANCH  10  11
ATOM     11  C   UNL     1      -4.739  -1.036  -2.537  0.00  0.00    +0.000 A 
ATOM     12  C   UNL     1      -4.545  -1.112  -1.158  0.00  0.00    +0.000 A 
ATOM     13  C   UNL     1      -5.088  -2.182  -0.452  0.00  0.00    +0.000 A 
ATOM     14  C   UNL     1      -5.828  -3.140  -1.131  0.00  0.00    +0.000 A 
ATOM     15  C   UNL     1      -6.001  -2.982  -2.496  0.00  0.00    +0.000 A 
ATOM     16  N   UNL     1      -5.483  -1.955  -3.210  0.00  0.00    +0.000 NA
ENDBRANCH  10  11
ENDBRANCH   9  10
ENDBRANCH   8   9
ENDBRANCH   5   8
ENDBRANCH   1   2
BRANCH   1  19
ATOM     17  C   UNL     1       4.814   4.243  -1.118  0.00  0.00    +0.000 C 
ATOM     18  O   UNL     1       5.088   4.150   0.074  0.00  0.00    +0.000 OA
ATOM     19  N   UNL     1       3.605   3.817  -1.608  0.00  0.00    +0.000 N 
ATOM     20  H   UNL     1       3.405   3.894  -2.594  0.00  0.00    +0.000 HD
BRANCH  17  28
ATOM     21  C   UNL     1       4.719   4.721  -4.522  0.00  0.00    +0.000 A 
ATOM     22  N   UNL     1       4.906   5.071  -5.808  0.00  0.00    +0.000 NA
ATOM     23  C   UNL     1       6.044   5.693  -6.127  0.00  0.00    +0.000 A 
ATOM     24  N   UNL     1       7.042   6.009  -5.304  0.00  0.00    +0.000 NA
ATOM     25  C   UNL     1       6.805   5.654  -4.030  0.00  0.00    +0.000 A 
ATOM     26  S   UNL     1       7.972   5.970  -2.837  0.00  0.00    +0.000 S 
ATOM     27  C   UNL     1       6.987   5.298  -1.622  0.00  0.00    +0.000 A 
ATOM     28  C   UNL     1       5.763   4.827  -2.087  0.00  0.00    +0.000 A 
ATOM     29  C   UNL     1       5.669   5.023  -3.533  0.00  0.00    +0.000 A 
BRANCH  21  31
ATOM     30  C   UNL     1       2.980   3.346  -5.270  0.00  0.00    +0.000 C 
ATOM     31  O   UNL     1       3.543   4.085  -4.190  0.00  0.00    +0.000 OA
ENDBRANCH  21  31
ENDBRANCH  17  28
ENDBRANCH   1  19
TORSDOF 8
