REMARK  Name = 
REMARK  7 active torsions:
REMARK  status: ('A' for Active; 'I' for Inactive)
REMARK    1  A    between atoms: C_1  and  O_2
REMARK    2  A    between atoms: O_2  and  C_3
REMARK    3  A    between atoms: C_5  and  C_6
REMARK    4  A    between atoms: C_11  and  O_12
REMARK    5  A    between atoms: O_12  and  C_13
REMARK    6  A    between atoms: C_13  and  C_14
REMARK    7  A    between atoms: C_18  and  C_19
REMARK                            x       y       z     vdW  Elec       q    Type
REMARK                         _______ _______ _______ _____ _____    ______ ____
ROOT
ATOM      1  O   UNL     1       4.303   2.028   0.084  0.00  0.00    +0.000 OA
ENDROOT
BRANCH   1   7
ATOM      2  C   UNL     1       3.078   0.086   1.087  0.00  0.00    +0.000 A 
ATOM      3  C   UNL     1       2.796  -0.596   2.279  0.00  0.00    +0.000 A 
ATOM      4  C   UNL     1       3.364  -0.212   3.502  0.00  0.00    +0.000 A 
ATOM      5  C   UNL     1       4.233   0.882   3.527  0.00  0.00    +0.000 A 
ATOM      6  C   UNL     1       4.508   1.581   2.344  0.00  0.00    +0.000 A 
ATOM      7  C   UNL     1       3.933   1.204   1.121  0.00  0.00    +0.000 A 
BRANCH   4   8
ATOM      8  C   UNL     1       2.997  -1.013   4.703  0.00  0.00    +0.000 C 
ATOM      9  N   UNL     1       3.549  -0.684   5.907  0.00  0.00    +0.000 N 
ATOM     10  O   UNL     1       2.217  -1.957   4.630  0.00  0.00    +0.000 OA
ATOM     11  H   UNL     1       4.198   0.065   6.069  0.00  0.00    +0.000 HD
ATOM     12  H   UNL     1       3.279  -1.257   6.698  0.00  0.00    +0.000 HD
ENDBRANCH   4   8
BRANCH   2  14
ATOM     13  C   UNL     1       1.417  -1.131  -0.131  0.00  0.00    +0.000 C 
ATOM     14  O   UNL     1       2.599  -0.340  -0.122  0.00  0.00    +0.000 OA
ENDBRANCH   2  14
ENDBRANCH   1   7
BRANCH   1  15
ATOM     15  C   UNL     1       3.735   1.767  -1.202  0.00  0.00    +0.000 C 
BRANCH  15  16
ATOM     16  C   UNL     1       4.185   2.779  -2.234  0.00  0.00    +0.000 A 
ATOM     17  C   UNL     1       3.909   4.132  -2.075  0.00  0.00    +0.000 A 
ATOM     18  C   UNL     1       4.233   5.003  -3.111  0.00  0.00    +0.000 A 
ATOM     19  C   UNL     1       4.826   4.507  -4.270  0.00  0.00    +0.000 A 
ATOM     20  C   UNL     1       5.088   3.144  -4.359  0.00  0.00    +0.000 A 
ATOM     21  N   UNL     1       4.769   2.289  -3.358  0.00  0.00    +0.000 NA
BRANCH  20  22
ATOM     22  C   UNL     1       5.745   2.552  -5.591  0.00  0.00    +0.000 C 
ATOM     23  C   UNL     1       4.848   1.484  -6.236  0.00  0.00    +0.000 C 
ATOM     24  C   UNL     1       5.581   0.739  -7.342  0.00  0.00    +0.000 C 
ATOM     25  O   UNL     1       6.808   0.192  -6.864  0.00  0.00    +0.000 OA
ATOM     26  C   UNL     1       7.709   1.205  -6.423  0.00  0.00    +0.000 C 
ATOM     27  C   UNL     1       7.127   1.977  -5.248  0.00  0.00    +0.000 C 
ENDBRANCH  20  22
ENDBRANCH  15  16
ENDBRANCH   1  15
TORSDOF 6
