REMARK  Name = 
REMARK  8 active torsions:
REMARK  status: ('A' for Active; 'I' for Inactive)
REMARK    1  A    between atoms: C_1  and  O_2
REMARK    2  A    between atoms: O_2  and  C_3
REMARK    3  A    between atoms: C_5  and  O_6
REMARK    4  A    between atoms: O_6  and  C_7
REMARK    5  A    between atoms: C_7  and  C_8
REMARK    6  A    between atoms: C_11  and  C_12
REMARK    7  A    between atoms: C_12  and  N_13
REMARK    8  A    between atoms: C_14  and  C_16
REMARK                            x       y       z     vdW  Elec       q    Type
REMARK                         _______ _______ _______ _____ _____    ______ ____
ROOT
ATOM      1  C   UNL     1       1.779   0.113  -6.496  0.00  0.00    +0.000 A 
ATOM      2  C   UNL     1       1.701  -1.063  -7.256  0.00  0.00    +0.000 A 
ATOM      3  C   UNL     1       1.528  -1.008  -8.645  0.00  0.00    +0.000 A 
ATOM      4  C   UNL     1       1.449   0.224  -9.309  0.00  0.00    +0.000 A 
ATOM      5  C   UNL     1       1.524   1.389  -8.544  0.00  0.00    +0.000 A 
ATOM      6  F   UNL     1       1.435   2.587  -9.141  0.00  0.00    +0.000 F 
ATOM      7  C   UNL     1       1.697   1.345  -7.160  0.00  0.00    +0.000 A 
ENDROOT
BRANCH   1   8
ATOM      8  C   UNL     1       1.947   0.053  -4.996  0.00  0.00    +0.000 C 
BRANCH   8   9
ATOM      9  O   UNL     1       3.337   0.021  -4.676  0.00  0.00    +0.000 OA
BRANCH   9  12
ATOM     10  C   UNL     1       3.288  -0.088  -0.985  0.00  0.00    +0.000 A 
ATOM     11  C   UNL     1       2.773  -0.037  -2.275  0.00  0.00    +0.000 A 
ATOM     12  C   UNL     1       3.665  -0.028  -3.345  0.00  0.00    +0.000 A 
ATOM     13  C   UNL     1       5.032  -0.067  -3.080  0.00  0.00    +0.000 A 
ATOM     14  C   UNL     1       5.451  -0.121  -1.761  0.00  0.00    +0.000 A 
ATOM     15  N   UNL     1       4.609  -0.135  -0.707  0.00  0.00    +0.000 NA
BRANCH  10  17
ATOM     16  C   UNL     1       2.979  -0.169   1.328  0.00  0.00    +0.000 C 
ATOM     17  O   UNL     1       2.370  -0.073   0.044  0.00  0.00    +0.000 OA
ENDBRANCH  10  17
ENDBRANCH   9  12
ENDBRANCH   8   9
ENDBRANCH   1   8
BRANCH   4  18
ATOM     18  C   UNL     1       1.296   0.284 -10.804  0.00  0.00    +0.000 C 
BRANCH  18  19
ATOM     19  N   UNL     1      -0.085   0.301 -11.223  0.00  0.00    +0.000 N 
ATOM     20  C   UNL     1      -0.811  -0.840 -11.447  0.00  0.00    +0.000 C 
ATOM     21  O   UNL     1      -0.350  -1.963 -11.261  0.00  0.00    +0.000 OA
ATOM     22  H   UNL     1      -0.451   1.195 -11.531  0.00  0.00    +0.000 HD
BRANCH  20  23
ATOM     23  C   UNL     1      -2.205  -0.649 -11.871  0.00  0.00    +0.000 A 
ATOM     24  C   UNL     1      -3.147  -1.633 -11.607  0.00  0.00    +0.000 A 
ATOM     25  S   UNL     1      -4.721  -1.230 -12.124  0.00  0.00    +0.000 S 
ATOM     26  C   UNL     1      -4.190   0.254 -12.766  0.00  0.00    +0.000 A 
ATOM     27  N   UNL     1      -5.057   1.099 -13.386  0.00  0.00    +0.000 NA
ATOM     28  C   UNL     1      -4.512   2.170 -13.859  0.00  0.00    +0.000 A 
ATOM     29  N   UNL     1      -3.178   2.474 -13.765  0.00  0.00    +0.000 N 
ATOM     30  C   UNL     1      -2.273   1.671 -13.111  0.00  0.00    +0.000 A 
ATOM     31  O   UNL     1      -1.100   2.006 -12.983  0.00  0.00    +0.000 OA
ATOM     32  C   UNL     1      -2.833   0.445 -12.575  0.00  0.00    +0.000 A 
ATOM     33  H   UNL     1      -2.818   3.336 -14.145  0.00  0.00    +0.000 HD
ENDBRANCH  20  23
ENDBRANCH  18  19
ENDBRANCH   4  18
TORSDOF 7
