REMARK  Name = 
REMARK  9 active torsions:
REMARK  status: ('A' for Active; 'I' for Inactive)
REMARK    1  A    between atoms: C_1  and  O_2
REMARK    2  A    between atoms: O_2  and  C_3
REMARK    3  A    between atoms: C_10  and  C_11
REMARK    4  A    between atoms: N_13  and  C_14
REMARK    5  A    between atoms: C_14  and  C_15
REMARK    6  A    between atoms: C_18  and  C_19
REMARK    7  A    between atoms: C_19  and  N_20
REMARK    8  A    between atoms: N_20  and  C_21
REMARK    9  A    between atoms: C_21  and  C_22
REMARK                            x       y       z     vdW  Elec       q    Type
REMARK                         _______ _______ _______ _____ _____    ______ ____
ROOT
ATOM      1  C   UNL     1       1.837  -3.376  -0.557  0.00  0.00    +0.000 A 
ATOM      2  C   UNL     1       1.598  -4.686  -0.121  0.00  0.00    +0.000 A 
ATOM      3  C   UNL     1       0.580  -4.952   0.802  0.00  0.00    +0.000 A 
ATOM      4  C   UNL     1      -0.209  -3.910   1.312  0.00  0.00    +0.000 A 
ATOM      5  C   UNL     1      -0.002  -2.611   0.832  0.00  0.00    +0.000 A 
ATOM      6  C   UNL     1       1.004  -2.348  -0.099  0.00  0.00    +0.000 A 
ENDROOT
BRANCH   1   7
ATOM      7  C   UNL     1       2.966  -3.069  -1.502  0.00  0.00    +0.000 C 
BRANCH   7  10
ATOM      8  C   UNL     1       3.415  -2.839  -3.895  0.00  0.00    +0.000 C 
ATOM      9  O   UNL     1       4.570  -2.498  -3.661  0.00  0.00    +0.000 OA
ATOM     10  N   UNL     1       2.546  -3.134  -2.878  0.00  0.00    +0.000 N 
ATOM     11  H   UNL     1       1.603  -3.444  -3.076  0.00  0.00    +0.000 HD
BRANCH   8  19
ATOM     12  C   UNL     1       0.374  -3.715  -5.277  0.00  0.00    +0.000 A 
ATOM     13  N   UNL     1      -0.666  -4.031  -6.076  0.00  0.00    +0.000 NA
ATOM     14  C   UNL     1      -0.495  -3.947  -7.398  0.00  0.00    +0.000 A 
ATOM     15  N   UNL     1       0.610  -3.577  -8.038  0.00  0.00    +0.000 NA
ATOM     16  C   UNL     1       1.625  -3.282  -7.208  0.00  0.00    +0.000 A 
ATOM     17  S   UNL     1       3.113  -2.789  -7.858  0.00  0.00    +0.000 S 
ATOM     18  C   UNL     1       3.790  -2.630  -6.310  0.00  0.00    +0.000 A 
ATOM     19  C   UNL     1       2.914  -2.946  -5.275  0.00  0.00    +0.000 A 
ATOM     20  C   UNL     1       1.614  -3.328  -5.816  0.00  0.00    +0.000 A 
BRANCH  12  22
ATOM     21  C   UNL     1      -1.178  -3.693  -3.531  0.00  0.00    +0.000 C 
ATOM     22  O   UNL     1       0.192  -3.813  -3.912  0.00  0.00    +0.000 OA
ENDBRANCH  12  22
ENDBRANCH   8  19
ENDBRANCH   7  10
ENDBRANCH   1   7
BRANCH   4  23
ATOM     23  C   UNL     1      -1.264  -4.158   2.365  0.00  0.00    +0.000 C 
BRANCH  23  24
ATOM     24  N   UNL     1      -0.777  -4.818   3.573  0.00  0.00    +0.000 NA
ATOM     25  H   UNL     1      -0.374  -5.720   3.332  0.00  0.00    +0.000 HD
BRANCH  24  26
ATOM     26  C   UNL     1       0.229  -4.040   4.303  0.00  0.00    +0.000 C 
BRANCH  26  27
ATOM     27  C   UNL     1       0.655  -4.802   5.532  0.00  0.00    +0.000 A 
ATOM     28  C   UNL     1      -0.273  -5.097   6.543  0.00  0.00    +0.000 A 
ATOM     29  C   UNL     1       0.094  -5.887   7.635  0.00  0.00    +0.000 A 
ATOM     30  C   UNL     1       1.393  -6.383   7.735  0.00  0.00    +0.000 A 
ATOM     31  C   UNL     1       2.332  -6.073   6.751  0.00  0.00    +0.000 A 
ATOM     32  C   UNL     1       1.959  -5.286   5.664  0.00  0.00    +0.000 A 
ATOM     33  F   UNL     1       2.876  -5.019   4.723  0.00  0.00    +0.000 F 
ENDBRANCH  26  27
ENDBRANCH  24  26
ENDBRANCH  23  24
ENDBRANCH   4  23
TORSDOF 8
