REMARK  Name = 
REMARK  7 active torsions:
REMARK  status: ('A' for Active; 'I' for Inactive)
REMARK    1  A    between atoms: C_1  and  S_2
REMARK    2  A    between atoms: S_2  and  C_5
REMARK    3  A    between atoms: C_8  and  N_9
REMARK    4  A    between atoms: N_9  and  C_10
REMARK    5  A    between atoms: C_10  and  C_11
REMARK    6  A    between atoms: C_15  and  C_16
REMARK    7  A    between atoms: C_20  and  C_21
REMARK                            x       y       z     vdW  Elec       q    Type
REMARK                         _______ _______ _______ _____ _____    ______ ____
ROOT
ATOM      1  C   UNL     1       4.185  -7.233  -3.898  0.00  0.00    +0.000 A 
ATOM      2  C   UNL     1       4.962  -6.975  -5.031  0.00  0.00    +0.000 A 
ATOM      3  C   UNL     1       5.272  -8.006  -5.913  0.00  0.00    +0.000 A 
ATOM      4  C   UNL     1       4.818  -9.306  -5.663  0.00  0.00    +0.000 A 
ATOM      5  C   UNL     1       4.057  -9.612  -4.520  0.00  0.00    +0.000 A 
ATOM      6  C   UNL     1       3.722  -8.540  -3.671  0.00  0.00    +0.000 A 
ENDROOT
BRANCH   5   7
ATOM      7  C   UNL     1       3.724 -11.010  -4.145  0.00  0.00    +0.000 A 
ATOM      8  C   UNL     1       4.603 -12.067  -4.450  0.00  0.00    +0.000 A 
ATOM      9  C   UNL     1       4.382 -13.366  -3.985  0.00  0.00    +0.000 A 
ATOM     10  C   UNL     1       3.277 -13.643  -3.186  0.00  0.00    +0.000 A 
ATOM     11  C   UNL     1       2.371 -12.624  -2.882  0.00  0.00    +0.000 A 
ATOM     12  C   UNL     1       2.588 -11.327  -3.375  0.00  0.00    +0.000 A 
BRANCH  11  13
ATOM     13  C   UNL     1       1.215 -12.850  -1.972  0.00  0.00    +0.000 C 
ATOM     14  N   UNL     1       0.758 -14.131  -1.835  0.00  0.00    +0.000 N 
ATOM     15  O   UNL     1       0.681 -11.926  -1.372  0.00  0.00    +0.000 OA
ATOM     16  H   UNL     1       1.022 -14.882  -2.455  0.00  0.00    +0.000 HD
ATOM     17  H   UNL     1      -0.065 -14.259  -1.261  0.00  0.00    +0.000 HD
ENDBRANCH  11  13
ENDBRANCH   5   7
BRANCH   1  18
ATOM     18  C   UNL     1       3.905  -6.149  -2.884  0.00  0.00    +0.000 C 
BRANCH  18  19
ATOM     19  N   UNL     1       2.740  -5.364  -3.271  0.00  0.00    +0.000 N 
ATOM     20  H   UNL     1       1.993  -5.922  -3.674  0.00  0.00    +0.000 HD
BRANCH  19  24
ATOM     21  C   UNL     1       1.292  -2.258  -0.802  0.00  0.00    +0.000 A 
ATOM     22  C   UNL     1       0.614  -2.624  -1.964  0.00  0.00    +0.000 A 
ATOM     23  C   UNL     1       1.105  -3.677  -2.747  0.00  0.00    +0.000 A 
ATOM     24  C   UNL     1       2.270  -4.378  -2.388  0.00  0.00    +0.000 A 
ATOM     25  C   UNL     1       2.948  -3.939  -1.232  0.00  0.00    +0.000 A 
ATOM     26  F   UNL     1       4.084  -4.530  -0.832  0.00  0.00    +0.000 F 
ATOM     27  C   UNL     1       2.468  -2.903  -0.437  0.00  0.00    +0.000 A 
BRANCH  21  29
ATOM     28  C   UNL     1      -0.372  -1.731   1.362  0.00  0.00    +0.000 C 
ATOM     29  S   UNL     1       0.691  -0.922   0.200  0.00  0.00    +0.000 S 
ATOM     30  O   UNL     1      -0.122  -0.073  -0.646  0.00  0.00    +0.000 OA
ATOM     31  O   UNL     1       1.826  -0.380   0.928  0.00  0.00    +0.000 OA
ENDBRANCH  21  29
ENDBRANCH  19  24
ENDBRANCH  18  19
ENDBRANCH   1  18
TORSDOF 6
