REMARK  Name = 
REMARK  4 active torsions:
REMARK  status: ('A' for Active; 'I' for Inactive)
REMARK    1  A    between atoms: C_2  and  C_3
REMARK    2  A    between atoms: C_6  and  N_7
REMARK    3  A    between atoms: N_7  and  C_8
REMARK    4  A    between atoms: C_8  and  C_9
REMARK                            x       y       z     vdW  Elec       q    Type
REMARK                         _______ _______ _______ _____ _____    ______ ____
ROOT
ATOM      1  N   UNL     1       7.537  -0.052  -0.335  0.00  0.00    +0.000 N 
ATOM      2  H   UNL     1       7.141   0.477  -1.103  0.00  0.00    +0.000 HD
ENDROOT
BRANCH   1   6
ATOM      3  C   UNL     1       4.885  -0.403   2.801  0.00  0.00    +0.000 A 
ATOM      4  C   UNL     1       5.526  -1.519   2.294  0.00  0.00    +0.000 A 
ATOM      5  N   UNL     1       6.408  -1.450   1.266  0.00  0.00    +0.000 NA
ATOM      6  C   UNL     1       6.637  -0.232   0.728  0.00  0.00    +0.000 A 
ATOM      7  C   UNL     1       5.982   0.885   1.264  0.00  0.00    +0.000 A 
ATOM      8  N   UNL     1       5.098   0.835   2.297  0.00  0.00    +0.000 NA
BRANCH   3  10
ATOM      9  N   UNL     1       3.212  -0.672   4.762  0.00  0.00    +0.000 NA
ATOM     10  C   UNL     1       3.962  -0.522   3.884  0.00  0.00    +0.000 C 
ENDBRANCH   3  10
ENDBRANCH   1   6
BRANCH   1  11
ATOM     11  C   UNL     1       8.669  -0.936  -0.644  0.00  0.00    +0.000 C 
ATOM     12  C   UNL     1       8.449  -2.083  -1.621  0.00  0.00    +0.000 C 
ATOM     13  C   UNL     1       8.797  -2.386  -0.203  0.00  0.00    +0.000 C 
BRANCH  11  14
ATOM     14  C   UNL     1       9.991  -0.179  -0.727  0.00  0.00    +0.000 A 
ATOM     15  C   UNL     1      10.746   0.057   0.435  0.00  0.00    +0.000 A 
ATOM     16  C   UNL     1      12.050   0.545   0.364  0.00  0.00    +0.000 A 
ATOM     17  C   UNL     1      12.614   0.836  -0.874  0.00  0.00    +0.000 A 
ATOM     18  C   UNL     1      11.855   0.698  -2.033  0.00  0.00    +0.000 A 
ATOM     19  C   UNL     1      10.548   0.212  -1.957  0.00  0.00    +0.000 A 
ENDBRANCH  11  14
ENDBRANCH   1  11
TORSDOF 4
