REMARK  Name = 
REMARK  7 active torsions:
REMARK  status: ('A' for Active; 'I' for Inactive)
REMARK    1  A    between atoms: C_1  and  C_2
REMARK    2  A    between atoms: C_4  and  C_5
REMARK    3  A    between atoms: C_10  and  O_11
REMARK    4  A    between atoms: O_11  and  C_12
REMARK    5  A    between atoms: C_12  and  C_13
REMARK    6  A    between atoms: C_16  and  C_17
REMARK    7  A    between atoms: C_17  and  N_18
REMARK                            x       y       z     vdW  Elec       q    Type
REMARK                         _______ _______ _______ _____ _____    ______ ____
ROOT
ATOM      1  C   UNL     1       2.520   0.415   0.009  0.00  0.00    +0.000 C 
ATOM      2  C   UNL     1       1.038   0.165   0.002  0.00  0.00    +0.000 A 
ATOM      3  C   UNL     1       0.223   1.322   0.007  0.00  0.00    +0.000 A 
ATOM      4  C   UNL     1      -1.177   1.261  -0.001  0.00  0.00    +0.000 A 
ATOM      5  C   UNL     1      -1.788   0.011  -0.013  0.00  0.00    +0.000 A 
ATOM      6  C   UNL     1      -0.997  -1.143  -0.018  0.00  0.00    +0.000 A 
ATOM      7  C   UNL     1       0.410  -1.091  -0.011  0.00  0.00    +0.000 A 
ENDROOT
BRANCH   4   8
ATOM      8  C   UNL     1      -1.924   2.553   0.002  0.00  0.00    +0.000 C 
ATOM      9  N   UNL     1      -3.289   2.526  -0.011  0.00  0.00    +0.000 N 
ATOM     10  O   UNL     1      -1.338   3.630   0.014  0.00  0.00    +0.000 OA
ATOM     11  H   UNL     1      -3.858   1.696  -0.025  0.00  0.00    +0.000 HD
ATOM     12  H   UNL     1      -3.757   3.424  -0.011  0.00  0.00    +0.000 HD
ENDBRANCH   4   8
BRANCH   7  13
ATOM     13  O   UNL     1       0.949  -2.347  -0.022  0.00  0.00    +0.000 OA
BRANCH  13  14
ATOM     14  C   UNL     1       2.357  -2.528   0.010  0.00  0.00    +0.000 C 
BRANCH  14  15
ATOM     15  C   UNL     1       2.724  -3.996   0.026  0.00  0.00    +0.000 A 
ATOM     16  C   UNL     1       3.944  -4.409  -0.534  0.00  0.00    +0.000 A 
ATOM     17  C   UNL     1       4.337  -5.749  -0.480  0.00  0.00    +0.000 A 
ATOM     18  C   UNL     1       3.524  -6.703   0.144  0.00  0.00    +0.000 A 
ATOM     19  C   UNL     1       2.313  -6.287   0.714  0.00  0.00    +0.000 A 
ATOM     20  C   UNL     1       1.921  -4.947   0.665  0.00  0.00    +0.000 A 
BRANCH  18  21
ATOM     21  C   UNL     1       3.928  -8.154   0.185  0.00  0.00    +0.000 C 
BRANCH  21  22
ATOM     22  N   UNL     1       4.039  -8.644   1.554  0.00  0.00    +0.000 NA
ATOM     23  H   UNL     1       4.746  -8.096   2.041  0.00  0.00    +0.000 HD
ATOM     24  H   UNL     1       4.374  -9.604   1.539  0.00  0.00    +0.000 HD
ENDBRANCH  21  22
ENDBRANCH  18  21
ENDBRANCH  14  15
ENDBRANCH  13  14
ENDBRANCH   7  13
TORSDOF 6
