REMARK  Name = 
REMARK  6 active torsions:
REMARK  status: ('A' for Active; 'I' for Inactive)
REMARK    1  A    between atoms: C_2  and  C_25
REMARK    2  A    between atoms: N_3  and  C_4
REMARK    3  A    between atoms: C_4  and  C_5
REMARK    4  A    between atoms: C_8  and  C_9
REMARK    5  A    between atoms: C_9  and  N_10
REMARK    6  A    between atoms: C_11  and  C_13
REMARK                            x       y       z     vdW  Elec       q    Type
REMARK                         _______ _______ _______ _____ _____    ______ ____
ROOT
ATOM      1  C   UNL     1       3.145  -3.054   2.155  0.00  0.00    +0.000 A 
ATOM      2  C   UNL     1       4.163  -2.558   2.981  0.00  0.00    +0.000 A 
ATOM      3  C   UNL     1       4.998  -3.432   3.688  0.00  0.00    +0.000 A 
ATOM      4  C   UNL     1       4.846  -4.819   3.567  0.00  0.00    +0.000 A 
ATOM      5  C   UNL     1       3.825  -5.314   2.745  0.00  0.00    +0.000 A 
ATOM      6  C   UNL     1       2.991  -4.442   2.038  0.00  0.00    +0.000 A 
ENDROOT
BRANCH   1   7
ATOM      7  C   UNL     1       2.213  -2.118   1.433  0.00  0.00    +0.000 C 
BRANCH   7  10
ATOM      8  O   UNL     1       0.858  -0.438  -0.277  0.00  0.00    +0.000 OA
ATOM      9  C   UNL     1       1.958  -0.848  -0.648  0.00  0.00    +0.000 C 
ATOM     10  N   UNL     1       2.704  -1.711   0.142  0.00  0.00    +0.000 N 
ATOM     11  H   UNL     1       3.613  -2.010  -0.195  0.00  0.00    +0.000 HD
BRANCH   9  12
ATOM     12  C   UNL     1       2.582  -0.481  -1.913  0.00  0.00    +0.000 A 
ATOM     13  N   UNL     1       3.748  -0.913  -2.370  0.00  0.00    +0.000 NA
ATOM     14  C   UNL     1       3.878  -0.271  -3.579  0.00  0.00    +0.000 A 
ATOM     15  C   UNL     1       2.789   0.531  -3.809  0.00  0.00    +0.000 A 
ATOM     16  O   UNL     1       1.945   0.405  -2.748  0.00  0.00    +0.000 OA
ENDBRANCH   9  12
ENDBRANCH   7  10
ENDBRANCH   1   7
BRANCH   4  17
ATOM     17  C   UNL     1       5.732  -5.768   4.333  0.00  0.00    +0.000 C 
BRANCH  17  18
ATOM     18  N   UNL     1       5.163  -6.102   5.615  0.00  0.00    +0.000 N 
ATOM     19  C   UNL     1       5.840  -6.889   6.511  0.00  0.00    +0.000 C 
ATOM     20  O   UNL     1       6.978  -7.295   6.288  0.00  0.00    +0.000 OA
ATOM     21  H   UNL     1       4.161  -5.976   5.719  0.00  0.00    +0.000 HD
BRANCH  19  22
ATOM     22  C   UNL     1       5.161  -7.175   7.782  0.00  0.00    +0.000 A 
ATOM     23  C   UNL     1       5.909  -7.531   8.897  0.00  0.00    +0.000 A 
ATOM     24  S   UNL     1       4.972  -7.778  10.300  0.00  0.00    +0.000 S 
ATOM     25  C   UNL     1       3.527  -7.473   9.455  0.00  0.00    +0.000 A 
ATOM     26  N   UNL     1       2.322  -7.547  10.082  0.00  0.00    +0.000 NA
ATOM     27  C   UNL     1       1.307  -7.324   9.315  0.00  0.00    +0.000 A 
ATOM     28  N   UNL     1       1.390  -7.027   7.980  0.00  0.00    +0.000 N 
ATOM     29  C   UNL     1       2.585  -6.914   7.311  0.00  0.00    +0.000 A 
ATOM     30  O   UNL     1       2.622  -6.610   6.123  0.00  0.00    +0.000 OA
ATOM     31  C   UNL     1       3.757  -7.167   8.125  0.00  0.00    +0.000 A 
ATOM     32  H   UNL     1       0.557  -6.857   7.435  0.00  0.00    +0.000 HD
ENDBRANCH  19  22
ENDBRANCH  17  18
ENDBRANCH   4  17
TORSDOF 6
