REMARK  Name = 
REMARK  7 active torsions:
REMARK  status: ('A' for Active; 'I' for Inactive)
REMARK    1  A    between atoms: C_1  and  C_2
REMARK    2  A    between atoms: C_2  and  N_3
REMARK    3  A    between atoms: C_2  and  C_16
REMARK    4  A    between atoms: C_4  and  C_6
REMARK    5  A    between atoms: C_19  and  O_20
REMARK    6  A    between atoms: O_20  and  C_21
REMARK    7  A    between atoms: C_21  and  C_22
REMARK                            x       y       z     vdW  Elec       q    Type
REMARK                         _______ _______ _______ _____ _____    ______ ____
ROOT
ATOM      1  C   UNL     1       3.179  -1.203   0.716  0.00  0.00    +0.000 C 
ATOM      2  C   UNL     1       2.400  -0.087   0.014  0.00  0.00    +0.000 C 
ENDROOT
BRANCH   2   3
ATOM      3  C   UNL     1       2.923   0.270  -1.367  0.00  0.00    +0.000 A 
ATOM      4  C   UNL     1       2.851   1.606  -1.798  0.00  0.00    +0.000 A 
ATOM      5  C   UNL     1       3.349   1.995  -3.048  0.00  0.00    +0.000 A 
ATOM      6  C   UNL     1       3.924   1.051  -3.896  0.00  0.00    +0.000 A 
ATOM      7  C   UNL     1       3.952  -0.287  -3.501  0.00  0.00    +0.000 A 
ATOM      8  C   UNL     1       3.458  -0.677  -2.251  0.00  0.00    +0.000 A 
BRANCH   6   9
ATOM      9  O   UNL     1       4.440   1.308  -5.137  0.00  0.00    +0.000 OA
BRANCH   9  10
ATOM     10  C   UNL     1       4.972   2.624  -5.328  0.00  0.00    +0.000 C 
BRANCH  10  11
ATOM     11  C   UNL     1       5.568   2.743  -6.716  0.00  0.00    +0.000 A 
ATOM     12  C   UNL     1       6.570   1.870  -7.137  0.00  0.00    +0.000 A 
ATOM     13  C   UNL     1       7.108   2.024  -8.413  0.00  0.00    +0.000 A 
ATOM     14  C   UNL     1       6.635   3.043  -9.232  0.00  0.00    +0.000 A 
ATOM     15  C   UNL     1       5.642   3.870  -8.739  0.00  0.00    +0.000 A 
ATOM     16  N   UNL     1       5.108   3.750  -7.504  0.00  0.00    +0.000 NA
ENDBRANCH  10  11
ENDBRANCH   9  10
ENDBRANCH   6   9
ENDBRANCH   2   3
BRANCH   2  17
ATOM     17  N   UNL     1       0.988  -0.414  -0.053  0.00  0.00    +0.000 N 
ATOM     18  C   UNL     1       0.139  -0.136   0.990  0.00  0.00    +0.000 C 
ATOM     19  O   UNL     1       0.517   0.461   1.995  0.00  0.00    +0.000 OA
ATOM     20  H   UNL     1       0.692  -1.053  -0.785  0.00  0.00    +0.000 HD
BRANCH  18  21
ATOM     21  C   UNL     1      -1.265  -0.530   0.833  0.00  0.00    +0.000 A 
ATOM     22  C   UNL     1      -2.246   0.151   1.541  0.00  0.00    +0.000 A 
ATOM     23  S   UNL     1      -3.823  -0.426   1.257  0.00  0.00    +0.000 S 
ATOM     24  C   UNL     1      -3.248  -1.638   0.211  0.00  0.00    +0.000 A 
ATOM     25  N   UNL     1      -4.101  -2.531  -0.356  0.00  0.00    +0.000 NA
ATOM     26  C   UNL     1      -3.528  -3.420  -1.095  0.00  0.00    +0.000 A 
ATOM     27  N   UNL     1      -2.178  -3.490  -1.329  0.00  0.00    +0.000 N 
ATOM     28  C   UNL     1      -1.282  -2.579  -0.816  0.00  0.00    +0.000 A 
ATOM     29  O   UNL     1      -0.092  -2.620  -1.105  0.00  0.00    +0.000 OA
ATOM     30  C   UNL     1      -1.873  -1.581   0.053  0.00  0.00    +0.000 A 
ATOM     31  H   UNL     1      -1.797  -4.199  -1.937  0.00  0.00    +0.000 HD
ENDBRANCH  18  21
ENDBRANCH   2  17
TORSDOF 6
