REMARK  Name = 
REMARK  9 active torsions:
REMARK  status: ('A' for Active; 'I' for Inactive)
REMARK    1  A    between atoms: N_1  and  C_2
REMARK    2  A    between atoms: C_2  and  C_3
REMARK    3  A    between atoms: C_3  and  N_4
REMARK    4  A    between atoms: C_3  and  C_26
REMARK    5  A    between atoms: N_4  and  C_5
REMARK    6  A    between atoms: C_5  and  C_6
REMARK    7  A    between atoms: C_9  and  C_10
REMARK    8  A    between atoms: C_10  and  N_11
REMARK    9  A    between atoms: C_12  and  C_14
REMARK                            x       y       z     vdW  Elec       q    Type
REMARK                         _______ _______ _______ _____ _____    ______ ____
ROOT
ATOM      1  C   UNL     1       0.549   0.635  -3.830  0.00  0.00    +0.000 A 
ATOM      2  C   UNL     1      -0.007  -0.105  -4.872  0.00  0.00    +0.000 A 
ATOM      3  C   UNL     1      -0.381   0.550  -6.038  0.00  0.00    +0.000 A 
ATOM      4  C   UNL     1      -0.214   1.933  -6.133  0.00  0.00    +0.000 A 
ATOM      5  C   UNL     1       0.354   2.589  -5.045  0.00  0.00    +0.000 A 
ATOM      6  N   UNL     1       0.739   1.978  -3.903  0.00  0.00    +0.000 NA
ENDROOT
BRANCH   1   7
ATOM      7  C   UNL     1       0.969  -0.068  -2.554  0.00  0.00    +0.000 C 
BRANCH   7   8
ATOM      8  N   UNL     1       0.203   0.418  -1.409  0.00  0.00    +0.000 NA
ATOM      9  H   UNL     1       0.361   1.428  -1.367  0.00  0.00    +0.000 HD
BRANCH   8  10
ATOM     10  C   UNL     1       0.615  -0.170  -0.114  0.00  0.00    +0.000 C 
BRANCH  10  11
ATOM     11  C   UNL     1      -0.155   0.494   1.040  0.00  0.00    +0.000 A 
ATOM     12  C   UNL     1      -1.494   0.868   0.881  0.00  0.00    +0.000 A 
ATOM     13  C   UNL     1      -2.160   1.490   1.933  0.00  0.00    +0.000 A 
ATOM     14  C   UNL     1      -1.484   1.711   3.124  0.00  0.00    +0.000 A 
ATOM     15  C   UNL     1      -0.166   1.298   3.213  0.00  0.00    +0.000 A 
ATOM     16  N   UNL     1       0.511   0.695   2.206  0.00  0.00    +0.000 NA
ENDBRANCH  10  11
BRANCH  10  17
ATOM     17  C   UNL     1       0.418  -1.719   0.011  0.00  0.00    +0.000 C 
BRANCH  17  18
ATOM     18  N   UNL     1       1.204  -2.554  -0.916  0.00  0.00    +0.000 NA
ATOM     19  H   UNL     1       0.987  -3.535  -0.751  0.00  0.00    +0.000 HD
ATOM     20  H   UNL     1       2.197  -2.431  -0.728  0.00  0.00    +0.000 HD
ENDBRANCH  17  18
ENDBRANCH  10  17
ENDBRANCH   8  10
ENDBRANCH   7   8
ENDBRANCH   1   7
BRANCH   4  21
ATOM     21  C   UNL     1      -0.531   2.669  -7.399  0.00  0.00    +0.000 C 
BRANCH  21  22
ATOM     22  N   UNL     1       0.634   2.694  -8.243  0.00  0.00    +0.000 N 
ATOM     23  C   UNL     1       0.687   3.411  -9.406  0.00  0.00    +0.000 C 
ATOM     24  O   UNL     1      -0.244   4.111  -9.790  0.00  0.00    +0.000 OA
ATOM     25  H   UNL     1       1.313   1.956  -8.091  0.00  0.00    +0.000 HD
BRANCH  23  26
ATOM     26  C   UNL     1       1.967   3.348 -10.130  0.00  0.00    +0.000 A 
ATOM     27  C   UNL     1       2.324   4.373 -10.993  0.00  0.00    +0.000 A 
ATOM     28  S   UNL     1       3.882   4.183 -11.664  0.00  0.00    +0.000 S 
ATOM     29  C   UNL     1       4.108   2.698 -10.866  0.00  0.00    +0.000 A 
ATOM     30  N   UNL     1       5.260   1.986 -11.016  0.00  0.00    +0.000 NA
ATOM     31  C   UNL     1       5.285   0.870 -10.365  0.00  0.00    +0.000 A 
ATOM     32  N   UNL     1       4.261   0.396  -9.587  0.00  0.00    +0.000 N 
ATOM     33  C   UNL     1       3.089   1.080  -9.401  0.00  0.00    +0.000 A 
ATOM     34  O   UNL     1       2.199   0.635  -8.680  0.00  0.00    +0.000 OA
ATOM     35  C   UNL     1       3.010   2.353 -10.097  0.00  0.00    +0.000 A 
ATOM     36  H   UNL     1       4.343  -0.488  -9.104  0.00  0.00    +0.000 HD
ENDBRANCH  23  26
ENDBRANCH  21  22
ENDBRANCH   4  21
TORSDOF 9
