REMARK  Name = 
REMARK  7 active torsions:
REMARK  status: ('A' for Active; 'I' for Inactive)
REMARK    1  A    between atoms: N_1  and  C_2
REMARK    2  A    between atoms: C_2  and  C_3
REMARK    3  A    between atoms: C_3  and  N_4
REMARK    4  A    between atoms: C_3  and  C_17
REMARK    5  A    between atoms: C_5  and  C_7
REMARK    6  A    between atoms: C_20  and  C_21
REMARK    7  A    between atoms: C_21  and  N_22
REMARK                            x       y       z     vdW  Elec       q    Type
REMARK                         _______ _______ _______ _____ _____    ______ ____
ROOT
ATOM      1  C   UNL     1       2.791  -0.605   1.216  0.00  0.00    +0.000 C 
ENDROOT
BRANCH   1   2
ATOM      2  C   UNL     1       4.314  -0.628   1.393  0.00  0.00    +0.000 A 
ATOM      3  C   UNL     1       4.951   0.450   2.029  0.00  0.00    +0.000 A 
ATOM      4  C   UNL     1       6.345   0.510   2.125  0.00  0.00    +0.000 A 
ATOM      5  C   UNL     1       7.142  -0.513   1.597  0.00  0.00    +0.000 A 
ATOM      6  C   UNL     1       6.513  -1.614   1.002  0.00  0.00    +0.000 A 
ATOM      7  C   UNL     1       5.118  -1.663   0.885  0.00  0.00    +0.000 A 
BRANCH   5   8
ATOM      8  C   UNL     1       8.653  -0.410   1.638  0.00  0.00    +0.000 C 
BRANCH   8   9
ATOM      9  N   UNL     1       9.172  -0.968   2.880  0.00  0.00    +0.000 N 
ATOM     10  C   UNL     1      10.579  -0.982   2.935  0.00  0.00    +0.000 A 
ATOM     11  C   UNL     1      11.195  -1.488   4.079  0.00  0.00    +0.000 A 
ATOM     12  C   UNL     1      12.587  -1.505   4.163  0.00  0.00    +0.000 A 
ATOM     13  C   UNL     1      13.336  -1.012   3.105  0.00  0.00    +0.000 A 
ATOM     14  C   UNL     1      12.654  -0.514   2.012  0.00  0.00    +0.000 A 
ATOM     15  N   UNL     1      11.306  -0.487   1.912  0.00  0.00    +0.000 NA
ATOM     16  H   UNL     1       8.823  -1.906   3.047  0.00  0.00    +0.000 HD
ENDBRANCH   8   9
ENDBRANCH   5   8
ENDBRANCH   1   2
BRANCH   1  17
ATOM     17  N   UNL     1       2.246  -1.948   1.391  0.00  0.00    +0.000 N 
ATOM     18  C   UNL     1       0.902  -2.224   1.400  0.00  0.00    +0.000 C 
ATOM     19  O   UNL     1       0.045  -1.388   1.139  0.00  0.00    +0.000 OA
ATOM     20  H   UNL     1       2.850  -2.588   1.894  0.00  0.00    +0.000 HD
BRANCH  18  21
ATOM     21  C   UNL     1       0.536  -3.616   1.694  0.00  0.00    +0.000 A 
ATOM     22  C   UNL     1      -0.652  -4.141   1.202  0.00  0.00    +0.000 A 
ATOM     23  S   UNL     1      -0.912  -5.768   1.644  0.00  0.00    +0.000 S 
ATOM     24  C   UNL     1       0.529  -5.810   2.550  0.00  0.00    +0.000 A 
ATOM     25  N   UNL     1       0.893  -6.921   3.244  0.00  0.00    +0.000 NA
ATOM     26  C   UNL     1       1.987  -6.796   3.918  0.00  0.00    +0.000 A 
ATOM     27  N   UNL     1       2.766  -5.669   3.946  0.00  0.00    +0.000 N 
ATOM     28  C   UNL     1       2.469  -4.547   3.215  0.00  0.00    +0.000 A 
ATOM     29  O   UNL     1       3.236  -3.591   3.176  0.00  0.00    +0.000 OA
ATOM     30  C   UNL     1       1.219  -4.614   2.481  0.00  0.00    +0.000 A 
ATOM     31  H   UNL     1       3.631  -5.646   4.468  0.00  0.00    +0.000 HD
ENDBRANCH  18  21
ENDBRANCH   1  17
BRANCH   1  32
ATOM     32  C   UNL     1       2.403   0.021  -0.161  0.00  0.00    +0.000 C 
BRANCH  32  33
ATOM     33  N   UNL     1       2.917   1.379  -0.399  0.00  0.00    +0.000 NA
ATOM     34  H   UNL     1       2.776   1.612  -1.381  0.00  0.00    +0.000 HD
ATOM     35  H   UNL     1       3.928   1.384  -0.255  0.00  0.00    +0.000 HD
ENDBRANCH  32  33
ENDBRANCH   1  32
TORSDOF 7
