REMARK  Name = 
REMARK  8 active torsions:
REMARK  status: ('A' for Active; 'I' for Inactive)
REMARK    1  A    between atoms: C_1  and  O_2
REMARK    2  A    between atoms: O_2  and  C_3
REMARK    3  A    between atoms: C_10  and  C_11
REMARK    4  A    between atoms: N_13  and  C_14
REMARK    5  A    between atoms: C_14  and  C_15
REMARK    6  A    between atoms: C_18  and  S_19
REMARK    7  A    between atoms: S_19  and  C_20
REMARK    8  A    between atoms: C_20  and  C_21
REMARK                            x       y       z     vdW  Elec       q    Type
REMARK                         _______ _______ _______ _____ _____    ______ ____
ROOT
ATOM      1  C   UNL     1       3.109  -2.691   1.961  0.00  0.00    +0.000 C 
ENDROOT
BRANCH   1   2
ATOM      2  C   UNL     1       2.089  -1.988   2.826  0.00  0.00    +0.000 A 
ATOM      3  C   UNL     1       1.115  -2.714   3.525  0.00  0.00    +0.000 A 
ATOM      4  C   UNL     1       0.214  -2.066   4.383  0.00  0.00    +0.000 A 
ATOM      5  C   UNL     1       0.267  -0.680   4.556  0.00  0.00    +0.000 A 
ATOM      6  C   UNL     1       1.189   0.051   3.799  0.00  0.00    +0.000 A 
ATOM      7  C   UNL     1       2.088  -0.593   2.940  0.00  0.00    +0.000 A 
BRANCH   5   8
ATOM      8  S   UNL     1      -0.805   0.242   5.650  0.00  0.00    +0.000 S 
BRANCH   8   9
ATOM      9  C   UNL     1      -1.043  -0.913   7.050  0.00  0.00    +0.000 C 
BRANCH   9  10
ATOM     10  C   UNL     1      -1.899  -0.316   8.193  0.00  0.00    +0.000 C 
ATOM     11  C   UNL     1      -2.088  -1.357   9.315  0.00  0.00    +0.000 C 
ATOM     12  C   UNL     1      -3.037  -2.485   8.898  0.00  0.00    +0.000 C 
ATOM     13  N   UNL     1      -4.331  -1.977   8.442  0.00  0.00    +0.000 NA
ATOM     14  C   UNL     1      -4.184  -1.016   7.346  0.00  0.00    +0.000 C 
ATOM     15  C   UNL     1      -3.297   0.158   7.754  0.00  0.00    +0.000 C 
ATOM     16  H   UNL     1      -4.794  -1.510   9.223  0.00  0.00    +0.000 HD
ENDBRANCH   9  10
ENDBRANCH   8   9
ENDBRANCH   5   8
ENDBRANCH   1   2
BRANCH   1  19
ATOM     17  C   UNL     1       3.345  -3.543  -0.342  0.00  0.00    +0.000 C 
ATOM     18  O   UNL     1       4.463  -3.995  -0.111  0.00  0.00    +0.000 OA
ATOM     19  N   UNL     1       2.621  -2.894   0.626  0.00  0.00    +0.000 N 
ATOM     20  H   UNL     1       1.699  -2.544   0.414  0.00  0.00    +0.000 HD
BRANCH  17  28
ATOM     21  C   UNL     1       0.291  -2.605  -1.613  0.00  0.00    +0.000 A 
ATOM     22  N   UNL     1      -0.793  -2.319  -2.360  0.00  0.00    +0.000 NA
ATOM     23  C   UNL     1      -0.776  -2.665  -3.649  0.00  0.00    +0.000 A 
ATOM     24  N   UNL     1       0.209  -3.278  -4.302  0.00  0.00    +0.000 NA
ATOM     25  C   UNL     1       1.272  -3.541  -3.522  0.00  0.00    +0.000 A 
ATOM     26  S   UNL     1       2.624  -4.326  -4.184  0.00  0.00    +0.000 S 
ATOM     27  C   UNL     1       3.445  -4.277  -2.696  0.00  0.00    +0.000 A 
ATOM     28  C   UNL     1       2.724  -3.666  -1.675  0.00  0.00    +0.000 A 
ATOM     29  C   UNL     1       1.415  -3.240  -2.172  0.00  0.00    +0.000 A 
BRANCH  21  31
ATOM     30  C   UNL     1      -0.854  -1.502   0.125  0.00  0.00    +0.000 C 
ATOM     31  O   UNL     1       0.264  -2.289  -0.272  0.00  0.00    +0.000 OA
ENDBRANCH  21  31
ENDBRANCH  17  28
ENDBRANCH   1  19
TORSDOF 7
