REMARK  Name = 
REMARK  8 active torsions:
REMARK  status: ('A' for Active; 'I' for Inactive)
REMARK    1  A    between atoms: C_1  and  C_2
REMARK    2  A    between atoms: C_2  and  N_3
REMARK    3  A    between atoms: C_2  and  C_25
REMARK    4  A    between atoms: N_3  and  C_4
REMARK    5  A    between atoms: C_4  and  C_5
REMARK    6  A    between atoms: C_8  and  C_9
REMARK    7  A    between atoms: C_9  and  N_10
REMARK    8  A    between atoms: C_11  and  C_13
REMARK                            x       y       z     vdW  Elec       q    Type
REMARK                         _______ _______ _______ _____ _____    ______ ____
ROOT
ATOM      1  C   UNL     1      -0.965   0.086   1.494  0.00  0.00    +0.000 A 
ATOM      2  C   UNL     1      -1.684  -0.804   2.296  0.00  0.00    +0.000 A 
ATOM      3  C   UNL     1      -3.072  -0.718   2.360  0.00  0.00    +0.000 A 
ATOM      4  C   UNL     1      -3.713   0.278   1.630  0.00  0.00    +0.000 A 
ATOM      5  N   UNL     1      -3.043   1.127   0.808  0.00  0.00    +0.000 NA
ATOM      6  C   UNL     1      -1.697   1.010   0.759  0.00  0.00    +0.000 A 
ENDROOT
BRANCH   1   7
ATOM      7  C   UNL     1       0.541   0.096   1.489  0.00  0.00    +0.000 C 
BRANCH   7   8
ATOM      8  N   UNL     1       1.076  -1.210   1.128  0.00  0.00    +0.000 NA
ATOM      9  H   UNL     1       0.712  -1.474   0.212  0.00  0.00    +0.000 HD
BRANCH   8  11
ATOM     10  C   UNL     1       3.219  -0.911   2.408  0.00  0.00    +0.000 C 
ATOM     11  C   UNL     1       2.542  -1.274   1.079  0.00  0.00    +0.000 C 
BRANCH  11  12
ATOM     12  C   UNL     1       2.944  -2.681   0.656  0.00  0.00    +0.000 A 
ATOM     13  C   UNL     1       2.553  -3.799   1.415  0.00  0.00    +0.000 A 
ATOM     14  C   UNL     1       2.883  -5.093   1.011  0.00  0.00    +0.000 A 
ATOM     15  C   UNL     1       3.608  -5.289  -0.163  0.00  0.00    +0.000 A 
ATOM     16  C   UNL     1       3.999  -4.190  -0.924  0.00  0.00    +0.000 A 
ATOM     17 CL   UNL     1       4.880  -4.435  -2.382  0.00  0.00    +0.000 Cl
ATOM     18  C   UNL     1       3.675  -2.892  -0.523  0.00  0.00    +0.000 A 
ENDBRANCH  11  12
ENDBRANCH   8  11
ENDBRANCH   7   8
ENDBRANCH   1   7
BRANCH   4  19
ATOM     19  C   UNL     1      -5.206   0.460   1.746  0.00  0.00    +0.000 C 
BRANCH  19  20
ATOM     20  N   UNL     1      -5.934  -0.315   0.771  0.00  0.00    +0.000 N 
ATOM     21  C   UNL     1      -6.491  -1.529   1.064  0.00  0.00    +0.000 C 
ATOM     22  O   UNL     1      -6.405  -2.036   2.181  0.00  0.00    +0.000 OA
ATOM     23  H   UNL     1      -5.806  -0.035  -0.197  0.00  0.00    +0.000 HD
BRANCH  21  24
ATOM     24  C   UNL     1      -7.263  -2.167  -0.007  0.00  0.00    +0.000 A 
ATOM     25  C   UNL     1      -8.260  -3.078   0.314  0.00  0.00    +0.000 A 
ATOM     26  S   UNL     1      -9.073  -3.710  -1.045  0.00  0.00    +0.000 S 
ATOM     27  C   UNL     1      -8.094  -2.818  -2.112  0.00  0.00    +0.000 A 
ATOM     28  N   UNL     1      -8.246  -2.931  -3.460  0.00  0.00    +0.000 NA
ATOM     29  C   UNL     1      -7.420  -2.219  -4.151  0.00  0.00    +0.000 A 
ATOM     30  N   UNL     1      -6.465  -1.394  -3.620  0.00  0.00    +0.000 N 
ATOM     31  C   UNL     1      -6.311  -1.206  -2.265  0.00  0.00    +0.000 A 
ATOM     32  O   UNL     1      -5.514  -0.388  -1.824  0.00  0.00    +0.000 OA
ATOM     33  C   UNL     1      -7.186  -2.021  -1.442  0.00  0.00    +0.000 A 
ATOM     34  H   UNL     1      -5.866  -0.839  -4.212  0.00  0.00    +0.000 HD
ENDBRANCH  21  24
ENDBRANCH  19  20
ENDBRANCH   4  19
TORSDOF 7
