REMARK  Name = 
REMARK  6 active torsions:
REMARK  status: ('A' for Active; 'I' for Inactive)
REMARK    1  A    between atoms: N_1  and  C_2
REMARK    2  A    between atoms: C_2  and  C_3
REMARK    3  A    between atoms: C_6  and  C_7
REMARK    4  A    between atoms: C_7  and  N_8
REMARK    5  A    between atoms: C_12  and  C_13
REMARK    6  A    between atoms: C_13  and  O_15
REMARK                            x       y       z     vdW  Elec       q    Type
REMARK                         _______ _______ _______ _____ _____    ______ ____
ROOT
ATOM      1  N   UNL     1       5.355  -4.821  -3.244  0.00  0.00    +0.000 N 
ATOM      2  C   UNL     1       5.771  -6.058  -3.769  0.00  0.00    +0.000 A 
ATOM      3  C   UNL     1       6.780  -6.075  -4.731  0.00  0.00    +0.000 A 
ATOM      4  C   UNL     1       7.214  -7.295  -5.265  0.00  0.00    +0.000 A 
ATOM      5  C   UNL     1       6.620  -8.476  -4.823  0.00  0.00    +0.000 A 
ATOM      6  C   UNL     1       5.624  -8.374  -3.866  0.00  0.00    +0.000 A 
ATOM      7  N   UNL     1       5.186  -7.199  -3.354  0.00  0.00    +0.000 NA
ATOM      8  H   UNL     1       6.156  -4.340  -2.846  0.00  0.00    +0.000 HD
ENDROOT
BRANCH   5   9
ATOM      9  C   UNL     1       7.017  -9.827  -5.263  0.00  0.00    +0.000 C 
ATOM     10  O   UNL     1       6.894 -10.808  -4.551  0.00  0.00    +0.000 OA
BRANCH   9  11
ATOM     11  O   UNL     1       7.494  -9.888  -6.522  0.00  0.00    +0.000 OA
ATOM     12  H   UNL     1       7.376  -9.084  -7.059  0.00  0.00    +0.000 HD
ENDBRANCH   9  11
ENDBRANCH   5   9
BRANCH   1  13
ATOM     13  C   UNL     1       4.283  -4.962  -2.258  0.00  0.00    +0.000 C 
BRANCH  13  17
ATOM     14  C   UNL     1       2.932  -1.228  -0.498  0.00  0.00    +0.000 A 
ATOM     15  C   UNL     1       3.438  -1.248  -1.806  0.00  0.00    +0.000 A 
ATOM     16  C   UNL     1       3.895  -2.438  -2.381  0.00  0.00    +0.000 A 
ATOM     17  C   UNL     1       3.878  -3.634  -1.653  0.00  0.00    +0.000 A 
ATOM     18  C   UNL     1       3.365  -3.612  -0.346  0.00  0.00    +0.000 A 
ATOM     19  C   UNL     1       2.901  -2.424   0.227  0.00  0.00    +0.000 A 
BRANCH  14  20
ATOM     20  C   UNL     1       2.448   0.060   0.120  0.00  0.00    +0.000 C 
BRANCH  20  21
ATOM     21  N   UNL     1       1.369   0.664  -0.654  0.00  0.00    +0.000 NA
ATOM     22  H   UNL     1       1.049   1.505  -0.179  0.00  0.00    +0.000 HD
ATOM     23  H   UNL     1       0.579   0.021  -0.669  0.00  0.00    +0.000 HD
ENDBRANCH  20  21
ENDBRANCH  14  20
ENDBRANCH  13  17
ENDBRANCH   1  13
TORSDOF 6
