REMARK  Name = 
REMARK  6 active torsions:
REMARK  status: ('A' for Active; 'I' for Inactive)
REMARK    1  A    between atoms: C_1  and  O_2
REMARK    2  A    between atoms: O_2  and  C_3
REMARK    3  A    between atoms: C_7  and  C_8
REMARK    4  A    between atoms: C_8  and  N_9
REMARK    5  A    between atoms: C_14  and  C_15
REMARK    6  A    between atoms: C_15  and  O_16
REMARK                            x       y       z     vdW  Elec       q    Type
REMARK                         _______ _______ _______ _____ _____    ______ ____
ROOT
ATOM      1  N   UNL     1       7.067  -3.786   0.436  0.00  0.00    +0.000 N 
ATOM      2  C   UNL     1       6.650  -4.626   1.445  0.00  0.00    +0.000 A 
ATOM      3  C   UNL     1       7.473  -5.728   1.450  0.00  0.00    +0.000 A 
ATOM      4  C   UNL     1       8.624  -5.354   0.713  0.00  0.00    +0.000 A 
ATOM      5  C   UNL     1       9.954  -5.813   0.692  0.00  0.00    +0.000 A 
ATOM      6  C   UNL     1      10.896  -5.140  -0.100  0.00  0.00    +0.000 A 
ATOM      7  C   UNL     1      10.458  -4.197  -1.039  0.00  0.00    +0.000 A 
ATOM      8  C   UNL     1       9.136  -3.737  -1.045  0.00  0.00    +0.000 A 
ATOM      9  C   UNL     1       8.277  -4.245  -0.062  0.00  0.00    +0.000 A 
ENDROOT
BRANCH   1  10
ATOM     10  C   UNL     1       6.562  -2.419   0.249  0.00  0.00    +0.000 C 
BRANCH  10  15
ATOM     11  C   UNL     1       3.682  -0.755  -1.574  0.00  0.00    +0.000 A 
ATOM     12  C   UNL     1       3.486  -1.593  -2.664  0.00  0.00    +0.000 A 
ATOM     13  C   UNL     1       4.276  -2.739  -2.805  0.00  0.00    +0.000 A 
ATOM     14  C   UNL     1       5.257  -3.066  -1.857  0.00  0.00    +0.000 A 
ATOM     15  C   UNL     1       5.459  -2.240  -0.749  0.00  0.00    +0.000 A 
ATOM     16  C   UNL     1       4.650  -1.096  -0.626  0.00  0.00    +0.000 A 
BRANCH  11  18
ATOM     17  C   UNL     1       2.195   0.940  -2.335  0.00  0.00    +0.000 C 
ATOM     18  O   UNL     1       3.018   0.408  -1.308  0.00  0.00    +0.000 OA
ENDBRANCH  11  18
ENDBRANCH  10  15
ENDBRANCH   1  10
BRANCH   6  19
ATOM     19  C   UNL     1      12.374  -5.325   0.140  0.00  0.00    +0.000 C 
BRANCH  19  20
ATOM     20  O   UNL     1      13.016  -5.920  -0.973  0.00  0.00    +0.000 OA
ATOM     21  H   UNL     1      12.404  -6.590  -1.318  0.00  0.00    +0.000 HD
ENDBRANCH  19  20
ENDBRANCH   6  19
TORSDOF 5
