REMARK  Name = 
REMARK  7 active torsions:
REMARK  status: ('A' for Active; 'I' for Inactive)
REMARK    1  A    between atoms: C_2  and  C_4
REMARK    2  A    between atoms: C_8  and  C_9
REMARK    3  A    between atoms: N_11  and  C_12
REMARK    4  A    between atoms: C_12  and  C_13
REMARK    5  A    between atoms: C_16  and  C_17
REMARK    6  A    between atoms: C_17  and  N_18
REMARK    7  A    between atoms: C_19  and  C_21
REMARK                            x       y       z     vdW  Elec       q    Type
REMARK                         _______ _______ _______ _____ _____    ______ ____
ROOT
ATOM      1  C   UNL     1       9.158   4.763  -2.494  0.00  0.00    +0.000 A 
ATOM      2  C   UNL     1       8.419   5.901  -2.847  0.00  0.00    +0.000 A 
ATOM      3  C   UNL     1       8.986   7.177  -2.758  0.00  0.00    +0.000 A 
ATOM      4  C   UNL     1      10.310   7.342  -2.329  0.00  0.00    +0.000 A 
ATOM      5  C   UNL     1      11.046   6.205  -1.969  0.00  0.00    +0.000 A 
ATOM      6  C   UNL     1      10.480   4.929  -2.060  0.00  0.00    +0.000 A 
ENDROOT
BRANCH   1   7
ATOM      7  C   UNL     1       8.555   3.388  -2.621  0.00  0.00    +0.000 C 
BRANCH   7  10
ATOM      8  C   UNL     1       8.330   1.586  -4.277  0.00  0.00    +0.000 C 
ATOM      9  O   UNL     1       7.642   0.890  -3.539  0.00  0.00    +0.000 OA
ATOM     10  N   UNL     1       8.802   2.832  -3.931  0.00  0.00    +0.000 N 
ATOM     11  H   UNL     1       9.210   3.437  -4.631  0.00  0.00    +0.000 HD
BRANCH   8  16
ATOM     12  C   UNL     1      10.199   1.000  -7.536  0.00  0.00    +0.000 A 
ATOM     13  C   UNL     1       9.314   0.137  -8.197  0.00  0.00    +0.000 A 
ATOM     14  C   UNL     1       8.119  -0.241  -7.582  0.00  0.00    +0.000 A 
ATOM     15  C   UNL     1       7.804   0.240  -6.309  0.00  0.00    +0.000 A 
ATOM     16  C   UNL     1       8.680   1.109  -5.646  0.00  0.00    +0.000 A 
ATOM     17  C   UNL     1       9.884   1.477  -6.256  0.00  0.00    +0.000 A 
BRANCH  12  19
ATOM     18  N   UNL     1      11.598   1.406  -9.490  0.00  0.00    +0.000 N 
ATOM     19  C   UNL     1      11.499   1.402  -8.128  0.00  0.00    +0.000 C 
ATOM     20  O   UNL     1      12.438   1.757  -7.427  0.00  0.00    +0.000 OA
ATOM     21  H   UNL     1      12.458   1.776  -9.875  0.00  0.00    +0.000 HD
ATOM     22  H   UNL     1      10.793   1.364 -10.099  0.00  0.00    +0.000 HD
ENDBRANCH  12  19
ENDBRANCH   8  16
ENDBRANCH   7  10
ENDBRANCH   1   7
BRANCH   4  23
ATOM     23  C   UNL     1      10.925   8.714  -2.224  0.00  0.00    +0.000 C 
BRANCH  23  24
ATOM     24  N   UNL     1      10.706   9.294  -0.923  0.00  0.00    +0.000 N 
ATOM     25  C   UNL     1      11.112  10.574  -0.640  0.00  0.00    +0.000 C 
ATOM     26  O   UNL     1      11.631  11.293  -1.491  0.00  0.00    +0.000 OA
ATOM     27  H   UNL     1      10.495   8.656  -0.161  0.00  0.00    +0.000 HD
BRANCH  25  28
ATOM     28  C   UNL     1      10.840  11.071   0.715  0.00  0.00    +0.000 A 
ATOM     29  C   UNL     1      10.765  12.439   0.944  0.00  0.00    +0.000 A 
ATOM     30  S   UNL     1      10.391  12.845   2.557  0.00  0.00    +0.000 S 
ATOM     31  C   UNL     1      10.372  11.208   3.022  0.00  0.00    +0.000 A 
ATOM     32  N   UNL     1      10.135  10.853   4.313  0.00  0.00    +0.000 NA
ATOM     33  C   UNL     1      10.188   9.582   4.533  0.00  0.00    +0.000 A 
ATOM     34  N   UNL     1      10.448   8.635   3.577  0.00  0.00    +0.000 N 
ATOM     35  C   UNL     1      10.660   8.944   2.255  0.00  0.00    +0.000 A 
ATOM     36  O   UNL     1      10.843   8.067   1.418  0.00  0.00    +0.000 OA
ATOM     37  C   UNL     1      10.628  10.363   1.956  0.00  0.00    +0.000 A 
ATOM     38  H   UNL     1      10.466   7.654   3.814  0.00  0.00    +0.000 HD
ENDBRANCH  25  28
ENDBRANCH  23  24
ENDBRANCH   4  23
TORSDOF 7
