REMARK  Name = 
REMARK  10 active torsions:
REMARK  status: ('A' for Active; 'I' for Inactive)
REMARK    1  A    between atoms: C_1  and  C_2
REMARK    2  A    between atoms: N_4  and  C_5
REMARK    3  A    between atoms: C_7  and  C_8
REMARK    4  A    between atoms: C_8  and  C_9
REMARK    5  A    between atoms: C_9  and  C_10
REMARK    6  A    between atoms: C_9  and  C_11
REMARK    7  A    between atoms: C_9  and  C_12
REMARK    8  A    between atoms: C_12  and  N_13
REMARK    9  A    between atoms: C_17  and  C_18
REMARK   10  A    between atoms: C_28  and  C_29
REMARK                            x       y       z     vdW  Elec       q    Type
REMARK                         _______ _______ _______ _____ _____    ______ ____
ROOT
ATOM      1  C   UNL     1      -1.183   0.798  -6.747  0.00  0.00    +0.000 C 
ATOM      2  C   UNL     1      -0.397   1.617  -7.791  0.00  0.00    +0.000 C 
ATOM      3  C   UNL     1      -0.504  -0.566  -6.498  0.00  0.00    +0.000 C 
ENDROOT
BRANCH   1   4
ATOM      4  C   UNL     1      -1.293   1.595  -5.406  0.00  0.00    +0.000 C 
BRANCH   4   7
ATOM      5  C   UNL     1       1.887   1.477  -3.221  0.00  0.00    +0.000 A 
ATOM      6  C   UNL     1       0.669   1.144  -3.847  0.00  0.00    +0.000 A 
ATOM      7  C   UNL     1       0.014   2.006  -4.748  0.00  0.00    +0.000 A 
ATOM      8  C   UNL     1       0.596   3.249  -5.022  0.00  0.00    +0.000 A 
ATOM      9  C   UNL     1       1.798   3.613  -4.416  0.00  0.00    +0.000 A 
ATOM     10  C   UNL     1       2.424   2.736  -3.527  0.00  0.00    +0.000 A 
ATOM     11  F   UNL     1       3.591   3.129  -2.990  0.00  0.00    +0.000 F 
BRANCH   5  15
ATOM     12  C   UNL     1       1.390   0.646   0.535  0.00  0.00    +0.000 C 
ATOM     13  C   UNL     1       2.789   0.236   0.070  0.00  0.00    +0.000 C 
ATOM     14  C   UNL     1       3.240   1.053  -1.165  0.00  0.00    +0.000 C 
ATOM     15  N   UNL     1       2.464   0.602  -2.326  0.00  0.00    +0.000 N 
ATOM     16  C   UNL     1       2.588  -0.835  -2.593  0.00  0.00    +0.000 C 
ATOM     17  C   UNL     1       2.147  -1.614  -1.337  0.00  0.00    +0.000 C 
ATOM     18  C   UNL     1       2.388  -3.106  -1.518  0.00  0.00    +0.000 C 
ATOM     19  O   UNL     1       2.872  -1.188  -0.164  0.00  0.00    +0.000 OA
ENDBRANCH   5  15
ENDBRANCH   4   7
ENDBRANCH   1   4
BRANCH   1  20
ATOM     20  C   UNL     1      -2.625   0.549  -7.301  0.00  0.00    +0.000 C 
BRANCH  20  21
ATOM     21  N   UNL     1      -2.579  -0.146  -8.579  0.00  0.00    +0.000 N 
ATOM     22  C   UNL     1      -3.707  -0.452  -9.304  0.00  0.00    +0.000 A 
ATOM     23  C   UNL     1      -4.869   0.318  -9.345  0.00  0.00    +0.000 A 
ATOM     24  N   UNL     1      -5.949   0.027 -10.114  0.00  0.00    +0.000 NA
ATOM     25  C   UNL     1      -5.806  -1.087 -10.886  0.00  0.00    +0.000 A 
ATOM     26  C   UNL     1      -4.658  -1.858 -10.870  0.00  0.00    +0.000 A 
ATOM     27  N   UNL     1      -3.594  -1.557 -10.075  0.00  0.00    +0.000 NA
ATOM     28  H   UNL     1      -1.960  -0.950  -8.644  0.00  0.00    +0.000 HD
BRANCH  25  29
ATOM     29  C   UNL     1      -6.943  -1.456 -11.768  0.00  0.00    +0.000 C 
ATOM     30  N   UNL     1      -8.037  -0.637 -11.695  0.00  0.00    +0.000 N 
ATOM     31  O   UNL     1      -6.909  -2.430 -12.511  0.00  0.00    +0.000 OA
ATOM     32  H   UNL     1      -8.028   0.163 -11.071  0.00  0.00    +0.000 HD
ATOM     33  H   UNL     1      -8.845  -0.828 -12.268  0.00  0.00    +0.000 HD
ENDBRANCH  25  29
ENDBRANCH  20  21
ENDBRANCH   1  20
TORSDOF 6
