REMARK  Name = 
REMARK  5 active torsions:
REMARK  status: ('A' for Active; 'I' for Inactive)
REMARK    1  A    between atoms: C_2  and  C_4
REMARK    2  A    between atoms: C_7  and  C_8
REMARK    3  A    between atoms: C_8  and  C_9
REMARK    4  A    between atoms: C_9  and  C_10
REMARK    5  A    between atoms: C_14  and  C_15
REMARK                            x       y       z     vdW  Elec       q    Type
REMARK                         _______ _______ _______ _____ _____    ______ ____
ROOT
ATOM      1  C   UNL     1       4.854   4.117   4.369  0.00  0.00    +0.000 C 
ATOM      2  C   UNL     1       4.622   3.115   5.498  0.00  0.00    +0.000 C 
ATOM      3  C   UNL     1       3.451   3.830   4.903  0.00  0.00    +0.000 C 
ENDROOT
BRANCH   1   4
ATOM      4  C   UNL     1       5.519   5.435   4.751  0.00  0.00    +0.000 A 
ATOM      5  N   UNL     1       6.858   5.470   4.866  0.00  0.00    +0.000 NA
ATOM      6  C   UNL     1       7.406   6.621   5.283  0.00  0.00    +0.000 A 
ATOM      7  C   UNL     1       6.675   7.736   5.612  0.00  0.00    +0.000 A 
ATOM      8  C   UNL     1       5.306   7.634   5.473  0.00  0.00    +0.000 A 
ATOM      9  N   UNL     1       4.728   6.495   5.033  0.00  0.00    +0.000 NA
BRANCH   8  10
ATOM     10  C   UNL     1       4.377   8.728   5.831  0.00  0.00    +0.000 A 
ATOM     11  C   UNL     1       4.748  10.084   5.734  0.00  0.00    +0.000 A 
ATOM     12  C   UNL     1       3.875  11.111   6.112  0.00  0.00    +0.000 A 
ATOM     13  C   UNL     1       2.605  10.803   6.589  0.00  0.00    +0.000 A 
ATOM     14  C   UNL     1       2.216   9.473   6.675  0.00  0.00    +0.000 A 
ATOM     15  F   UNL     1       0.993   9.173   7.128  0.00  0.00    +0.000 F 
ATOM     16  C   UNL     1       3.081   8.447   6.301  0.00  0.00    +0.000 A 
ENDBRANCH   8  10
ENDBRANCH   1   4
BRANCH   1  17
ATOM     17  C   UNL     1       5.310   3.506   3.055  0.00  0.00    +0.000 C 
BRANCH  17  21
ATOM     18  C   UNL     1       4.827   5.734  -0.559  0.00  0.00    +0.000 A 
ATOM     19  C   UNL     1       3.886   5.911   0.457  0.00  0.00    +0.000 A 
ATOM     20  C   UNL     1       4.027   5.207   1.654  0.00  0.00    +0.000 A 
ATOM     21  C   UNL     1       5.118   4.357   1.821  0.00  0.00    +0.000 A 
ATOM     22  N   UNL     1       6.023   4.156   0.826  0.00  0.00    +0.000 NA
ATOM     23  C   UNL     1       5.859   4.837  -0.335  0.00  0.00    +0.000 A 
BRANCH  18  25
ATOM     24  N   UNL     1       4.106   7.642  -1.876  0.00  0.00    +0.000 N 
ATOM     25  C   UNL     1       4.746   6.434  -1.859  0.00  0.00    +0.000 C 
ATOM     26  O   UNL     1       5.255   5.972  -2.871  0.00  0.00    +0.000 OA
ATOM     27  H   UNL     1       4.128   8.155  -2.749  0.00  0.00    +0.000 HD
ATOM     28  H   UNL     1       3.896   8.159  -1.034  0.00  0.00    +0.000 HD
ENDBRANCH  18  25
ENDBRANCH  17  21
ENDBRANCH   1  17
TORSDOF 5
