REMARK  Name = 
REMARK  7 active torsions:
REMARK  status: ('A' for Active; 'I' for Inactive)
REMARK    1  A    between atoms: C_1  and  O_2
REMARK    2  A    between atoms: O_2  and  C_3
REMARK    3  A    between atoms: C_8  and  C_9
REMARK    4  A    between atoms: C_9  and  C_10
REMARK    5  A    between atoms: C_13  and  C_14
REMARK    6  A    between atoms: C_14  and  N_15
REMARK    7  A    between atoms: C_16  and  C_18
REMARK                            x       y       z     vdW  Elec       q    Type
REMARK                         _______ _______ _______ _____ _____    ______ ____
ROOT
ATOM      1  C   UNL     1       0.538   0.919   4.317  0.00  0.00    +0.000 C 
ENDROOT
BRANCH   1   5
ATOM      2  C   UNL     1       3.307  -1.232   1.883  0.00  0.00    +0.000 A 
ATOM      3  C   UNL     1       1.966  -1.609   1.856  0.00  0.00    +0.000 A 
ATOM      4  C   UNL     1       1.053  -0.940   2.674  0.00  0.00    +0.000 A 
ATOM      5  C   UNL     1       1.492   0.091   3.507  0.00  0.00    +0.000 A 
ATOM      6  C   UNL     1       2.859   0.341   3.531  0.00  0.00    +0.000 A 
ATOM      7  N   UNL     1       3.766  -0.283   2.740  0.00  0.00    +0.000 NA
BRANCH   2   8
ATOM      8  C   UNL     1       4.280  -1.782   0.860  0.00  0.00    +0.000 C 
BRANCH   8  14
ATOM      9  C   UNL     1       4.614  -4.314   1.010  0.00  0.00    +0.000 A 
ATOM     10  C   UNL     1       5.398  -5.407   1.405  0.00  0.00    +0.000 A 
ATOM     11  C   UNL     1       6.613  -5.211   2.065  0.00  0.00    +0.000 A 
ATOM     12  C   UNL     1       7.060  -3.923   2.333  0.00  0.00    +0.000 A 
ATOM     13  C   UNL     1       6.288  -2.829   1.946  0.00  0.00    +0.000 A 
ATOM     14  C   UNL     1       5.062  -3.007   1.279  0.00  0.00    +0.000 A 
BRANCH   9  16
ATOM     15  C   UNL     1       2.809  -5.706   0.332  0.00  0.00    +0.000 C 
ATOM     16  O   UNL     1       3.431  -4.426   0.324  0.00  0.00    +0.000 OA
ENDBRANCH   9  16
ENDBRANCH   8  14
ENDBRANCH   2   8
ENDBRANCH   1   5
BRANCH   1  17
ATOM     17  N   UNL     1       0.297   0.367   5.625  0.00  0.00    +0.000 N 
ATOM     18  C   UNL     1      -0.620   0.943   6.472  0.00  0.00    +0.000 C 
ATOM     19  O   UNL     1      -1.310   1.900   6.124  0.00  0.00    +0.000 OA
ATOM     20  H   UNL     1       1.004  -0.256   6.006  0.00  0.00    +0.000 HD
BRANCH  18  21
ATOM     21  C   UNL     1      -0.765   0.336   7.797  0.00  0.00    +0.000 A 
ATOM     22  C   UNL     1      -1.941   0.522   8.513  0.00  0.00    +0.000 A 
ATOM     23  S   UNL     1      -1.969  -0.292  10.013  0.00  0.00    +0.000 S 
ATOM     24  C   UNL     1      -0.387  -0.876   9.785  0.00  0.00    +0.000 A 
ATOM     25  N   UNL     1       0.220  -1.640  10.732  0.00  0.00    +0.000 NA
ATOM     26  C   UNL     1       1.431  -1.983  10.445  0.00  0.00    +0.000 A 
ATOM     27  N   UNL     1       2.089  -1.636   9.293  0.00  0.00    +0.000 N 
ATOM     28  C   UNL     1       1.505  -0.891   8.296  0.00  0.00    +0.000 A 
ATOM     29  O   UNL     1       2.103  -0.634   7.256  0.00  0.00    +0.000 OA
ATOM     30  C   UNL     1       0.146  -0.470   8.574  0.00  0.00    +0.000 A 
ATOM     31  H   UNL     1       3.036  -1.944   9.125  0.00  0.00    +0.000 HD
ENDBRANCH  18  21
ENDBRANCH   1  17
TORSDOF 6
