REMARK  Name = 
REMARK  9 active torsions:
REMARK  status: ('A' for Active; 'I' for Inactive)
REMARK    1  A    between atoms: C_1  and  O_2
REMARK    2  A    between atoms: O_2  and  C_3
REMARK    3  A    between atoms: C_10  and  C_11
REMARK    4  A    between atoms: N_13  and  C_14
REMARK    5  A    between atoms: C_14  and  C_15
REMARK    6  A    between atoms: C_18  and  N_19
REMARK    7  A    between atoms: N_19  and  C_20
REMARK    8  A    between atoms: C_20  and  C_21
REMARK    9  A    between atoms: N_25  and  C_26
REMARK                            x       y       z     vdW  Elec       q    Type
REMARK                         _______ _______ _______ _____ _____    ______ ____
ROOT
ATOM      1  C   UNL     1       2.802   0.027  -3.425  0.00  0.00    +0.000 C 
ENDROOT
BRANCH   1   2
ATOM      2  C   UNL     1       1.599  -0.856  -3.217  0.00  0.00    +0.000 A 
ATOM      3  C   UNL     1       1.733  -2.246  -3.222  0.00  0.00    +0.000 A 
ATOM      4  C   UNL     1       0.643  -3.069  -2.919  0.00  0.00    +0.000 A 
ATOM      5  C   UNL     1      -0.623  -2.541  -2.641  0.00  0.00    +0.000 A 
ATOM      6  C   UNL     1      -0.760  -1.145  -2.689  0.00  0.00    +0.000 A 
ATOM      7  C   UNL     1       0.330  -0.312  -2.984  0.00  0.00    +0.000 A 
BRANCH   5   8
ATOM      8  N   UNL     1      -1.698  -3.323  -2.204  0.00  0.00    +0.000 N 
ATOM      9  H   UNL     1      -2.582  -3.048  -2.626  0.00  0.00    +0.000 HD
BRANCH   8  10
ATOM     10  C   UNL     1      -1.517  -4.762  -1.998  0.00  0.00    +0.000 C 
BRANCH  10  11
ATOM     11  C   UNL     1      -2.793  -5.439  -1.469  0.00  0.00    +0.000 C 
ATOM     12  C   UNL     1      -3.210  -4.850  -0.116  0.00  0.00    +0.000 C 
ATOM     13  C   UNL     1      -4.395  -5.609   0.468  0.00  0.00    +0.000 C 
ATOM     14  C   UNL     1      -4.113  -7.108   0.546  0.00  0.00    +0.000 C 
ATOM     15  N   UNL     1      -3.753  -7.644  -0.774  0.00  0.00    +0.000 NA
ATOM     16  C   UNL     1      -3.517  -9.087  -0.692  0.00  0.00    +0.000 C 
ATOM     17  C   UNL     1      -2.570  -6.962  -1.327  0.00  0.00    +0.000 C 
ENDBRANCH  10  11
ENDBRANCH   8  10
ENDBRANCH   5   8
ENDBRANCH   1   2
BRANCH   1  20
ATOM     18  C   UNL     1       4.104   1.035  -5.255  0.00  0.00    +0.000 C 
ATOM     19  O   UNL     1       4.900   1.536  -4.468  0.00  0.00    +0.000 OA
ATOM     20  N   UNL     1       3.046   0.283  -4.823  0.00  0.00    +0.000 N 
ATOM     21  H   UNL     1       2.339  -0.022  -5.475  0.00  0.00    +0.000 HD
BRANCH  18  29
ATOM     22  C   UNL     1       2.300  -0.098  -7.968  0.00  0.00    +0.000 A 
ATOM     23  N   UNL     1       1.844  -0.469  -9.182  0.00  0.00    +0.000 NA
ATOM     24  C   UNL     1       2.509  -0.055 -10.260  0.00  0.00    +0.000 A 
ATOM     25  N   UNL     1       3.596   0.703 -10.282  0.00  0.00    +0.000 NA
ATOM     26  C   UNL     1       4.032   1.039  -9.052  0.00  0.00    +0.000 A 
ATOM     27  S   UNL     1       5.401   2.026  -8.891  0.00  0.00    +0.000 S 
ATOM     28  C   UNL     1       5.306   1.967  -7.196  0.00  0.00    +0.000 A 
ATOM     29  C   UNL     1       4.249   1.201  -6.715  0.00  0.00    +0.000 A 
ATOM     30  C   UNL     1       3.462   0.675  -7.833  0.00  0.00    +0.000 A 
BRANCH  22  32
ATOM     31  C   UNL     1       0.365  -1.172  -7.210  0.00  0.00    +0.000 C 
ATOM     32  O   UNL     1       1.559  -0.469  -6.862  0.00  0.00    +0.000 OA
ENDBRANCH  22  32
ENDBRANCH  18  29
ENDBRANCH   1  20
TORSDOF 7
