REMARK  Name = 
REMARK  9 active torsions:
REMARK  status: ('A' for Active; 'I' for Inactive)
REMARK    1  A    between atoms: C_1  and  C_2
REMARK    2  A    between atoms: C_2  and  N_3
REMARK    3  A    between atoms: C_2  and  C_4
REMARK    4  A    between atoms: C_7  and  C_8
REMARK    5  A    between atoms: C_8  and  N_9
REMARK    6  A    between atoms: C_11  and  C_12
REMARK    7  A    between atoms: C_12  and  C_13
REMARK    8  A    between atoms: C_12  and  C_14
REMARK    9  A    between atoms: C_12  and  C_15
REMARK                            x       y       z     vdW  Elec       q    Type
REMARK                         _______ _______ _______ _____ _____    ______ ____
ROOT
ATOM      1  N   UNL     1       3.526   4.254   4.818  0.00  0.00    +0.000 N 
ATOM      2  C   UNL     1       4.450   5.266   4.884  0.00  0.00    +0.000 A 
ATOM      3  C   UNL     1       3.817   6.482   4.687  0.00  0.00    +0.000 A 
ATOM      4  C   UNL     1       2.423   6.167   4.489  0.00  0.00    +0.000 A 
ATOM      5  C   UNL     1       1.270   6.938   4.218  0.00  0.00    +0.000 A 
ATOM      6  C   UNL     1       0.026   6.320   4.037  0.00  0.00    +0.000 A 
ATOM      7  C   UNL     1      -0.089   4.941   4.143  0.00  0.00    +0.000 A 
ATOM      8  C   UNL     1       1.025   4.149   4.419  0.00  0.00    +0.000 A 
ATOM      9  C   UNL     1       2.274   4.776   4.583  0.00  0.00    +0.000 A 
ENDROOT
BRANCH   3  10
ATOM     10  C   UNL     1       4.478   7.863   4.654  0.00  0.00    +0.000 C 
ATOM     11  C   UNL     1       6.010   7.767   4.858  0.00  0.00    +0.000 C 
ATOM     12  C   UNL     1       4.243   8.550   3.292  0.00  0.00    +0.000 C 
ATOM     13  C   UNL     1       3.926   8.760   5.779  0.00  0.00    +0.000 C 
ENDBRANCH   3  10
BRANCH   1  14
ATOM     14  C   UNL     1       3.878   2.837   4.796  0.00  0.00    +0.000 C 
BRANCH  14  18
ATOM     15  C   UNL     1       3.995   0.842   8.566  0.00  0.00    +0.000 A 
ATOM     16  C   UNL     1       5.155   1.461   8.108  0.00  0.00    +0.000 A 
ATOM     17  C   UNL     1       5.121   2.154   6.898  0.00  0.00    +0.000 A 
ATOM     18  C   UNL     1       3.936   2.208   6.158  0.00  0.00    +0.000 A 
ATOM     19  C   UNL     1       2.821   1.589   6.712  0.00  0.00    +0.000 A 
ATOM     20  N   UNL     1       2.823   0.908   7.881  0.00  0.00    +0.000 NA
BRANCH  15  22
ATOM     21  C   UNL     1       4.390  -1.431   9.556  0.00  0.00    +0.000 C 
ATOM     22  C   UNL     1       4.019   0.022   9.853  0.00  0.00    +0.000 C 
BRANCH  22  23
ATOM     23  N   UNL     1       2.719   0.049  10.548  0.00  0.00    +0.000 NA
ATOM     24  H   UNL     1       2.025  -0.250   9.857  0.00  0.00    +0.000 HD
ATOM     25  H   UNL     1       2.480   1.029  10.705  0.00  0.00    +0.000 HD
ENDBRANCH  22  23
ENDBRANCH  15  22
ENDBRANCH  14  18
ENDBRANCH   1  14
TORSDOF 5
