REMARK  Name = 
REMARK  5 active torsions:
REMARK  status: ('A' for Active; 'I' for Inactive)
REMARK    1  A    between atoms: C_2  and  C_3
REMARK    2  A    between atoms: C_6  and  C_7
REMARK    3  A    between atoms: C_11  and  C_12
REMARK    4  A    between atoms: C_12  and  N_13
REMARK    5  A    between atoms: C_17  and  C_18
REMARK                            x       y       z     vdW  Elec       q    Type
REMARK                         _______ _______ _______ _____ _____    ______ ____
ROOT
ATOM      1  C   UNL     1      -6.516  -2.061   1.564  0.00  0.00    +0.000 C 
ATOM      2  C   UNL     1      -7.014  -3.394   1.019  0.00  0.00    +0.000 C 
ATOM      3  C   UNL     1      -8.002  -2.358   1.434  0.00  0.00    +0.000 C 
ENDROOT
BRANCH   1   4
ATOM      4  N   UNL     1      -5.863  -2.062   2.886  0.00  0.00    +0.000 N 
ATOM      5  C   UNL     1      -6.100  -1.092   3.871  0.00  0.00    +0.000 A 
ATOM      6  C   UNL     1      -7.356  -0.545   4.116  0.00  0.00    +0.000 A 
ATOM      7  C   UNL     1      -7.538   0.345   5.177  0.00  0.00    +0.000 A 
ATOM      8  C   UNL     1      -6.450   0.683   5.973  0.00  0.00    +0.000 A 
ATOM      9  C   UNL     1      -5.232   0.092   5.674  0.00  0.00    +0.000 A 
ATOM     10  N   UNL     1      -5.039  -0.777   4.645  0.00  0.00    +0.000 NA
ATOM     11  H   UNL     1      -4.855  -2.208   2.887  0.00  0.00    +0.000 HD
BRANCH   8  12
ATOM     12  C   UNL     1      -6.546   1.603   7.126  0.00  0.00    +0.000 C 
ATOM     13  N   UNL     1      -7.567   2.514   7.121  0.00  0.00    +0.000 N 
ATOM     14  O   UNL     1      -5.732   1.572   8.038  0.00  0.00    +0.000 OA
ATOM     15  H   UNL     1      -8.120   2.723   6.303  0.00  0.00    +0.000 HD
ATOM     16  H   UNL     1      -7.569   3.193   7.872  0.00  0.00    +0.000 HD
ENDBRANCH   8  12
ENDBRANCH   1   4
BRANCH   1  21
ATOM     17  C   UNL     1      -5.780   1.089  -0.546  0.00  0.00    +0.000 A 
ATOM     18  C   UNL     1      -4.696   0.643  -1.317  0.00  0.00    +0.000 A 
ATOM     19  C   UNL     1      -4.187  -0.647  -1.157  0.00  0.00    +0.000 A 
ATOM     20  C   UNL     1      -4.762  -1.520  -0.232  0.00  0.00    +0.000 A 
ATOM     21  C   UNL     1      -5.856  -1.127   0.554  0.00  0.00    +0.000 A 
ATOM     22  C   UNL     1      -6.327   0.186   0.386  0.00  0.00    +0.000 A 
BRANCH  17  26
ATOM     23  C   UNL     1      -7.459   4.981  -0.758  0.00  0.00    +0.000 A 
ATOM     24  C   UNL     1      -6.098   4.848  -0.992  0.00  0.00    +0.000 A 
ATOM     25  C   UNL     1      -5.537   3.569  -0.947  0.00  0.00    +0.000 A 
ATOM     26  C   UNL     1      -6.336   2.451  -0.672  0.00  0.00    +0.000 A 
ATOM     27  C   UNL     1      -7.697   2.710  -0.483  0.00  0.00    +0.000 A 
ATOM     28  N   UNL     1      -8.275   3.936  -0.508  0.00  0.00    +0.000 NA
BRANCH  23  30
ATOM     29  N   UNL     1      -8.542   7.345  -0.745  0.00  0.00    +0.000 NA
ATOM     30  C   UNL     1      -8.079   6.281  -0.749  0.00  0.00    +0.000 C 
ENDBRANCH  23  30
ENDBRANCH  17  26
ENDBRANCH   1  21
TORSDOF 5
