REMARK  Name = 
REMARK  7 active torsions:
REMARK  status: ('A' for Active; 'I' for Inactive)
REMARK    1  A    between atoms: C_1  and  O_2
REMARK    2  A    between atoms: O_2  and  C_3
REMARK    3  A    between atoms: C_5  and  C_6
REMARK    4  A    between atoms: C_6  and  N_7
REMARK    5  A    between atoms: N_7  and  C_8
REMARK    6  A    between atoms: C_11  and  C_12
REMARK    7  A    between atoms: C_21  and  C_22
REMARK                            x       y       z     vdW  Elec       q    Type
REMARK                         _______ _______ _______ _____ _____    ______ ____
ROOT
ATOM      1  C   UNL     1       5.729   3.304  -0.040  0.00  0.00    +0.000 C 
ATOM      2  C   UNL     1       7.207   3.373   0.276  0.00  0.00    +0.000 C 
ATOM      3  C   UNL     1       6.349   4.559   0.567  0.00  0.00    +0.000 C 
ENDROOT
BRANCH   1   6
ATOM      4  C   UNL     1       4.059   0.200   1.536  0.00  0.00    +0.000 A 
ATOM      5  C   UNL     1       4.995   1.040   0.910  0.00  0.00    +0.000 A 
ATOM      6  C   UNL     1       4.821   2.435   0.825  0.00  0.00    +0.000 A 
ATOM      7  C   UNL     1       3.706   2.976   1.479  0.00  0.00    +0.000 A 
ATOM      8  C   UNL     1       2.789   2.161   2.145  0.00  0.00    +0.000 A 
ATOM      9  C   UNL     1       2.950   0.766   2.171  0.00  0.00    +0.000 A 
BRANCH   4  11
ATOM     10  C   UNL     1       3.338  -2.040   1.183  0.00  0.00    +0.000 C 
ATOM     11  O   UNL     1       4.393  -1.131   1.487  0.00  0.00    +0.000 OA
ENDBRANCH   4  11
BRANCH   9  12
ATOM     12  C   UNL     1       1.959   0.008   2.868  0.00  0.00    +0.000 C 
ATOM     13  N   UNL     1       1.119  -0.587   3.416  0.00  0.00    +0.000 NA
ENDBRANCH   9  12
ENDBRANCH   1   6
BRANCH   1  14
ATOM     14  N   UNL     1       5.182   3.541  -1.383  0.00  0.00    +0.000 N 
ATOM     15  H   UNL     1       4.346   4.119  -1.400  0.00  0.00    +0.000 HD
BRANCH  14  16
ATOM     16  C   UNL     1       5.226   2.661  -2.480  0.00  0.00    +0.000 A 
ATOM     17  C   UNL     1       6.029   1.519  -2.549  0.00  0.00    +0.000 A 
ATOM     18  C   UNL     1       6.123   0.775  -3.738  0.00  0.00    +0.000 A 
ATOM     19  C   UNL     1       5.434   1.188  -4.884  0.00  0.00    +0.000 A 
ATOM     20  C   UNL     1       4.629   2.327  -4.824  0.00  0.00    +0.000 A 
ATOM     21  C   UNL     1       4.529   3.048  -3.635  0.00  0.00    +0.000 A 
BRANCH  19  22
ATOM     22  C   UNL     1       5.579   0.515  -6.201  0.00  0.00    +0.000 C 
ATOM     23  N   UNL     1       5.936  -0.802  -6.205  0.00  0.00    +0.000 N 
ATOM     24  O   UNL     1       5.365   1.108  -7.251  0.00  0.00    +0.000 OA
ATOM     25  H   UNL     1       5.892  -1.384  -5.382  0.00  0.00    +0.000 HD
ATOM     26  H   UNL     1       5.939  -1.258  -7.110  0.00  0.00    +0.000 HD
ENDBRANCH  19  22
ENDBRANCH  14  16
ENDBRANCH   1  14
TORSDOF 6
