REMARK  Name = 
REMARK  4 active torsions:
REMARK  status: ('A' for Active; 'I' for Inactive)
REMARK    1  A    between atoms: C_2  and  C_4
REMARK    2  A    between atoms: N_8  and  C_9
REMARK    3  A    between atoms: C_9  and  C_10
REMARK    4  A    between atoms: C_15  and  C_16
REMARK                            x       y       z     vdW  Elec       q    Type
REMARK                         _______ _______ _______ _____ _____    ______ ____
ROOT
ATOM      1  C   UNL     1       4.973  -2.710  -5.454  0.00  0.00    +0.000 C 
ENDROOT
BRANCH   1   6
ATOM      2  C   UNL     1       7.779  -1.060  -1.477  0.00  0.00    +0.000 A 
ATOM      3  C   UNL     1       7.401  -0.373  -2.626  0.00  0.00    +0.000 A 
ATOM      4  C   UNL     1       6.515  -0.976  -3.518  0.00  0.00    +0.000 A 
ATOM      5  C   UNL     1       6.033  -2.254  -3.257  0.00  0.00    +0.000 A 
ATOM      6  N   UNL     1       5.079  -2.882  -4.022  0.00  0.00    +0.000 N 
ATOM      7  N   UNL     1       6.414  -2.938  -2.159  0.00  0.00    +0.000 NA
ATOM      8  C   UNL     1       7.280  -2.339  -1.299  0.00  0.00    +0.000 A 
ATOM      9  H   UNL     1       4.970  -3.829  -3.675  0.00  0.00    +0.000 HD
BRANCH   2  11
ATOM     10  N   UNL     1       8.674   0.887  -0.340  0.00  0.00    +0.000 N 
ATOM     11  C   UNL     1       8.667  -0.476  -0.452  0.00  0.00    +0.000 C 
ATOM     12  O   UNL     1       9.335  -1.179   0.292  0.00  0.00    +0.000 OA
ATOM     13  H   UNL     1       9.196   1.270   0.438  0.00  0.00    +0.000 HD
ATOM     14  H   UNL     1       7.953   1.469  -0.743  0.00  0.00    +0.000 HD
ENDBRANCH   2  11
ENDBRANCH   1   6
BRANCH   1  15
ATOM     15  C   UNL     1       5.880  -3.644  -6.221  0.00  0.00    +0.000 A 
ATOM     16  C   UNL     1       6.900  -3.139  -7.033  0.00  0.00    +0.000 A 
ATOM     17  C   UNL     1       7.662  -4.005  -7.814  0.00  0.00    +0.000 A 
ATOM     18  C   UNL     1       7.408  -5.377  -7.785  0.00  0.00    +0.000 A 
ATOM     19  F   UNL     1       8.139  -6.153  -8.600  0.00  0.00    +0.000 F 
ATOM     20  C   UNL     1       6.413  -5.939  -6.967  0.00  0.00    +0.000 A 
ATOM     21  C   UNL     1       5.665  -5.037  -6.181  0.00  0.00    +0.000 A 
BRANCH  20  22
ATOM     22  C   UNL     1       6.138  -7.394  -6.937  0.00  0.00    +0.000 A 
ATOM     23  C   UNL     1       7.139  -8.357  -7.132  0.00  0.00    +0.000 A 
ATOM     24  N   UNL     1       6.950  -9.704  -7.119  0.00  0.00    +0.000 NA
ATOM     25  C   UNL     1       5.691 -10.133  -6.893  0.00  0.00    +0.000 A 
ATOM     26  C   UNL     1       4.629  -9.277  -6.682  0.00  0.00    +0.000 A 
ATOM     27  F   UNL     1       3.399  -9.756  -6.457  0.00  0.00    +0.000 F 
ATOM     28  C   UNL     1       4.849  -7.905  -6.709  0.00  0.00    +0.000 A 
ENDBRANCH  20  22
ENDBRANCH   1  15
TORSDOF 4
