REMARK  Name = 
REMARK  5 active torsions:
REMARK  status: ('A' for Active; 'I' for Inactive)
REMARK    1  A    between atoms: C_2  and  C_4
REMARK    2  A    between atoms: C_7  and  O_8
REMARK    3  A    between atoms: O_8  and  C_9
REMARK    4  A    between atoms: C_9  and  C_10
REMARK    5  A    between atoms: C_14  and  C_15
REMARK                            x       y       z     vdW  Elec       q    Type
REMARK                         _______ _______ _______ _____ _____    ______ ____
ROOT
ATOM      1  C   UNL     1       5.008   5.786   1.145  0.00  0.00    +0.000 C 
ENDROOT
BRANCH   1   2
ATOM      2  C   UNL     1       5.916   6.989   1.041  0.00  0.00    +0.000 A 
ATOM      3  C   UNL     1       5.353   8.268   0.937  0.00  0.00    +0.000 A 
ATOM      4  C   UNL     1       6.165   9.397   0.930  0.00  0.00    +0.000 A 
ATOM      5  C   UNL     1       7.549   9.260   1.045  0.00  0.00    +0.000 A 
ATOM      6  C   UNL     1       8.146   7.997   1.171  0.00  0.00    +0.000 A 
ATOM      7  C   UNL     1       7.310   6.868   1.163  0.00  0.00    +0.000 A 
BRANCH   6   8
ATOM      8  C   UNL     1       9.606   7.875   1.386  0.00  0.00    +0.000 C 
ATOM      9  C   UNL     1      10.334   6.844   0.914  0.00  0.00    +0.000 C 
ATOM     10  C   UNL     1      11.815   6.719   1.132  0.00  0.00    +0.000 C 
ATOM     11  O   UNL     1      12.411   7.934   1.596  0.00  0.00    +0.000 OA
ATOM     12  C   UNL     1      11.669   8.504   2.674  0.00  0.00    +0.000 C 
ATOM     13  C   UNL     1      10.298   8.960   2.179  0.00  0.00    +0.000 C 
ENDBRANCH   6   8
ENDBRANCH   1   2
BRANCH   1  14
ATOM     14  O   UNL     1       5.594   4.634   0.535  0.00  0.00    +0.000 OA
BRANCH  14  18
ATOM     15  C   UNL     1       3.544   0.999   0.578  0.00  0.00    +0.000 A 
ATOM     16  C   UNL     1       2.946   2.108   1.183  0.00  0.00    +0.000 A 
ATOM     17  C   UNL     1       3.602   3.343   1.191  0.00  0.00    +0.000 A 
ATOM     18  C   UNL     1       4.860   3.480   0.597  0.00  0.00    +0.000 A 
ATOM     19  C   UNL     1       5.461   2.364   0.007  0.00  0.00    +0.000 A 
ATOM     20  C   UNL     1       4.812   1.126   0.002  0.00  0.00    +0.000 A 
BRANCH  15  22
ATOM     21  N   UNL     1       1.507  -0.332   0.575  0.00  0.00    +0.000 N 
ATOM     22  C   UNL     1       2.874  -0.326   0.550  0.00  0.00    +0.000 C 
ATOM     23  O   UNL     1       3.510  -1.369   0.473  0.00  0.00    +0.000 OA
ATOM     24  H   UNL     1       1.064  -1.233   0.443  0.00  0.00    +0.000 HD
ATOM     25  H   UNL     1       0.959   0.491   0.371  0.00  0.00    +0.000 HD
ENDBRANCH  15  22
ENDBRANCH  14  18
ENDBRANCH   1  14
TORSDOF 5
