REMARK  Name = 
REMARK  4 active torsions:
REMARK  status: ('A' for Active; 'I' for Inactive)
REMARK    1  A    between atoms: C_2  and  C_4
REMARK    2  A    between atoms: N_8  and  C_9
REMARK    3  A    between atoms: C_9  and  C_10
REMARK    4  A    between atoms: C_14  and  C_15
REMARK                            x       y       z     vdW  Elec       q    Type
REMARK                         _______ _______ _______ _____ _____    ______ ____
ROOT
ATOM      1  C   UNL     1       4.442   1.015  -3.242  0.00  0.00    +0.000 A 
ATOM      2  C   UNL     1       5.689   0.496  -3.490  0.00  0.00    +0.000 A 
ATOM      3  N   UNL     1       5.954  -0.829  -3.505  0.00  0.00    +0.000 NA
ATOM      4  C   UNL     1       4.916  -1.663  -3.312  0.00  0.00    +0.000 A 
ATOM      5  N   UNL     1       5.097  -3.039  -3.351  0.00  0.00    +0.000 N 
ATOM      6  N   UNL     1       3.662  -1.248  -3.085  0.00  0.00    +0.000 NA
ATOM      7  C   UNL     1       3.458   0.086  -3.010  0.00  0.00    +0.000 A 
ATOM      8  H   UNL     1       4.223  -3.519  -3.508  0.00  0.00    +0.000 HD
ENDROOT
BRANCH   1  10
ATOM      9  N   UNL     1       4.888   3.284  -3.971  0.00  0.00    +0.000 N 
ATOM     10  C   UNL     1       4.147   2.450  -3.180  0.00  0.00    +0.000 C 
ATOM     11  O   UNL     1       3.246   2.878  -2.474  0.00  0.00    +0.000 OA
ATOM     12  H   UNL     1       4.595   4.254  -3.990  0.00  0.00    +0.000 HD
ATOM     13  H   UNL     1       5.440   2.959  -4.753  0.00  0.00    +0.000 HD
ENDBRANCH   1  10
BRANCH   5  14
ATOM     14  C   UNL     1       6.392  -3.704  -3.348  0.00  0.00    +0.000 C 
ATOM     15  C   UNL     1       6.495  -4.931  -2.450  0.00  0.00    +0.000 C 
ATOM     16  C   UNL     1       7.251  -3.691  -2.097  0.00  0.00    +0.000 C 
BRANCH  14  17
ATOM     17  C   UNL     1       7.079  -3.735  -4.699  0.00  0.00    +0.000 A 
ATOM     18  C   UNL     1       8.008  -2.762  -5.081  0.00  0.00    +0.000 A 
ATOM     19  N   UNL     1       8.615  -2.682  -6.290  0.00  0.00    +0.000 NA
ATOM     20  C   UNL     1       8.268  -3.618  -7.199  0.00  0.00    +0.000 A 
ATOM     21  C   UNL     1       7.362  -4.636  -6.948  0.00  0.00    +0.000 A 
ATOM     22  C   UNL     1       6.778  -4.693  -5.675  0.00  0.00    +0.000 A 
BRANCH  21  23
ATOM     23  C   UNL     1       7.010  -5.628  -8.010  0.00  0.00    +0.000 C 
ATOM     24  F   UNL     1       7.579  -5.364  -9.218  0.00  0.00    +0.000 F 
ATOM     25  F   UNL     1       7.388  -6.895  -7.688  0.00  0.00    +0.000 F 
ATOM     26  F   UNL     1       5.668  -5.688  -8.238  0.00  0.00    +0.000 F 
ENDBRANCH  21  23
ENDBRANCH  14  17
ENDBRANCH   5  14
TORSDOF 4
