REMARK  Name = 
REMARK  7 active torsions:
REMARK  status: ('A' for Active; 'I' for Inactive)
REMARK    1  A    between atoms: C_2  and  C_19
REMARK    2  A    between atoms: N_3  and  C_4
REMARK    3  A    between atoms: C_4  and  C_5
REMARK    4  A    between atoms: C_9  and  C_10
REMARK    5  A    between atoms: C_10  and  N_11
REMARK    6  A    between atoms: N_11  and  C_12
REMARK    7  A    between atoms: C_12  and  C_13
REMARK                            x       y       z     vdW  Elec       q    Type
REMARK                         _______ _______ _______ _____ _____    ______ ____
ROOT
ATOM      1  C   UNL     1       2.326   2.389  -0.118  0.00  0.00    +0.000 C 
ENDROOT
BRANCH   1   2
ATOM      2  C   UNL     1       3.284   3.539  -0.246  0.00  0.00    +0.000 A 
ATOM      3  C   UNL     1       4.657   3.335  -0.403  0.00  0.00    +0.000 A 
ATOM      4  C   UNL     1       5.489   4.440  -0.469  0.00  0.00    +0.000 A 
ATOM      5  N   UNL     1       5.050   5.713  -0.406  0.00  0.00    +0.000 NA
ATOM      6  C   UNL     1       3.704   5.904  -0.322  0.00  0.00    +0.000 A 
ATOM      7  C   UNL     1       2.803   4.850  -0.230  0.00  0.00    +0.000 A 
BRANCH   6   8
ATOM      8  C   UNL     1       3.185   7.331  -0.310  0.00  0.00    +0.000 C 
BRANCH   8   9
ATOM      9  N   UNL     1       4.070   8.294  -0.983  0.00  0.00    +0.000 NA
ATOM     10  H   UNL     1       5.004   8.126  -0.599  0.00  0.00    +0.000 HD
BRANCH   9  11
ATOM     11  C   UNL     1       4.135   8.044  -2.432  0.00  0.00    +0.000 C 
BRANCH  11  12
ATOM     12  C   UNL     1       5.053   9.077  -3.106  0.00  0.00    +0.000 C 
ATOM     13  C   UNL     1       4.529  10.500  -2.990  0.00  0.00    +0.000 C 
ATOM     14  C   UNL     1       5.323  11.230  -4.055  0.00  0.00    +0.000 C 
ATOM     15  C   UNL     1       5.618  10.171  -5.110  0.00  0.00    +0.000 C 
ATOM     16  N   UNL     1       5.157   8.893  -4.561  0.00  0.00    +0.000 NA
ATOM     17  H   UNL     1       5.815   8.147  -4.778  0.00  0.00    +0.000 HD
ENDBRANCH  11  12
ENDBRANCH   9  11
ENDBRANCH   8   9
ENDBRANCH   6   8
ENDBRANCH   1   2
BRANCH   1  20
ATOM     18  O   UNL     1      -0.089   3.202  -1.352  0.00  0.00    +0.000 OA
ATOM     19  C   UNL     1       0.659   2.431  -1.945  0.00  0.00    +0.000 C 
ATOM     20  N   UNL     1       1.829   1.968  -1.400  0.00  0.00    +0.000 N 
ATOM     21  H   UNL     1       2.494   1.484  -1.992  0.00  0.00    +0.000 HD
BRANCH  19  22
ATOM     22  C   UNL     1       0.327   1.903  -3.276  0.00  0.00    +0.000 A 
ATOM     23  C   UNL     1      -0.993   1.889  -3.709  0.00  0.00    +0.000 A 
ATOM     24  S   UNL     1      -1.197   1.208  -5.259  0.00  0.00    +0.000 S 
ATOM     25  C   UNL     1       0.475   0.950  -5.428  0.00  0.00    +0.000 A 
ATOM     26  N   UNL     1       0.988   0.404  -6.564  0.00  0.00    +0.000 NA
ATOM     27  C   UNL     1       2.276   0.302  -6.575  0.00  0.00    +0.000 A 
ATOM     28  N   UNL     1       3.097   0.686  -5.547  0.00  0.00    +0.000 N 
ATOM     29  C   UNL     1       2.619   1.170  -4.352  0.00  0.00    +0.000 A 
ATOM     30  O   UNL     1       3.373   1.371  -3.408  0.00  0.00    +0.000 OA
ATOM     31  C   UNL     1       1.180   1.351  -4.309  0.00  0.00    +0.000 A 
ATOM     32  H   UNL     1       4.095   0.550  -5.602  0.00  0.00    +0.000 HD
ENDBRANCH  19  22
ENDBRANCH   1  20
TORSDOF 7
