REMARK  Name = 
REMARK  8 active torsions:
REMARK  status: ('A' for Active; 'I' for Inactive)
REMARK    1  A    between atoms: C_1  and  O_2
REMARK    2  A    between atoms: O_2  and  C_3
REMARK    3  A    between atoms: C_10  and  C_11
REMARK    4  A    between atoms: N_13  and  C_14
REMARK    5  A    between atoms: C_14  and  C_15
REMARK    6  A    between atoms: C_18  and  N_19
REMARK    7  A    between atoms: N_19  and  C_20
REMARK    8  A    between atoms: C_20  and  C_21
REMARK                            x       y       z     vdW  Elec       q    Type
REMARK                         _______ _______ _______ _____ _____    ______ ____
ROOT
ATOM      1  C   UNL     1       4.396   1.980  -4.854  0.00  0.00    +0.000 C 
ATOM      2  O   UNL     1       5.062   2.477  -3.952  0.00  0.00    +0.000 OA
ATOM      3  N   UNL     1       3.314   1.184  -4.587  0.00  0.00    +0.000 N 
ATOM      4  H   UNL     1       2.729   0.858  -5.343  0.00  0.00    +0.000 HD
ENDROOT
BRANCH   1  12
ATOM      5  C   UNL     1       3.075   0.816  -7.814  0.00  0.00    +0.000 A 
ATOM      6  N   UNL     1       2.787   0.489  -9.090  0.00  0.00    +0.000 NA
ATOM      7  C   UNL     1       3.550   1.005 -10.057  0.00  0.00    +0.000 A 
ATOM      8  N   UNL     1       4.584   1.828  -9.908  0.00  0.00    +0.000 NA
ATOM      9  C   UNL     1       4.835   2.130  -8.623  0.00  0.00    +0.000 A 
ATOM     10  S   UNL     1       6.117   3.175  -8.243  0.00  0.00    +0.000 S 
ATOM     11  C   UNL     1       5.802   3.039  -6.579  0.00  0.00    +0.000 A 
ATOM     12  C   UNL     1       4.732   2.205  -6.273  0.00  0.00    +0.000 A 
ATOM     13  C   UNL     1       4.144   1.675  -7.503  0.00  0.00    +0.000 A 
BRANCH   5  15
ATOM     14  C   UNL     1       1.585  -0.875  -7.180  0.00  0.00    +0.000 C 
ATOM     15  O   UNL     1       2.248   0.335  -6.822  0.00  0.00    +0.000 OA
ENDBRANCH   5  15
ENDBRANCH   1  12
BRANCH   3  16
ATOM     16  C   UNL     1       2.893   0.877  -3.245  0.00  0.00    +0.000 C 
BRANCH  16  17
ATOM     17  C   UNL     1       1.723  -0.075  -3.235  0.00  0.00    +0.000 A 
ATOM     18  C   UNL     1       1.924  -1.459  -3.265  0.00  0.00    +0.000 A 
ATOM     19  C   UNL     1       0.837  -2.344  -3.190  0.00  0.00    +0.000 A 
ATOM     20  C   UNL     1      -0.475  -1.874  -3.064  0.00  0.00    +0.000 A 
ATOM     21  C   UNL     1      -0.675  -0.491  -3.149  0.00  0.00    +0.000 A 
ATOM     22  C   UNL     1       0.406   0.400  -3.217  0.00  0.00    +0.000 A 
BRANCH  20  23
ATOM     23  N   UNL     1      -1.607  -2.708  -2.977  0.00  0.00    +0.000 N 
ATOM     24  H   UNL     1      -1.976  -2.887  -3.909  0.00  0.00    +0.000 HD
BRANCH  23  25
ATOM     25  C   UNL     1      -1.437  -3.953  -2.233  0.00  0.00    +0.000 C 
BRANCH  25  26
ATOM     26  C   UNL     1      -2.724  -4.716  -2.224  0.00  0.00    +0.000 C 
ATOM     27  C   UNL     1      -2.898  -5.971  -2.666  0.00  0.00    +0.000 C 
ATOM     28  C   UNL     1      -4.296  -6.451  -2.482  0.00  0.00    +0.000 C 
ATOM     29  C   UNL     1      -4.931  -5.368  -1.614  0.00  0.00    +0.000 C 
ATOM     30  C   UNL     1      -3.991  -4.158  -1.653  0.00  0.00    +0.000 C 
ENDBRANCH  25  26
ENDBRANCH  23  25
ENDBRANCH  20  23
ENDBRANCH  16  17
ENDBRANCH   3  16
TORSDOF 7
