REMARK  Name = 
REMARK  8 active torsions:
REMARK  status: ('A' for Active; 'I' for Inactive)
REMARK    1  A    between atoms: C_1  and  C_2
REMARK    2  A    between atoms: C_2  and  O_3
REMARK    3  A    between atoms: O_3  and  C_4
REMARK    4  A    between atoms: C_8  and  C_9
REMARK    5  A    between atoms: C_9  and  C_10
REMARK    6  A    between atoms: C_10  and  N_11
REMARK    7  A    between atoms: C_15  and  C_16
REMARK    8  A    between atoms: C_23  and  O_24
REMARK                            x       y       z     vdW  Elec       q    Type
REMARK                         _______ _______ _______ _____ _____    ______ ____
ROOT
ATOM      1  C   UNL     1       5.389  -1.662   5.242  0.00  0.00    +0.000 C 
ENDROOT
BRANCH   1   6
ATOM      2  C   UNL     1       3.787  -0.226   2.090  0.00  0.00    +0.000 A 
ATOM      3  C   UNL     1       4.568   0.896   1.849  0.00  0.00    +0.000 A 
ATOM      4  C   UNL     1       5.672   1.153   2.672  0.00  0.00    +0.000 A 
ATOM      5  C   UNL     1       5.970   0.312   3.752  0.00  0.00    +0.000 A 
ATOM      6  C   UNL     1       5.147  -0.779   4.041  0.00  0.00    +0.000 A 
ATOM      7  C   UNL     1       4.071  -1.046   3.188  0.00  0.00    +0.000 A 
BRANCH   2   8
ATOM      8  O   UNL     1       2.700  -0.638   1.373  0.00  0.00    +0.000 OA
BRANCH   8  10
ATOM      9  C   UNL     1       1.222   0.609  -0.126  0.00  0.00    +0.000 C 
ATOM     10  C   UNL     1       2.463  -0.219   0.017  0.00  0.00    +0.000 C 
ATOM     11  C   UNL     1       3.536  -0.173  -1.043  0.00  0.00    +0.000 C 
ATOM     12  C   UNL     1       2.646  -1.372  -0.965  0.00  0.00    +0.000 C 
BRANCH  12  13
ATOM     13  O   UNL     1       3.293  -2.563  -0.477  0.00  0.00    +0.000 OA
ATOM     14  H   UNL     1       3.819  -2.368   0.320  0.00  0.00    +0.000 HD
ENDBRANCH  12  13
ENDBRANCH   8  10
ENDBRANCH   2   8
ENDBRANCH   1   6
BRANCH   1  15
ATOM     15  C   UNL     1       6.245  -2.885   4.908  0.00  0.00    +0.000 C 
BRANCH  15  16
ATOM     16  N   UNL     1       6.392  -3.748   6.089  0.00  0.00    +0.000 N 
ATOM     17  C   UNL     1       7.173  -4.887   5.831  0.00  0.00    +0.000 A 
ATOM     18  C   UNL     1       7.387  -5.806   6.858  0.00  0.00    +0.000 A 
ATOM     19  C   UNL     1       8.177  -6.935   6.617  0.00  0.00    +0.000 A 
ATOM     20  C   UNL     1       8.746  -7.128   5.356  0.00  0.00    +0.000 A 
ATOM     21  C   UNL     1       8.491  -6.161   4.401  0.00  0.00    +0.000 A 
ATOM     22  N   UNL     1       7.729  -5.059   4.617  0.00  0.00    +0.000 NA
ATOM     23  H   UNL     1       5.495  -4.050   6.462  0.00  0.00    +0.000 HD
BRANCH  20  24
ATOM     24  C   UNL     1       9.580  -8.324   5.095  0.00  0.00    +0.000 C 
ATOM     25  N   UNL     1      10.108  -8.508   3.846  0.00  0.00    +0.000 N 
ATOM     26  O   UNL     1       9.802  -9.143   5.979  0.00  0.00    +0.000 OA
ATOM     27  H   UNL     1       9.974  -7.911   3.045  0.00  0.00    +0.000 HD
ATOM     28  H   UNL     1      10.668  -9.341   3.712  0.00  0.00    +0.000 HD
ENDBRANCH  20  24
ENDBRANCH  15  16
ENDBRANCH   1  15
TORSDOF 7
