REMARK  Name = 
REMARK  9 active torsions:
REMARK  status: ('A' for Active; 'I' for Inactive)
REMARK    1  A    between atoms: C_1  and  O_2
REMARK    2  A    between atoms: O_2  and  C_3
REMARK    3  A    between atoms: C_10  and  C_11
REMARK    4  A    between atoms: N_13  and  C_14
REMARK    5  A    between atoms: C_14  and  C_15
REMARK    6  A    between atoms: C_18  and  C_19
REMARK    7  A    between atoms: C_19  and  N_20
REMARK    8  A    between atoms: N_20  and  C_21
REMARK    9  A    between atoms: C_21  and  C_22
REMARK                            x       y       z     vdW  Elec       q    Type
REMARK                         _______ _______ _______ _____ _____    ______ ____
ROOT
ATOM      1  C   UNL     1       4.585  -0.709   4.417  0.00  0.00    +0.000 C 
ENDROOT
BRANCH   1   2
ATOM      2  C   UNL     1       5.419  -1.252   5.549  0.00  0.00    +0.000 A 
ATOM      3  C   UNL     1       6.302  -0.424   6.255  0.00  0.00    +0.000 A 
ATOM      4  C   UNL     1       7.147  -0.957   7.233  0.00  0.00    +0.000 A 
ATOM      5  C   UNL     1       7.122  -2.327   7.534  0.00  0.00    +0.000 A 
ATOM      6  C   UNL     1       6.211  -3.146   6.855  0.00  0.00    +0.000 A 
ATOM      7  C   UNL     1       5.376  -2.614   5.867  0.00  0.00    +0.000 A 
BRANCH   5   8
ATOM      8  C   UNL     1       8.096  -2.912   8.532  0.00  0.00    +0.000 C 
BRANCH   8   9
ATOM      9  N   UNL     1       7.958  -2.284   9.838  0.00  0.00    +0.000 NA
ATOM     10  H   UNL     1       7.017  -2.448  10.202  0.00  0.00    +0.000 HD
BRANCH   9  11
ATOM     11  C   UNL     1       8.916  -2.839  10.809  0.00  0.00    +0.000 C 
BRANCH  11  12
ATOM     12  C   UNL     1       8.769  -2.222  12.193  0.00  0.00    +0.000 A 
ATOM     13  N   UNL     1       7.574  -2.363  12.812  0.00  0.00    +0.000 NA
ATOM     14  C   UNL     1       7.465  -1.806  14.032  0.00  0.00    +0.000 A 
ATOM     15  C   UNL     1       8.490  -1.135  14.656  0.00  0.00    +0.000 A 
ATOM     16  C   UNL     1       9.663  -1.050  13.946  0.00  0.00    +0.000 A 
ATOM     17  N   UNL     1       9.834  -1.584  12.722  0.00  0.00    +0.000 NA
ENDBRANCH  11  12
ENDBRANCH   9  11
ENDBRANCH   8   9
ENDBRANCH   5   8
ENDBRANCH   1   2
BRANCH   1  20
ATOM     18  C   UNL     1       4.724  -0.414   1.981  0.00  0.00    +0.000 C 
ATOM     19  O   UNL     1       3.586   0.046   1.923  0.00  0.00    +0.000 OA
ATOM     20  N   UNL     1       5.263  -0.875   3.154  0.00  0.00    +0.000 N 
ATOM     21  H   UNL     1       6.242  -1.134   3.178  0.00  0.00    +0.000 HD
BRANCH  18  29
ATOM     22  C   UNL     1       8.057  -0.274   1.579  0.00  0.00    +0.000 A 
ATOM     23  N   UNL     1       9.358  -0.250   1.200  0.00  0.00    +0.000 NA
ATOM     24  C   UNL     1       9.673  -0.395  -0.090  0.00  0.00    +0.000 A 
ATOM     25  C   UNL     1       8.748  -0.589  -1.091  0.00  0.00    +0.000 A 
ATOM     26  C   UNL     1       7.404  -0.629  -0.695  0.00  0.00    +0.000 A 
ATOM     27  S   UNL     1       6.058  -0.848  -1.737  0.00  0.00    +0.000 S 
ATOM     28  C   UNL     1       4.956  -0.726  -0.451  0.00  0.00    +0.000 A 
ATOM     29  C   UNL     1       5.562  -0.547   0.780  0.00  0.00    +0.000 A 
ATOM     30  C   UNL     1       7.017  -0.484   0.644  0.00  0.00    +0.000 A 
BRANCH  22  32
ATOM     31  C   UNL     1       8.806   0.546   3.626  0.00  0.00    +0.000 C 
ATOM     32  O   UNL     1       7.774  -0.136   2.921  0.00  0.00    +0.000 OA
ENDBRANCH  22  32
ENDBRANCH  18  29
ENDBRANCH   1  20
TORSDOF 8
