REMARK  Name = 
REMARK  6 active torsions:
REMARK  status: ('A' for Active; 'I' for Inactive)
REMARK    1  A    between atoms: N_1  and  C_2
REMARK    2  A    between atoms: C_2  and  C_3
REMARK    3  A    between atoms: C_6  and  C_7
REMARK    4  A    between atoms: C_7  and  C_8
REMARK    5  A    between atoms: C_8  and  C_9
REMARK    6  A    between atoms: C_13  and  C_14
REMARK                            x       y       z     vdW  Elec       q    Type
REMARK                         _______ _______ _______ _____ _____    ______ ____
ROOT
ATOM      1  C   UNL     1       4.943  -2.775  -5.525  0.00  0.00    +0.000 C 
ENDROOT
BRANCH   1   2
ATOM      2  C   UNL     1       5.239  -3.752  -6.638  0.00  0.00    +0.000 A 
ATOM      3  C   UNL     1       6.408  -4.519  -6.640  0.00  0.00    +0.000 A 
ATOM      4  C   UNL     1       6.633  -5.396  -7.694  0.00  0.00    +0.000 A 
ATOM      5  N   UNL     1       5.783  -5.568  -8.729  0.00  0.00    +0.000 NA
ATOM      6  C   UNL     1       4.648  -4.815  -8.704  0.00  0.00    +0.000 A 
ATOM      7  C   UNL     1       4.337  -3.912  -7.694  0.00  0.00    +0.000 A 
BRANCH   6   8
ATOM      8  C   UNL     1       3.700  -4.995  -9.850  0.00  0.00    +0.000 C 
ATOM      9  N   UNL     1       4.086  -5.914 -10.789  0.00  0.00    +0.000 N 
ATOM     10  O   UNL     1       2.653  -4.370  -9.951  0.00  0.00    +0.000 OA
ATOM     11  H   UNL     1       4.965  -6.407 -10.668  0.00  0.00    +0.000 HD
ATOM     12  H   UNL     1       3.499  -6.089 -11.589  0.00  0.00    +0.000 HD
ENDBRANCH   6   8
ENDBRANCH   1   2
BRANCH   1  13
ATOM     13  C   UNL     1       4.143  -3.415  -4.383  0.00  0.00    +0.000 C 
BRANCH  13  17
ATOM     14  C   UNL     1       2.948  -0.899  -1.044  0.00  0.00    +0.000 A 
ATOM     15  C   UNL     1       3.129  -0.342  -2.315  0.00  0.00    +0.000 A 
ATOM     16  C   UNL     1       3.536  -1.132  -3.395  0.00  0.00    +0.000 A 
ATOM     17  C   UNL     1       3.792  -2.499  -3.229  0.00  0.00    +0.000 A 
ATOM     18  C   UNL     1       3.620  -3.052  -1.951  0.00  0.00    +0.000 A 
ATOM     19  C   UNL     1       3.209  -2.263  -0.870  0.00  0.00    +0.000 A 
BRANCH  14  20
ATOM     20  C   UNL     1       2.474  -0.047   0.106  0.00  0.00    +0.000 C 
BRANCH  20  21
ATOM     21  N   UNL     1       1.162   0.533  -0.165  0.00  0.00    +0.000 NA
ATOM     22  H   UNL     1       0.826   1.006   0.671  0.00  0.00    +0.000 HD
ATOM     23  H   UNL     1       0.505  -0.222  -0.355  0.00  0.00    +0.000 HD
ENDBRANCH  20  21
ENDBRANCH  14  20
ENDBRANCH  13  17
ENDBRANCH   1  13
TORSDOF 6
