REMARK  Name = 
REMARK  5 active torsions:
REMARK  status: ('A' for Active; 'I' for Inactive)
REMARK    1  A    between atoms: C_1  and  C_2
REMARK    2  A    between atoms: C_4  and  C_5
REMARK    3  A    between atoms: N_10  and  C_11
REMARK    4  A    between atoms: C_11  and  C_12
REMARK    5  A    between atoms: C_17  and  N_18
REMARK                            x       y       z     vdW  Elec       q    Type
REMARK                         _______ _______ _______ _____ _____    ______ ____
ROOT
ATOM      1  C   UNL     1       3.852   0.996  -5.841  0.00  0.00    +0.000 C 
ATOM      2  C   UNL     1       4.208   0.935  -4.387  0.00  0.00    +0.000 A 
ATOM      3  C   UNL     1       5.344   0.303  -3.958  0.00  0.00    +0.000 A 
ATOM      4  C   UNL     1       5.542   0.316  -2.596  0.00  0.00    +0.000 A 
ATOM      5  N   UNL     1       4.703   0.895  -1.699  0.00  0.00    +0.000 NA
ATOM      6  C   UNL     1       3.619   1.483  -2.215  0.00  0.00    +0.000 A 
ATOM      7  N   UNL     1       2.655   2.050  -1.411  0.00  0.00    +0.000 N 
ATOM      8  N   UNL     1       3.349   1.526  -3.527  0.00  0.00    +0.000 NA
ATOM      9  H   UNL     1       2.069   2.637  -1.993  0.00  0.00    +0.000 HD
ENDROOT
BRANCH   4  10
ATOM     10  C   UNL     1       6.761  -0.349  -2.042  0.00  0.00    +0.000 C 
ATOM     11  N   UNL     1       6.893  -0.306  -0.680  0.00  0.00    +0.000 N 
ATOM     12  O   UNL     1       7.592  -0.906  -2.750  0.00  0.00    +0.000 OA
ATOM     13  H   UNL     1       6.149   0.089  -0.117  0.00  0.00    +0.000 HD
ATOM     14  H   UNL     1       7.663  -0.794  -0.244  0.00  0.00    +0.000 HD
ENDBRANCH   4  10
BRANCH   7  15
ATOM     15  C   UNL     1       3.012   2.580  -0.119  0.00  0.00    +0.000 C 
BRANCH  15  16
ATOM     16  C   UNL     1       3.401   4.037  -0.191  0.00  0.00    +0.000 A 
ATOM     17  C   UNL     1       2.459   5.060  -0.069  0.00  0.00    +0.000 A 
ATOM     18  C   UNL     1       2.878   6.384  -0.110  0.00  0.00    +0.000 A 
ATOM     19  F   UNL     1       1.974   7.365   0.026  0.00  0.00    +0.000 F 
ATOM     20  C   UNL     1       4.223   6.715  -0.264  0.00  0.00    +0.000 A 
ATOM     21  C   UNL     1       5.199   5.722  -0.388  0.00  0.00    +0.000 A 
ATOM     22  C   UNL     1       4.750   4.388  -0.370  0.00  0.00    +0.000 A 
BRANCH  21  23
ATOM     23  N   UNL     1       6.536   6.012  -0.535  0.00  0.00    +0.000 N 
ATOM     24  C   UNL     1       7.037   7.275  -1.094  0.00  0.00    +0.000 C 
ATOM     25  C   UNL     1       8.155   6.957  -2.105  0.00  0.00    +0.000 C 
ATOM     26  O   UNL     1       9.199   6.154  -1.524  0.00  0.00    +0.000 OA
ATOM     27  C   UNL     1       8.663   4.915  -1.026  0.00  0.00    +0.000 C 
ATOM     28  C   UNL     1       7.593   5.167   0.043  0.00  0.00    +0.000 C 
ENDBRANCH  21  23
ENDBRANCH  15  16
ENDBRANCH   7  15
TORSDOF 4
