REMARK  Name = 
REMARK  5 active torsions:
REMARK  status: ('A' for Active; 'I' for Inactive)
REMARK    1  A    between atoms: N_1  and  C_2
REMARK    2  A    between atoms: C_2  and  C_3
REMARK    3  A    between atoms: C_6  and  O_7
REMARK    4  A    between atoms: O_7  and  C_8
REMARK    5  A    between atoms: C_8  and  C_9
REMARK                            x       y       z     vdW  Elec       q    Type
REMARK                         _______ _______ _______ _____ _____    ______ ____
ROOT
ATOM      1  C   UNL     1       2.766   1.055  -0.850  0.00  0.00    +0.000 A 
ATOM      2  C   UNL     1       2.491   2.376  -0.497  0.00  0.00    +0.000 A 
ATOM      3  C   UNL     1       2.883   3.401  -1.356  0.00  0.00    +0.000 A 
ATOM      4  C   UNL     1       3.551   3.090  -2.534  0.00  0.00    +0.000 A 
ATOM      5  C   UNL     1       3.750   1.746  -2.824  0.00  0.00    +0.000 A 
ATOM      6  N   UNL     1       3.380   0.728  -2.013  0.00  0.00    +0.000 NA
ENDROOT
BRANCH   1   7
ATOM      7  C   UNL     1       2.352  -0.085   0.053  0.00  0.00    +0.000 C 
BRANCH   7   8
ATOM      8  N   UNL     1       0.896  -0.187   0.187  0.00  0.00    +0.000 NA
ATOM      9  H   UNL     1       0.675  -1.055   0.671  0.00  0.00    +0.000 HD
ATOM     10  H   UNL     1       0.507  -0.284  -0.752  0.00  0.00    +0.000 HD
ENDBRANCH   7   8
ENDBRANCH   1   7
BRANCH   4  11
ATOM     11  O   UNL     1       3.950   4.148  -3.302  0.00  0.00    +0.000 OA
BRANCH  11  12
ATOM     12  C   UNL     1       5.015   3.860  -4.212  0.00  0.00    +0.000 C 
BRANCH  12  13
ATOM     13  C   UNL     1       5.681   5.114  -4.679  0.00  0.00    +0.000 A 
ATOM     14  C   UNL     1       5.710   6.287  -3.952  0.00  0.00    +0.000 A 
ATOM     15  N   UNL     1       6.379   7.391  -4.336  0.00  0.00    +0.000 NA
ATOM     16  C   UNL     1       7.047   7.294  -5.494  0.00  0.00    +0.000 A 
ATOM     17  N   UNL     1       7.103   6.212  -6.284  0.00  0.00    +0.000 NA
ATOM     18  C   UNL     1       6.414   5.141  -5.849  0.00  0.00    +0.000 A 
ENDBRANCH  12  13
ENDBRANCH  11  12
ENDBRANCH   4  11
TORSDOF 5
