REMARK  Name = 
REMARK  3 active torsions:
REMARK  status: ('A' for Active; 'I' for Inactive)
REMARK    1  A    between atoms: C_2  and  C_4
REMARK    2  A    between atoms: N_8  and  C_9
REMARK    3  A    between atoms: C_9  and  C_10
REMARK                            x       y       z     vdW  Elec       q    Type
REMARK                         _______ _______ _______ _____ _____    ______ ____
ROOT
ATOM      1  C   UNL     1       4.061   0.577  -0.928  0.00  0.00    +0.000 A 
ATOM      2  C   UNL     1       2.818   0.850  -1.488  0.00  0.00    +0.000 A 
ATOM      3  C   UNL     1       2.696   1.940  -2.340  0.00  0.00    +0.000 A 
ATOM      4  C   UNL     1       3.797   2.756  -2.583  0.00  0.00    +0.000 A 
ATOM      5  N   UNL     1       3.631   3.685  -3.638  0.00  0.00    +0.000 N 
ATOM      6  N   UNL     1       4.985   2.566  -1.970  0.00  0.00    +0.000 NA
ATOM      7  C   UNL     1       5.094   1.482  -1.154  0.00  0.00    +0.000 A 
ATOM      8  H   UNL     1       3.723   3.107  -4.481  0.00  0.00    +0.000 HD
ENDROOT
BRANCH   1  10
ATOM      9  N   UNL     1       3.598  -1.767  -0.595  0.00  0.00    +0.000 N 
ATOM     10  C   UNL     1       4.323  -0.669  -0.197  0.00  0.00    +0.000 C 
ATOM     11  O   UNL     1       5.177  -0.745   0.677  0.00  0.00    +0.000 OA
ATOM     12  H   UNL     1       3.871  -2.658  -0.195  0.00  0.00    +0.000 HD
ATOM     13  H   UNL     1       3.088  -1.783  -1.468  0.00  0.00    +0.000 HD
ENDBRANCH   1  10
BRANCH   5  14
ATOM     14  C   UNL     1       4.571   4.835  -3.783  0.00  0.00    +0.000 C 
ATOM     15  C   UNL     1       4.751   5.867  -2.683  0.00  0.00    +0.000 C 
ATOM     16  C   UNL     1       3.851   6.171  -3.836  0.00  0.00    +0.000 C 
BRANCH  14  17
ATOM     17  C   UNL     1       5.812   4.500  -4.640  0.00  0.00    +0.000 A 
ATOM     18  N   UNL     1       5.757   3.341  -5.350  0.00  0.00    +0.000 NA
ATOM     19  C   UNL     1       6.931   2.781  -5.690  0.00  0.00    +0.000 A 
ATOM     20  C   UNL     1       8.148   3.348  -5.413  0.00  0.00    +0.000 A 
ATOM     21  C   UNL     1       8.100   4.594  -4.838  0.00  0.00    +0.000 A 
ATOM     22  N   UNL     1       6.958   5.196  -4.463  0.00  0.00    +0.000 NA
ENDBRANCH  14  17
ENDBRANCH   5  14
TORSDOF 3
