REMARK  Name = 
REMARK  6 active torsions:
REMARK  status: ('A' for Active; 'I' for Inactive)
REMARK    1  A    between atoms: C_2  and  C_4
REMARK    2  A    between atoms: N_8  and  C_9
REMARK    3  A    between atoms: C_9  and  C_10
REMARK    4  A    between atoms: C_10  and  C_13
REMARK    5  A    between atoms: C_16  and  O_17
REMARK    6  A    between atoms: O_17  and  C_18
REMARK                            x       y       z     vdW  Elec       q    Type
REMARK                         _______ _______ _______ _____ _____    ______ ____
ROOT
ATOM      1  C   UNL     1       6.387  -3.422   5.924  0.00  0.00    +0.000 C 
ATOM      2  F   UNL     1       7.589  -3.303   5.279  0.00  0.00    +0.000 F 
ATOM      3  F   UNL     1       6.389  -2.430   6.865  0.00  0.00    +0.000 F 
ENDROOT
BRANCH   1   4
ATOM      4  C   UNL     1       6.225  -4.790   6.563  0.00  0.00    +0.000 A 
ATOM      5  C   UNL     1       6.825  -5.925   5.997  0.00  0.00    +0.000 A 
ATOM      6  C   UNL     1       6.691  -7.184   6.596  0.00  0.00    +0.000 A 
ATOM      7  C   UNL     1       5.952  -7.324   7.768  0.00  0.00    +0.000 A 
ATOM      8  C   UNL     1       5.337  -6.205   8.331  0.00  0.00    +0.000 A 
ATOM      9  C   UNL     1       5.475  -4.945   7.739  0.00  0.00    +0.000 A 
BRANCH   7  10
ATOM     10  O   UNL     1       5.718  -8.515   8.409  0.00  0.00    +0.000 OA
BRANCH  10  11
ATOM     11  C   UNL     1       6.685  -9.585   8.284  0.00  0.00    +0.000 C 
ATOM     12  C   UNL     1       6.365 -10.852   9.104  0.00  0.00    +0.000 C 
ATOM     13  N   UNL     1       7.732 -10.864   9.647  0.00  0.00    +0.000 NA
ATOM     14  C   UNL     1       7.961  -9.499   9.146  0.00  0.00    +0.000 C 
ATOM     15  H   UNL     1       8.338 -11.570   9.231  0.00  0.00    +0.000 HD
ENDBRANCH  10  11
ENDBRANCH   7  10
ENDBRANCH   1   4
BRANCH   1  16
ATOM     16  C   UNL     1       5.262  -3.131   4.893  0.00  0.00    +0.000 C 
BRANCH  16  21
ATOM     17  C   UNL     1       2.895  -0.268   1.361  0.00  0.00    +0.000 A 
ATOM     18  C   UNL     1       2.356  -1.190   2.252  0.00  0.00    +0.000 A 
ATOM     19  C   UNL     1       3.172  -1.737   3.244  0.00  0.00    +0.000 A 
ATOM     20  C   UNL     1       4.510  -1.365   3.321  0.00  0.00    +0.000 A 
ATOM     21  N   UNL     1       5.354  -1.776   4.331  0.00  0.00    +0.000 N 
ATOM     22  N   UNL     1       5.050  -0.499   2.442  0.00  0.00    +0.000 NA
ATOM     23  C   UNL     1       4.244   0.027   1.480  0.00  0.00    +0.000 A 
ATOM     24  H   UNL     1       6.299  -1.461   4.107  0.00  0.00    +0.000 HD
BRANCH  17  26
ATOM     25  N   UNL     1       0.760   0.555   0.544  0.00  0.00    +0.000 N 
ATOM     26  C   UNL     1       2.099   0.399   0.311  0.00  0.00    +0.000 C 
ATOM     27  O   UNL     1       2.619   0.832  -0.711  0.00  0.00    +0.000 OA
ATOM     28  H   UNL     1       0.252   1.116  -0.127  0.00  0.00    +0.000 HD
ATOM     29  H   UNL     1       0.358   0.461   1.467  0.00  0.00    +0.000 HD
ENDBRANCH  17  26
ENDBRANCH  16  21
ENDBRANCH   1  16
TORSDOF 6
