REMARK  Name = 
REMARK  5 active torsions:
REMARK  status: ('A' for Active; 'I' for Inactive)
REMARK    1  A    between atoms: N_1  and  C_2
REMARK    2  A    between atoms: C_2  and  C_3
REMARK    3  A    between atoms: C_6  and  O_7
REMARK    4  A    between atoms: O_7  and  C_8
REMARK    5  A    between atoms: C_8  and  C_9
REMARK                            x       y       z     vdW  Elec       q    Type
REMARK                         _______ _______ _______ _____ _____    ______ ____
ROOT
ATOM      1  C   UNL     1       3.242  -0.028   1.372  0.00  0.00    +0.000 A 
ATOM      2  C   UNL     1       2.519  -1.172   1.723  0.00  0.00    +0.000 A 
ATOM      3  C   UNL     1       2.713  -1.758   2.972  0.00  0.00    +0.000 A 
ATOM      4  C   UNL     1       3.613  -1.167   3.842  0.00  0.00    +0.000 A 
ATOM      5  N   UNL     1       4.328  -0.063   3.542  0.00  0.00    +0.000 NA
ATOM      6  C   UNL     1       4.131   0.474   2.317  0.00  0.00    +0.000 A 
ENDROOT
BRANCH   1   7
ATOM      7  C   UNL     1       3.097   0.615   0.023  0.00  0.00    +0.000 C 
BRANCH   7   8
ATOM      8  N   UNL     1       1.726   1.040  -0.232  0.00  0.00    +0.000 NA
ATOM      9  H   UNL     1       1.691   1.540  -1.118  0.00  0.00    +0.000 HD
ATOM     10  H   UNL     1       1.444   1.708   0.485  0.00  0.00    +0.000 HD
ENDBRANCH   7   8
ENDBRANCH   1   7
BRANCH   4  11
ATOM     11  O   UNL     1       3.802  -1.798   5.055  0.00  0.00    +0.000 OA
BRANCH  11  12
ATOM     12  C   UNL     1       4.404  -0.947   6.036  0.00  0.00    +0.000 C 
BRANCH  12  13
ATOM     13  C   UNL     1       4.687  -1.772   7.305  0.00  0.00    +0.000 C 
ATOM     14  C   UNL     1       5.162  -0.874   8.456  0.00  0.00    +0.000 C 
ATOM     15  C   UNL     1       6.599  -0.389   8.258  0.00  0.00    +0.000 C 
ATOM     16  N   UNL     1       7.524  -1.509   8.084  0.00  0.00    +0.000 NA
ATOM     17  C   UNL     1       7.149  -2.334   6.932  0.00  0.00    +0.000 C 
ATOM     18  C   UNL     1       5.726  -2.881   7.057  0.00  0.00    +0.000 C 
ATOM     19  H   UNL     1       7.504  -2.088   8.924  0.00  0.00    +0.000 HD
ENDBRANCH  12  13
ENDBRANCH  11  12
ENDBRANCH   4  11
TORSDOF 5
