REMARK  Name = 
REMARK  9 active torsions:
REMARK  status: ('A' for Active; 'I' for Inactive)
REMARK    1  A    between atoms: C_1  and  C_2
REMARK    2  A    between atoms: C_4  and  O_5
REMARK    3  A    between atoms: O_5  and  C_6
REMARK    4  A    between atoms: C_6  and  C_7
REMARK    5  A    between atoms: C_7  and  C_8
REMARK    6  A    between atoms: C_7  and  C_9
REMARK    7  A    between atoms: C_13  and  C_14
REMARK    8  A    between atoms: C_14  and  N_15
REMARK    9  A    between atoms: C_19  and  C_20
REMARK                            x       y       z     vdW  Elec       q    Type
REMARK                         _______ _______ _______ _____ _____    ______ ____
ROOT
ATOM      1  O   UNL     1      -1.833   2.365   0.074  0.00  0.00    +0.000 OA
ENDROOT
BRANCH   1   5
ATOM      2  C   UNL     1       2.522  -0.002   0.146  0.00  0.00    +0.000 C 
ATOM      3  C   UNL     1       1.017  -0.054   0.133  0.00  0.00    +0.000 A 
ATOM      4  C   UNL     1       0.318   1.167   0.103  0.00  0.00    +0.000 A 
ATOM      5  C   UNL     1      -1.079   1.216   0.095  0.00  0.00    +0.000 A 
ATOM      6  C   UNL     1      -1.789   0.017   0.110  0.00  0.00    +0.000 A 
ATOM      7  C   UNL     1      -1.114  -1.212   0.140  0.00  0.00    +0.000 A 
ATOM      8  C   UNL     1       0.290  -1.261   0.162  0.00  0.00    +0.000 A 
BRANCH   8   9
ATOM      9  C   UNL     1       0.993  -2.584   0.188  0.00  0.00    +0.000 C 
ATOM     10  N   UNL     1       0.347  -3.632   0.784  0.00  0.00    +0.000 N 
ATOM     11  O   UNL     1       2.112  -2.752  -0.279  0.00  0.00    +0.000 OA
ATOM     12  H   UNL     1      -0.496  -3.538   1.329  0.00  0.00    +0.000 HD
ATOM     13  H   UNL     1       0.874  -4.492   0.866  0.00  0.00    +0.000 HD
ENDBRANCH   8   9
ENDBRANCH   1   5
BRANCH   1  14
ATOM     14  C   UNL     1      -1.100   3.597   0.040  0.00  0.00    +0.000 C 
BRANCH  14  15
ATOM     15  C   UNL     1      -2.048   4.811  -0.002  0.00  0.00    +0.000 C 
ATOM     16  C   UNL     1      -2.938   4.785  -1.251  0.00  0.00    +0.000 C 
BRANCH  15  17
ATOM     17  C   UNL     1      -1.273   6.122   0.080  0.00  0.00    +0.000 A 
ATOM     18  C   UNL     1      -0.320   6.470  -0.889  0.00  0.00    +0.000 A 
ATOM     19  C   UNL     1       0.361   7.687  -0.819  0.00  0.00    +0.000 A 
ATOM     20  C   UNL     1       0.101   8.577   0.221  0.00  0.00    +0.000 A 
ATOM     21  C   UNL     1      -0.837   8.256   1.211  0.00  0.00    +0.000 A 
ATOM     22  C   UNL     1      -1.513   7.022   1.131  0.00  0.00    +0.000 A 
BRANCH  21  23
ATOM     23  C   UNL     1      -1.099   9.206   2.353  0.00  0.00    +0.000 C 
BRANCH  23  24
ATOM     24  N   UNL     1      -2.498   9.613   2.414  0.00  0.00    +0.000 NA
ATOM     25  H   UNL     1      -2.736  10.093   1.547  0.00  0.00    +0.000 HD
ATOM     26  H   UNL     1      -2.613  10.294   3.161  0.00  0.00    +0.000 HD
ENDBRANCH  23  24
ENDBRANCH  21  23
ENDBRANCH  15  17
ENDBRANCH  14  15
ENDBRANCH   1  14
TORSDOF 7
