REMARK  Name = 
REMARK  8 active torsions:
REMARK  status: ('A' for Active; 'I' for Inactive)
REMARK    1  A    between atoms: C_1  and  C_2
REMARK    2  A    between atoms: C_2  and  N_3
REMARK    3  A    between atoms: C_2  and  C_25
REMARK    4  A    between atoms: N_3  and  C_4
REMARK    5  A    between atoms: C_4  and  C_5
REMARK    6  A    between atoms: C_8  and  C_9
REMARK    7  A    between atoms: C_9  and  N_10
REMARK    8  A    between atoms: C_11  and  C_13
REMARK                            x       y       z     vdW  Elec       q    Type
REMARK                         _______ _______ _______ _____ _____    ______ ____
ROOT
ATOM      1  C   UNL     1      -0.957   0.609  -1.229  0.00  0.00    +0.000 A 
ATOM      2  C   UNL     1      -1.634  -0.551  -0.857  0.00  0.00    +0.000 A 
ATOM      3  C   UNL     1      -3.028  -0.569  -0.912  0.00  0.00    +0.000 A 
ATOM      4  C   UNL     1      -3.720   0.564  -1.342  0.00  0.00    +0.000 A 
ATOM      5  C   UNL     1      -2.965   1.686  -1.659  0.00  0.00    +0.000 A 
ATOM      6  N   UNL     1      -1.614   1.729  -1.624  0.00  0.00    +0.000 NA
ENDROOT
BRANCH   1   7
ATOM      7  C   UNL     1       0.563   0.630  -1.284  0.00  0.00    +0.000 C 
BRANCH   7   8
ATOM      8  N   UNL     1       1.158   1.646  -0.411  0.00  0.00    +0.000 NA
ATOM      9  H   UNL     1       0.822   1.497   0.540  0.00  0.00    +0.000 HD
BRANCH   8  11
ATOM     10  C   UNL     1       3.274   1.816  -1.768  0.00  0.00    +0.000 C 
ATOM     11  C   UNL     1       2.633   1.613  -0.388  0.00  0.00    +0.000 C 
BRANCH  11  12
ATOM     12  C   UNL     1       3.174   2.653   0.597  0.00  0.00    +0.000 A 
ATOM     13  C   UNL     1       2.837   4.003   0.470  0.00  0.00    +0.000 A 
ATOM     14  C   UNL     1       3.305   4.912   1.415  0.00  0.00    +0.000 A 
ATOM     15  C   UNL     1       4.098   4.456   2.460  0.00  0.00    +0.000 A 
ATOM     16  C   UNL     1       4.396   3.105   2.512  0.00  0.00    +0.000 A 
ATOM     17  N   UNL     1       3.954   2.197   1.612  0.00  0.00    +0.000 NA
ENDBRANCH  11  12
ENDBRANCH   8  11
ENDBRANCH   7   8
ENDBRANCH   1   7
BRANCH   4  18
ATOM     18  C   UNL     1      -5.216   0.604  -1.411  0.00  0.00    +0.000 C 
BRANCH  18  19
ATOM     19  N   UNL     1      -5.777   1.030  -0.156  0.00  0.00    +0.000 N 
ATOM     20  C   UNL     1      -7.131   1.067   0.047  0.00  0.00    +0.000 C 
ATOM     21  O   UNL     1      -7.928   0.702  -0.812  0.00  0.00    +0.000 OA
ATOM     22  H   UNL     1      -5.167   1.545   0.472  0.00  0.00    +0.000 HD
BRANCH  20  23
ATOM     23  C   UNL     1      -7.577   1.503   1.376  0.00  0.00    +0.000 A 
ATOM     24  C   UNL     1      -8.826   1.116   1.842  0.00  0.00    +0.000 A 
ATOM     25  S   UNL     1      -9.162   1.658   3.424  0.00  0.00    +0.000 S 
ATOM     26  C   UNL     1      -7.674   2.476   3.520  0.00  0.00    +0.000 A 
ATOM     27  N   UNL     1      -7.335   3.183   4.631  0.00  0.00    +0.000 NA
ATOM     28  C   UNL     1      -6.191   3.775   4.557  0.00  0.00    +0.000 A 
ATOM     29  N   UNL     1      -5.347   3.718   3.478  0.00  0.00    +0.000 N 
ATOM     30  C   UNL     1      -5.635   2.992   2.346  0.00  0.00    +0.000 A 
ATOM     31  O   UNL     1      -4.843   2.922   1.414  0.00  0.00    +0.000 OA
ATOM     32  C   UNL     1      -6.920   2.319   2.371  0.00  0.00    +0.000 A 
ATOM     33  H   UNL     1      -4.460   4.195   3.488  0.00  0.00    +0.000 HD
ENDBRANCH  20  23
ENDBRANCH  18  19
ENDBRANCH   4  18
TORSDOF 7
