REMARK  Name = 
REMARK  5 active torsions:
REMARK  status: ('A' for Active; 'I' for Inactive)
REMARK    1  A    between atoms: N_1  and  C_2
REMARK    2  A    between atoms: C_2  and  C_3
REMARK    3  A    between atoms: C_3  and  C_4
REMARK    4  A    between atoms: C_7  and  C_8
REMARK    5  A    between atoms: C_8  and  N_9
REMARK                            x       y       z     vdW  Elec       q    Type
REMARK                         _______ _______ _______ _____ _____    ______ ____
ROOT
ATOM      1  C   UNL     1       4.480   1.229   0.856  0.00  0.00    +0.000 A 
ATOM      2  C   UNL     1       5.123   0.371   1.743  0.00  0.00    +0.000 A 
ATOM      3  C   UNL     1       6.516   0.343   1.762  0.00  0.00    +0.000 A 
ATOM      4  C   UNL     1       7.240   1.168   0.901  0.00  0.00    +0.000 A 
ATOM      5  C   UNL     1       6.510   1.985   0.044  0.00  0.00    +0.000 A 
ATOM      6  N   UNL     1       5.159   2.033   0.005  0.00  0.00    +0.000 NA
ENDROOT
BRANCH   1   7
ATOM      7  C   UNL     1       2.975   1.261   0.776  0.00  0.00    +0.000 C 
BRANCH   7   8
ATOM      8  C   UNL     1       2.468   0.258  -0.260  0.00  0.00    +0.000 C 
BRANCH   8   9
ATOM      9  N   UNL     1       1.005   0.261  -0.334  0.00  0.00    +0.000 NA
ATOM     10  H   UNL     1       0.711  -0.384  -1.068  0.00  0.00    +0.000 HD
ATOM     11  H   UNL     1       0.687   1.183  -0.633  0.00  0.00    +0.000 HD
ENDBRANCH   8   9
ENDBRANCH   7   8
ENDBRANCH   1   7
BRANCH   4  12
ATOM     12  C   UNL     1       8.740   1.191   0.896  0.00  0.00    +0.000 C 
BRANCH  12  13
ATOM     13  N   UNL     1       9.317   0.235  -0.045  0.00  0.00    +0.000 N 
ATOM     14  C   UNL     1       9.558   0.516  -1.368  0.00  0.00    +0.000 A 
ATOM     15  C   UNL     1      10.268  -0.533  -1.903  0.00  0.00    +0.000 A 
ATOM     16  C   UNL     1      10.472  -1.496  -0.874  0.00  0.00    +0.000 A 
ATOM     17  C   UNL     1      11.133  -2.736  -0.778  0.00  0.00    +0.000 A 
ATOM     18 CL   UNL     1      11.937  -3.292  -2.183  0.00  0.00    +0.000 Cl
ATOM     19  C   UNL     1      11.148  -3.466   0.409  0.00  0.00    +0.000 A 
ATOM     20  C   UNL     1      10.488  -2.967   1.526  0.00  0.00    +0.000 A 
ATOM     21  C   UNL     1       9.827  -1.733   1.482  0.00  0.00    +0.000 A 
ATOM     22  C   UNL     1       9.836  -1.005   0.276  0.00  0.00    +0.000 A 
ENDBRANCH  12  13
ENDBRANCH   4  12
TORSDOF 5
