REMARK  Name = 
REMARK  4 active torsions:
REMARK  status: ('A' for Active; 'I' for Inactive)
REMARK    1  A    between atoms: C_2  and  C_4
REMARK    2  A    between atoms: N_8  and  C_9
REMARK    3  A    between atoms: C_9  and  C_10
REMARK    4  A    between atoms: C_14  and  C_15
REMARK                            x       y       z     vdW  Elec       q    Type
REMARK                         _______ _______ _______ _____ _____    ______ ____
ROOT
ATOM      1  C   UNL     1       4.996   4.500   3.886  0.00  0.00    +0.000 C 
ATOM      2  C   UNL     1       4.879   3.848   5.258  0.00  0.00    +0.000 C 
ATOM      3  C   UNL     1       3.697   4.539   4.666  0.00  0.00    +0.000 C 
ENDROOT
BRANCH   1   8
ATOM      4  C   UNL     1       3.488   3.567  -1.005  0.00  0.00    +0.000 A 
ATOM      5  C   UNL     1       2.713   3.973   0.080  0.00  0.00    +0.000 A 
ATOM      6  C   UNL     1       3.289   4.019   1.349  0.00  0.00    +0.000 A 
ATOM      7  C   UNL     1       4.621   3.656   1.519  0.00  0.00    +0.000 A 
ATOM      8  N   UNL     1       5.233   3.561   2.773  0.00  0.00    +0.000 N 
ATOM      9  N   UNL     1       5.383   3.268   0.474  0.00  0.00    +0.000 NA
ATOM     10  C   UNL     1       4.809   3.227  -0.757  0.00  0.00    +0.000 A 
ATOM     11  H   UNL     1       6.212   3.357   2.575  0.00  0.00    +0.000 HD
BRANCH   4  13
ATOM     12  N   UNL     1       1.845   4.167  -2.695  0.00  0.00    +0.000 N 
ATOM     13  C   UNL     1       2.958   3.433  -2.378  0.00  0.00    +0.000 C 
ATOM     14  O   UNL     1       3.493   2.709  -3.204  0.00  0.00    +0.000 OA
ATOM     15  H   UNL     1       1.535   4.121  -3.656  0.00  0.00    +0.000 HD
ATOM     16  H   UNL     1       1.526   4.946  -2.136  0.00  0.00    +0.000 HD
ENDBRANCH   4  13
ENDBRANCH   1   8
BRANCH   1  17
ATOM     17  C   UNL     1       5.806   5.788   3.758  0.00  0.00    +0.000 A 
ATOM     18  C   UNL     1       7.072   5.931   4.346  0.00  0.00    +0.000 A 
ATOM     19  C   UNL     1       7.843   7.073   4.133  0.00  0.00    +0.000 A 
ATOM     20  C   UNL     1       7.369   8.091   3.305  0.00  0.00    +0.000 A 
ATOM     21  C   UNL     1       6.118   7.995   2.677  0.00  0.00    +0.000 A 
ATOM     22  C   UNL     1       5.348   6.846   2.947  0.00  0.00    +0.000 A 
BRANCH  21  23
ATOM     23  C   UNL     1       5.655   9.006   1.698  0.00  0.00    +0.000 A 
ATOM     24  C   UNL     1       6.553   9.598   0.792  0.00  0.00    +0.000 A 
ATOM     25  C   UNL     1       6.118  10.496  -0.188  0.00  0.00    +0.000 A 
ATOM     26  C   UNL     1       4.769  10.817  -0.288  0.00  0.00    +0.000 A 
ATOM     27  C   UNL     1       3.858  10.255   0.601  0.00  0.00    +0.000 A 
ATOM     28  C   UNL     1       4.299   9.366   1.589  0.00  0.00    +0.000 A 
ENDBRANCH  21  23
ENDBRANCH   1  17
TORSDOF 4
