REMARK  Name = 
REMARK  3 active torsions:
REMARK  status: ('A' for Active; 'I' for Inactive)
REMARK    1  A    between atoms: C_2  and  C_4
REMARK    2  A    between atoms: C_8  and  C_9
REMARK    3  A    between atoms: C_9  and  N_10
REMARK                            x       y       z     vdW  Elec       q    Type
REMARK                         _______ _______ _______ _____ _____    ______ ____
ROOT
ATOM      1  C   UNL     1       4.390  -3.259   1.620  0.00  0.00    +0.000 A 
ATOM      2  C   UNL     1       3.201  -2.615   1.983  0.00  0.00    +0.000 A 
ATOM      3  C   UNL     1       3.231  -1.273   2.368  0.00  0.00    +0.000 A 
ATOM      4  C   UNL     1       4.434  -0.559   2.382  0.00  0.00    +0.000 A 
ATOM      5  C   UNL     1       5.631  -1.181   1.995  0.00  0.00    +0.000 A 
ATOM      6  C   UNL     1       5.589  -2.532   1.627  0.00  0.00    +0.000 A 
ENDROOT
BRANCH   1   8
ATOM      7  N   UNL     1       3.333  -5.447   1.217  0.00  0.00    +0.000 N 
ATOM      8  C   UNL     1       4.464  -4.682   1.199  0.00  0.00    +0.000 C 
ATOM      9  O   UNL     1       5.527  -5.181   0.832  0.00  0.00    +0.000 OA
ATOM     10  H   UNL     1       3.439  -6.417   0.947  0.00  0.00    +0.000 HD
ATOM     11  H   UNL     1       2.423  -5.141   1.559  0.00  0.00    +0.000 HD
ENDBRANCH   1   8
BRANCH   5  12
ATOM     12  C   UNL     1       6.926  -0.414   1.905  0.00  0.00    +0.000 C 
BRANCH  12  13
ATOM     13  N   UNL     1       7.764  -0.533   3.095  0.00  0.00    +0.000 N 
ATOM     14  C   UNL     1       7.786   0.403   4.104  0.00  0.00    +0.000 A 
ATOM     15  C   UNL     1       8.735   0.007   5.018  0.00  0.00    +0.000 A 
ATOM     16  C   UNL     1       9.592  -0.874   4.315  0.00  0.00    +0.000 A 
ATOM     17  C   UNL     1      10.926  -1.284   4.489  0.00  0.00    +0.000 A 
ATOM     18  C   UNL     1      11.464  -2.233   3.616  0.00  0.00    +0.000 A 
ATOM     19  C   UNL     1      10.656  -2.856   2.671  0.00  0.00    +0.000 A 
ATOM     20  C   UNL     1       9.336  -2.441   2.462  0.00  0.00    +0.000 A 
ATOM     21  C   UNL     1       8.865  -1.364   3.227  0.00  0.00    +0.000 A 
ENDBRANCH  12  13
ENDBRANCH   5  12
TORSDOF 3
