REMARK  Name = 
REMARK  5 active torsions:
REMARK  status: ('A' for Active; 'I' for Inactive)
REMARK    1  A    between atoms: C_1  and  C_2
REMARK    2  A    between atoms: C_12  and  C_13
REMARK    3  A    between atoms: C_13  and  N_14
REMARK    4  A    between atoms: N_14  and  C_15
REMARK    5  A    between atoms: C_18  and  C_19
REMARK                            x       y       z     vdW  Elec       q    Type
REMARK                         _______ _______ _______ _____ _____    ______ ____
ROOT
ATOM      1  C   UNL     1       4.133   4.409  -0.001  0.00  0.00    +0.000 C 
ATOM      2  C   UNL     1       5.310   3.454  -0.140  0.00  0.00    +0.000 C 
ATOM      3  C   UNL     1       5.338   4.481   0.940  0.00  0.00    +0.000 C 
ENDROOT
BRANCH   1  15
ATOM      4  C   UNL     1       0.442   1.890  -2.128  0.00  0.00    +0.000 C 
ATOM      5  C   UNL     1      -0.119   1.022  -1.005  0.00  0.00    +0.000 C 
ATOM      6  C   UNL     1      -0.131  -0.461  -1.470  0.00  0.00    +0.000 C 
ATOM      7  O   UNL     1      -0.697  -1.333  -0.474  0.00  0.00    +0.000 OA
ATOM      8  C   UNL     1       0.053  -1.248   0.747  0.00  0.00    +0.000 C 
ATOM      9  C   UNL     1       0.030   0.182   1.297  0.00  0.00    +0.000 C 
ATOM     10  N   UNL     1       0.614   1.091   0.291  0.00  0.00    +0.000 N 
ATOM     11  C   UNL     1       1.140   2.295   0.743  0.00  0.00    +0.000 A 
ATOM     12  C   UNL     1       0.718   2.917   1.909  0.00  0.00    +0.000 A 
ATOM     13  N   UNL     1       1.313   4.017   2.406  0.00  0.00    +0.000 NA
ATOM     14  N   UNL     1       2.382   4.499   1.749  0.00  0.00    +0.000 NA
ATOM     15  C   UNL     1       2.823   3.878   0.624  0.00  0.00    +0.000 A 
ATOM     16  N   UNL     1       2.202   2.800   0.084  0.00  0.00    +0.000 NA
ENDBRANCH   1  15
BRANCH   1  17
ATOM     17  N   UNL     1       3.980   5.589  -0.893  0.00  0.00    +0.000 N 
ATOM     18  H   UNL     1       3.462   6.364  -0.484  0.00  0.00    +0.000 HD
BRANCH  17  19
ATOM     19  C   UNL     1       3.763   5.484  -2.283  0.00  0.00    +0.000 A 
ATOM     20  C   UNL     1       3.525   6.651  -3.021  0.00  0.00    +0.000 A 
ATOM     21  C   UNL     1       3.411   6.602  -4.410  0.00  0.00    +0.000 A 
ATOM     22  C   UNL     1       3.564   5.371  -5.030  0.00  0.00    +0.000 A 
ATOM     23  N   UNL     1       3.818   4.213  -4.364  0.00  0.00    +0.000 NA
ATOM     24  C   UNL     1       3.917   4.307  -3.017  0.00  0.00    +0.000 A 
BRANCH  22  25
ATOM     25  C   UNL     1       3.458   5.255  -6.514  0.00  0.00    +0.000 C 
ATOM     26  N   UNL     1       3.645   3.991  -7.005  0.00  0.00    +0.000 N 
ATOM     27  O   UNL     1       3.229   6.209  -7.243  0.00  0.00    +0.000 OA
ATOM     28  H   UNL     1       3.842   3.238  -6.355  0.00  0.00    +0.000 HD
ATOM     29  H   UNL     1       3.593   3.825  -7.998  0.00  0.00    +0.000 HD
ENDBRANCH  22  25
ENDBRANCH  17  19
ENDBRANCH   1  17
TORSDOF 4
