REMARK  Name = 
REMARK  5 active torsions:
REMARK  status: ('A' for Active; 'I' for Inactive)
REMARK    1  A    between atoms: C_7  and  C_8
REMARK    2  A    between atoms: N_10  and  C_11
REMARK    3  A    between atoms: C_11  and  C_12
REMARK    4  A    between atoms: C_15  and  C_16
REMARK    5  A    between atoms: C_16  and  N_17
REMARK                            x       y       z     vdW  Elec       q    Type
REMARK                         _______ _______ _______ _____ _____    ______ ____
ROOT
ATOM      1  C   UNL     1      -3.781  -2.562  -1.227  0.00  0.00    +0.000 C 
ATOM      2  O   UNL     1      -4.595  -2.151  -0.393  0.00  0.00    +0.000 OA
ATOM      3  N   UNL     1      -3.118  -3.753  -1.024  0.00  0.00    +0.000 N 
ATOM      4  H   UNL     1      -2.465  -4.107  -1.723  0.00  0.00    +0.000 HD
ENDROOT
BRANCH   1  11
ATOM      5  N   UNL     1      -0.644  -1.617  -7.117  0.00  0.00    +0.000 N 
ATOM      6  C   UNL     1      -1.334  -1.701  -5.948  0.00  0.00    +0.000 A 
ATOM      7  N   UNL     1      -2.186  -0.768  -5.634  0.00  0.00    +0.000 NA
ATOM      8  C   UNL     1      -2.803  -0.970  -4.450  0.00  0.00    +0.000 A 
ATOM      9  N   UNL     1      -3.737  -0.122  -3.942  0.00  0.00    +0.000 N 
ATOM     10  C   UNL     1      -4.168  -0.609  -2.737  0.00  0.00    +0.000 A 
ATOM     11  C   UNL     1      -3.512  -1.805  -2.454  0.00  0.00    +0.000 A 
ATOM     12  C   UNL     1      -2.640  -2.012  -3.563  0.00  0.00    +0.000 A 
ATOM     13  C   UNL     1      -1.690  -3.032  -3.935  0.00  0.00    +0.000 A 
ATOM     14  O   UNL     1      -1.457  -4.011  -3.236  0.00  0.00    +0.000 OA
ATOM     15  N   UNL     1      -1.072  -2.791  -5.147  0.00  0.00    +0.000 N 
ATOM     16  H   UNL     1      -0.738  -0.700  -7.545  0.00  0.00    +0.000 HD
ATOM     17  H   UNL     1       0.311  -1.949  -7.109  0.00  0.00    +0.000 HD
ATOM     18  H   UNL     1      -4.051   0.724  -4.400  0.00  0.00    +0.000 HD
ATOM     19  H   UNL     1      -0.438  -3.502  -5.465  0.00  0.00    +0.000 HD
ENDBRANCH   1  11
BRANCH   3  20
ATOM     20  C   UNL     1      -3.398  -4.518   0.175  0.00  0.00    +0.000 C 
BRANCH  20  21
ATOM     21  C   UNL     1      -2.500  -5.706   0.347  0.00  0.00    +0.000 A 
ATOM     22  C   UNL     1      -1.261  -5.574   0.975  0.00  0.00    +0.000 A 
ATOM     23  C   UNL     1      -0.408  -6.668   1.063  0.00  0.00    +0.000 A 
ATOM     24  C   UNL     1      -0.787  -7.876   0.483  0.00  0.00    +0.000 A 
ATOM     25  N   UNL     1      -2.017  -8.052  -0.067  0.00  0.00    +0.000 NA
ATOM     26  C   UNL     1      -2.842  -6.973  -0.113  0.00  0.00    +0.000 A 
BRANCH  24  27
ATOM     27  C   UNL     1       0.209  -9.023   0.438  0.00  0.00    +0.000 C 
BRANCH  27  28
ATOM     28  N   UNL     1       1.167  -9.099  -0.682  0.00  0.00    +0.000 NA
ATOM     29  C   UNL     1       1.945  -7.891  -0.989  0.00  0.00    +0.000 C 
ATOM     30  C   UNL     1       1.326  -6.927  -2.026  0.00  0.00    +0.000 C 
ATOM     31  O   UNL     1       0.841  -7.604  -3.192  0.00  0.00    +0.000 OA
ATOM     32  C   UNL     1      -0.067  -8.654  -2.836  0.00  0.00    +0.000 C 
ATOM     33  C   UNL     1       0.621  -9.672  -1.919  0.00  0.00    +0.000 C 
ENDBRANCH  27  28
ENDBRANCH  24  27
ENDBRANCH  20  21
ENDBRANCH   3  20
TORSDOF 5
