REMARK  Name = 
REMARK  4 active torsions:
REMARK  status: ('A' for Active; 'I' for Inactive)
REMARK    1  A    between atoms: C_1  and  N_2
REMARK    2  A    between atoms: C_10  and  C_11
REMARK    3  A    between atoms: C_12  and  C_13
REMARK    4  A    between atoms: C_16  and  C_17
REMARK                            x       y       z     vdW  Elec       q    Type
REMARK                         _______ _______ _______ _____ _____    ______ ____
ROOT
ATOM      1  C   UNL     1       2.397   0.546  -0.016  0.00  0.00    +0.000 C 
ATOM      2  N   UNL     1       1.043   0.059  -0.269  0.00  0.00    +0.000 NA
ATOM      3  C   UNL     1       0.553  -0.708   0.902  0.00  0.00    +0.000 C 
ATOM      4  C   UNL     1      -0.904  -1.183   0.730  0.00  0.00    +0.000 C 
ATOM      5  N   UNL     1      -1.747  -0.024   0.447  0.00  0.00    +0.000 N 
ATOM      6  C   UNL     1      -3.054  -0.068   0.854  0.00  0.00    +0.000 A 
ATOM      7  N   UNL     1      -3.996   0.584   0.161  0.00  0.00    +0.000 NA
ATOM      8  C   UNL     1      -5.244   0.571   0.657  0.00  0.00    +0.000 A 
ATOM      9  C   UNL     1      -5.588  -0.039   1.838  0.00  0.00    +0.000 A 
ATOM     10  C   UNL     1      -4.559  -0.662   2.503  0.00  0.00    +0.000 A 
ATOM     11  N   UNL     1      -3.312  -0.700   2.009  0.00  0.00    +0.000 NA
ATOM     12  C   UNL     1      -1.352   0.743  -0.728  0.00  0.00    +0.000 C 
ATOM     13  C   UNL     1       0.122   1.191  -0.542  0.00  0.00    +0.000 C 
ENDROOT
BRANCH  10  14
ATOM     14  C   UNL     1      -4.675  -1.280   3.830  0.00  0.00    +0.000 C 
ATOM     15  C   UNL     1      -5.776  -1.300   4.594  0.00  0.00    +0.000 C 
BRANCH  15  16
ATOM     16  C   UNL     1      -5.865  -1.853   5.948  0.00  0.00    +0.000 A 
ATOM     17  C   UNL     1      -4.797  -1.884   6.838  0.00  0.00    +0.000 A 
ATOM     18  C   UNL     1      -5.015  -2.366   8.131  0.00  0.00    +0.000 A 
ATOM     19  C   UNL     1      -6.289  -2.793   8.509  0.00  0.00    +0.000 A 
ATOM     20  C   UNL     1      -7.293  -2.710   7.558  0.00  0.00    +0.000 A 
ATOM     21  N   UNL     1      -7.112  -2.245   6.296  0.00  0.00    +0.000 NA
BRANCH  19  22
ATOM     22  C   UNL     1      -6.503  -3.298   9.887  0.00  0.00    +0.000 C 
ATOM     23  N   UNL     1      -7.749  -3.723  10.255  0.00  0.00    +0.000 N 
ATOM     24  O   UNL     1      -5.583  -3.337  10.695  0.00  0.00    +0.000 OA
ATOM     25  H   UNL     1      -8.571  -3.746   9.672  0.00  0.00    +0.000 HD
ATOM     26  H   UNL     1      -7.844  -4.065  11.204  0.00  0.00    +0.000 HD
ENDBRANCH  19  22
ENDBRANCH  15  16
ENDBRANCH  10  14
TORSDOF 3
