REMARK  Name = 
REMARK  9 active torsions:
REMARK  status: ('A' for Active; 'I' for Inactive)
REMARK    1  A    between atoms: C_1  and  O_2
REMARK    2  A    between atoms: O_2  and  C_3
REMARK    3  A    between atoms: C_10  and  C_11
REMARK    4  A    between atoms: N_13  and  C_14
REMARK    5  A    between atoms: C_14  and  C_15
REMARK    6  A    between atoms: C_18  and  C_19
REMARK    7  A    between atoms: C_19  and  O_20
REMARK    8  A    between atoms: O_20  and  C_21
REMARK    9  A    between atoms: C_21  and  C_22
REMARK                            x       y       z     vdW  Elec       q    Type
REMARK                         _______ _______ _______ _____ _____    ______ ____
ROOT
ATOM      1  C   UNL     1       3.414  -3.314   0.137  0.00  0.00    +0.000 C 
ENDROOT
BRANCH   1   2
ATOM      2  C   UNL     1       2.402  -3.213   1.253  0.00  0.00    +0.000 A 
ATOM      3  C   UNL     1       1.668  -4.337   1.655  0.00  0.00    +0.000 A 
ATOM      4  C   UNL     1       0.685  -4.233   2.647  0.00  0.00    +0.000 A 
ATOM      5  C   UNL     1       0.400  -3.000   3.248  0.00  0.00    +0.000 A 
ATOM      6  C   UNL     1       1.144  -1.879   2.857  0.00  0.00    +0.000 A 
ATOM      7  C   UNL     1       2.133  -1.984   1.871  0.00  0.00    +0.000 A 
BRANCH   5   8
ATOM      8  C   UNL     1      -0.704  -2.878   4.270  0.00  0.00    +0.000 C 
BRANCH   8   9
ATOM      9  O   UNL     1      -0.415  -3.724   5.376  0.00  0.00    +0.000 OA
BRANCH   9  10
ATOM     10  C   UNL     1      -1.389  -3.605   6.413  0.00  0.00    +0.000 C 
BRANCH  10  11
ATOM     11  C   UNL     1      -1.006  -4.489   7.575  0.00  0.00    +0.000 A 
ATOM     12  C   UNL     1       0.343  -4.724   7.891  0.00  0.00    +0.000 A 
ATOM     13  C   UNL     1       0.699  -5.514   8.986  0.00  0.00    +0.000 A 
ATOM     14  C   UNL     1      -0.292  -6.068   9.791  0.00  0.00    +0.000 A 
ATOM     15  C   UNL     1      -1.628  -5.829   9.492  0.00  0.00    +0.000 A 
ATOM     16  F   UNL     1      -2.581  -6.359  10.269  0.00  0.00    +0.000 F 
ATOM     17  C   UNL     1      -1.993  -5.045   8.400  0.00  0.00    +0.000 A 
ENDBRANCH  10  11
ENDBRANCH   9  10
ENDBRANCH   8   9
ENDBRANCH   5   8
ENDBRANCH   1   2
BRANCH   1  20
ATOM     18  C   UNL     1       3.494  -3.084  -2.323  0.00  0.00    +0.000 C 
ATOM     19  O   UNL     1       4.698  -3.328  -2.346  0.00  0.00    +0.000 OA
ATOM     20  N   UNL     1       2.795  -3.067  -1.145  0.00  0.00    +0.000 N 
ATOM     21  H   UNL     1       1.793  -2.940  -1.156  0.00  0.00    +0.000 HD
BRANCH  18  29
ATOM     22  C   UNL     1       0.188  -2.338  -2.974  0.00  0.00    +0.000 A 
ATOM     23  N   UNL     1      -0.993  -1.933  -3.485  0.00  0.00    +0.000 NA
ATOM     24  C   UNL     1      -1.050  -1.646  -4.788  0.00  0.00    +0.000 A 
ATOM     25  N   UNL     1      -0.058  -1.730  -5.669  0.00  0.00    +0.000 NA
ATOM     26  C   UNL     1       1.102  -2.128  -5.119  0.00  0.00    +0.000 A 
ATOM     27  S   UNL     1       2.475  -2.309  -6.100  0.00  0.00    +0.000 S 
ATOM     28  C   UNL     1       3.430  -2.759  -4.767  0.00  0.00    +0.000 A 
ATOM     29  C   UNL     1       2.741  -2.773  -3.557  0.00  0.00    +0.000 A 
ATOM     30  C   UNL     1       1.336  -2.434  -3.782  0.00  0.00    +0.000 A 
BRANCH  22  32
ATOM     31  C   UNL     1      -0.979  -2.491  -0.938  0.00  0.00    +0.000 C 
ATOM     32  O   UNL     1       0.243  -2.688  -1.641  0.00  0.00    +0.000 OA
ENDBRANCH  22  32
ENDBRANCH  18  29
ENDBRANCH   1  20
TORSDOF 8
