REMARK  Name = 
REMARK  8 active torsions:
REMARK  status: ('A' for Active; 'I' for Inactive)
REMARK    1  A    between atoms: C_1  and  O_2
REMARK    2  A    between atoms: O_2  and  C_3
REMARK    3  A    between atoms: C_5  and  O_6
REMARK    4  A    between atoms: O_6  and  C_7
REMARK    5  A    between atoms: C_7  and  C_8
REMARK    6  A    between atoms: C_16  and  C_17
REMARK    7  A    between atoms: C_17  and  N_18
REMARK    8  A    between atoms: C_19  and  C_21
REMARK                            x       y       z     vdW  Elec       q    Type
REMARK                         _______ _______ _______ _____ _____    ______ ____
ROOT
ATOM      1  C   UNL     1       3.065  -0.384  -1.077  0.00  0.00    +0.000 A 
ATOM      2  C   UNL     1       2.723   0.137  -2.341  0.00  0.00    +0.000 A 
ATOM      3  C   UNL     1       3.441  -0.217  -3.486  0.00  0.00    +0.000 A 
ATOM      4  C   UNL     1       4.560  -1.033  -3.353  0.00  0.00    +0.000 A 
ATOM      5  C   UNL     1       4.877  -1.589  -2.116  0.00  0.00    +0.000 A 
ATOM      6  C   UNL     1       4.115  -1.313  -0.966  0.00  0.00    +0.000 A 
ENDROOT
BRANCH   1   8
ATOM      7  C   UNL     1       2.825   0.293   1.193  0.00  0.00    +0.000 C 
ATOM      8  O   UNL     1       2.224   0.016  -0.068  0.00  0.00    +0.000 OA
ENDBRANCH   1   8
BRANCH   3   9
ATOM      9  O   UNL     1       2.972   0.258  -4.687  0.00  0.00    +0.000 OA
BRANCH   9  10
ATOM     10  C   UNL     1       3.386  -0.508  -5.826  0.00  0.00    +0.000 C 
BRANCH  10  11
ATOM     11  C   UNL     1       2.481  -0.269  -7.000  0.00  0.00    +0.000 A 
ATOM     12  C   UNL     1       2.407   0.969  -7.639  0.00  0.00    +0.000 A 
ATOM     13  C   UNL     1       1.583   1.120  -8.752  0.00  0.00    +0.000 A 
ATOM     14  C   UNL     1       0.860   0.022  -9.190  0.00  0.00    +0.000 A 
ATOM     15  N   UNL     1       0.909  -1.192  -8.603  0.00  0.00    +0.000 NA
ATOM     16  C   UNL     1       1.714  -1.307  -7.523  0.00  0.00    +0.000 A 
ENDBRANCH  10  11
ENDBRANCH   9  10
ENDBRANCH   3   9
BRANCH   6  17
ATOM     17  C   UNL     1       4.460  -2.098   0.274  0.00  0.00    +0.000 C 
BRANCH  17  18
ATOM     18  N   UNL     1       3.336  -2.859   0.760  0.00  0.00    +0.000 N 
ATOM     19  C   UNL     1       3.366  -3.499   1.970  0.00  0.00    +0.000 C 
ATOM     20  O   UNL     1       4.341  -3.438   2.712  0.00  0.00    +0.000 OA
ATOM     21  H   UNL     1       2.572  -3.021   0.112  0.00  0.00    +0.000 HD
BRANCH  19  22
ATOM     22  C   UNL     1       2.133  -4.190   2.369  0.00  0.00    +0.000 A 
ATOM     23  C   UNL     1       1.886  -4.433   3.713  0.00  0.00    +0.000 A 
ATOM     24  S   UNL     1       0.378  -5.174   4.005  0.00  0.00    +0.000 S 
ATOM     25  C   UNL     1       0.026  -5.237   2.341  0.00  0.00    +0.000 A 
ATOM     26  N   UNL     1      -1.142  -5.771   1.894  0.00  0.00    +0.000 NA
ATOM     27  C   UNL     1      -1.268  -5.778   0.611  0.00  0.00    +0.000 A 
ATOM     28  N   UNL     1      -0.329  -5.306  -0.271  0.00  0.00    +0.000 N 
ATOM     29  C   UNL     1       0.855  -4.742   0.131  0.00  0.00    +0.000 A 
ATOM     30  O   UNL     1       1.666  -4.307  -0.681  0.00  0.00    +0.000 OA
ATOM     31  C   UNL     1       1.044  -4.701   1.573  0.00  0.00    +0.000 A 
ATOM     32  H   UNL     1      -0.492  -5.340  -1.268  0.00  0.00    +0.000 HD
ENDBRANCH  19  22
ENDBRANCH  17  18
ENDBRANCH   6  17
TORSDOF 7
