REMARK  Name = 
REMARK  9 active torsions:
REMARK  status: ('A' for Active; 'I' for Inactive)
REMARK    1  A    between atoms: C_1  and  O_2
REMARK    2  A    between atoms: O_2  and  C_3
REMARK    3  A    between atoms: C_10  and  C_11
REMARK    4  A    between atoms: N_13  and  C_14
REMARK    5  A    between atoms: C_14  and  C_15
REMARK    6  A    between atoms: C_18  and  N_19
REMARK    7  A    between atoms: N_19  and  C_20
REMARK    8  A    between atoms: C_20  and  C_21
REMARK    9  A    between atoms: N_25  and  C_26
REMARK                            x       y       z     vdW  Elec       q    Type
REMARK                         _______ _______ _______ _____ _____    ______ ____
ROOT
ATOM      1  C   UNL     1       2.653   2.993  -1.368  0.00  0.00    +0.000 C 
ENDROOT
BRANCH   1   2
ATOM      2  C   UNL     1       1.433   2.379  -2.007  0.00  0.00    +0.000 A 
ATOM      3  C   UNL     1       1.409   1.018  -2.325  0.00  0.00    +0.000 A 
ATOM      4  C   UNL     1       0.240   0.419  -2.816  0.00  0.00    +0.000 A 
ATOM      5  C   UNL     1      -0.924   1.161  -3.048  0.00  0.00    +0.000 A 
ATOM      6  C   UNL     1      -0.867   2.538  -2.790  0.00  0.00    +0.000 A 
ATOM      7  C   UNL     1       0.295   3.143  -2.283  0.00  0.00    +0.000 A 
BRANCH   5   8
ATOM      8  N   UNL     1      -2.153   0.588  -3.379  0.00  0.00    +0.000 N 
ATOM      9  H   UNL     1      -2.711   1.149  -4.016  0.00  0.00    +0.000 HD
BRANCH   8  10
ATOM     10  C   UNL     1      -2.290  -0.858  -3.514  0.00  0.00    +0.000 C 
BRANCH  10  11
ATOM     11  C   UNL     1      -3.744  -1.282  -3.790  0.00  0.00    +0.000 C 
ATOM     12  C   UNL     1      -4.702  -0.850  -2.671  0.00  0.00    +0.000 C 
ATOM     13  C   UNL     1      -6.099  -1.415  -2.912  0.00  0.00    +0.000 C 
ATOM     14  C   UNL     1      -6.062  -2.930  -3.103  0.00  0.00    +0.000 C 
ATOM     15  N   UNL     1      -5.163  -3.301  -4.204  0.00  0.00    +0.000 NA
ATOM     16  C   UNL     1      -5.166  -4.754  -4.390  0.00  0.00    +0.000 C 
ATOM     17  C   UNL     1      -3.796  -2.815  -3.962  0.00  0.00    +0.000 C 
ENDBRANCH  10  11
ENDBRANCH   8  10
ENDBRANCH   5   8
ENDBRANCH   1   2
BRANCH   1  20
ATOM     18  C   UNL     1       4.769   4.070  -2.011  0.00  0.00    +0.000 C 
ATOM     19  O   UNL     1       5.124   4.160  -0.834  0.00  0.00    +0.000 OA
ATOM     20  N   UNL     1       3.569   3.510  -2.349  0.00  0.00    +0.000 N 
ATOM     21  H   UNL     1       3.281   3.470  -3.318  0.00  0.00    +0.000 HD
BRANCH  18  29
ATOM     22  C   UNL     1       4.464   4.019  -5.436  0.00  0.00    +0.000 A 
ATOM     23  N   UNL     1       4.583   4.155  -6.771  0.00  0.00    +0.000 NA
ATOM     24  C   UNL     1       5.670   4.771  -7.243  0.00  0.00    +0.000 A 
ATOM     25  N   UNL     1       6.677   5.276  -6.534  0.00  0.00    +0.000 NA
ATOM     26  C   UNL     1       6.513   5.128  -5.209  0.00  0.00    +0.000 A 
ATOM     27  S   UNL     1       7.703   5.709  -4.147  0.00  0.00    +0.000 S 
ATOM     28  C   UNL     1       6.822   5.184  -2.792  0.00  0.00    +0.000 A 
ATOM     29  C   UNL     1       5.617   4.566  -3.107  0.00  0.00    +0.000 A 
ATOM     30  C   UNL     1       5.439   4.526  -4.560  0.00  0.00    +0.000 A 
BRANCH  22  32
ATOM     31  C   UNL     1       2.728   2.507  -5.876  0.00  0.00    +0.000 C 
ATOM     32  O   UNL     1       3.334   3.401  -4.946  0.00  0.00    +0.000 OA
ENDBRANCH  22  32
ENDBRANCH  18  29
ENDBRANCH   1  20
TORSDOF 7
