REMARK  Name = 
REMARK  5 active torsions:
REMARK  status: ('A' for Active; 'I' for Inactive)
REMARK    1  A    between atoms: C_1  and  C_2
REMARK    2  A    between atoms: C_5  and  C_6
REMARK    3  A    between atoms: C_6  and  C_7
REMARK    4  A    between atoms: C_6  and  N_8
REMARK    5  A    between atoms: C_12  and  C_13
REMARK                            x       y       z     vdW  Elec       q    Type
REMARK                         _______ _______ _______ _____ _____    ______ ____
ROOT
ATOM      1  N   UNL     1       3.734  -1.468   0.258  0.00  0.00    +0.000 N 
ATOM      2  C   UNL     1       4.974  -1.781  -0.295  0.00  0.00    +0.000 A 
ATOM      3  C   UNL     1       5.485  -3.064  -0.099  0.00  0.00    +0.000 A 
ATOM      4  C   UNL     1       6.739  -3.402  -0.612  0.00  0.00    +0.000 A 
ATOM      5  C   UNL     1       7.463  -2.457  -1.336  0.00  0.00    +0.000 A 
ATOM      6  C   UNL     1       6.887  -1.208  -1.483  0.00  0.00    +0.000 A 
ATOM      7  N   UNL     1       5.679  -0.850  -0.971  0.00  0.00    +0.000 NA
ATOM      8  H   UNL     1       3.031  -2.146  -0.042  0.00  0.00    +0.000 HD
ENDROOT
BRANCH   5   9
ATOM      9  C   UNL     1       8.786  -2.835  -1.895  0.00  0.00    +0.000 C 
ATOM     10  N   UNL     1       9.488  -1.922  -2.634  0.00  0.00    +0.000 N 
ATOM     11  O   UNL     1       9.254  -3.960  -1.716  0.00  0.00    +0.000 OA
ATOM     12  H   UNL     1       9.198  -0.982  -2.852  0.00  0.00    +0.000 HD
ATOM     13  H   UNL     1      10.379  -2.232  -3.001  0.00  0.00    +0.000 HD
ENDBRANCH   5   9
BRANCH   1  14
ATOM     14  C   UNL     1       3.204  -0.101   0.039  0.00  0.00    +0.000 C 
ATOM     15  C   UNL     1       3.619   0.799   1.204  0.00  0.00    +0.000 C 
BRANCH  14  20
ATOM     16  C   UNL     1      -2.498  -0.178  -0.693  0.00  0.00    +0.000 C 
ATOM     17  C   UNL     1      -1.028  -0.144  -0.455  0.00  0.00    +0.000 A 
ATOM     18  C   UNL     1      -0.284   1.013  -0.517  0.00  0.00    +0.000 A 
ATOM     19  N   UNL     1       1.049   1.056  -0.342  0.00  0.00    +0.000 NA
ATOM     20  C   UNL     1       1.670  -0.116  -0.082  0.00  0.00    +0.000 A 
ATOM     21  N   UNL     1       1.031  -1.308   0.001  0.00  0.00    +0.000 NA
ATOM     22  C   UNL     1      -0.305  -1.286  -0.179  0.00  0.00    +0.000 A 
ENDBRANCH  14  20
ENDBRANCH   1  14
TORSDOF 3
