REMARK  Name = 
REMARK  5 active torsions:
REMARK  status: ('A' for Active; 'I' for Inactive)
REMARK    1  A    between atoms: C_1  and  C_2
REMARK    2  A    between atoms: C_2  and  C_3
REMARK    3  A    between atoms: C_7  and  C_8
REMARK    4  A    between atoms: C_14  and  N_15
REMARK    5  A    between atoms: C_19  and  C_20
REMARK                            x       y       z     vdW  Elec       q    Type
REMARK                         _______ _______ _______ _____ _____    ______ ____
ROOT
ATOM      1  C   UNL     1       0.790  -0.064  -0.348  0.00  0.00    +0.000 C 
ATOM      2  C   UNL     1       2.261  -0.079   0.007  0.00  0.00    +0.000 C 
ATOM      3  C   UNL     1       3.224   0.637  -0.921  0.00  0.00    +0.000 C 
ATOM      4  C   UNL     1       3.205  -0.862  -0.896  0.00  0.00    +0.000 C 
ENDROOT
BRANCH   4   5
ATOM      5  N   UNL     1       2.716  -1.614  -2.055  0.00  0.00    +0.000 N 
ATOM      6  C   UNL     1       2.575  -3.000  -1.945  0.00  0.00    +0.000 A 
ATOM      7  N   UNL     1       2.442  -3.565  -0.735  0.00  0.00    +0.000 NA
ATOM      8  C   UNL     1       2.361  -4.913  -0.687  0.00  0.00    +0.000 A 
ATOM      9  C   UNL     1       2.389  -5.717  -1.801  0.00  0.00    +0.000 A 
ATOM     10  C   UNL     1       2.531  -5.049  -2.992  0.00  0.00    +0.000 A 
ATOM     11  N   UNL     1       2.623  -3.700  -3.093  0.00  0.00    +0.000 NA
ATOM     12  H   UNL     1       3.084  -1.419  -2.980  0.00  0.00    +0.000 HD
BRANCH   9  13
ATOM     13  C   UNL     1       2.309  -7.177  -1.658  0.00  0.00    +0.000 C 
ATOM     14  N   UNL     1       1.886  -7.910  -2.733  0.00  0.00    +0.000 N 
ATOM     15  O   UNL     1       2.585  -7.721  -0.600  0.00  0.00    +0.000 OA
ATOM     16  H   UNL     1       1.421  -7.513  -3.537  0.00  0.00    +0.000 HD
ATOM     17  H   UNL     1       1.743  -8.899  -2.561  0.00  0.00    +0.000 HD
ENDBRANCH   9  13
ENDBRANCH   4   5
BRANCH   2  18
ATOM     18  C   UNL     1       2.499  -0.042   1.510  0.00  0.00    +0.000 A 
ATOM     19  C   UNL     1       2.688   1.176   2.185  0.00  0.00    +0.000 A 
ATOM     20  C   UNL     1       2.683   1.247   3.579  0.00  0.00    +0.000 A 
ATOM     21  C   UNL     1       2.481   0.093   4.332  0.00  0.00    +0.000 A 
ATOM     22  C   UNL     1       2.316  -1.145   3.698  0.00  0.00    +0.000 A 
ATOM     23  C   UNL     1       2.358  -1.201   2.293  0.00  0.00    +0.000 A 
BRANCH  22  24
ATOM     24  C   UNL     1       2.035  -2.396   4.491  0.00  0.00    +0.000 C 
ATOM     25  F   UNL     1       1.856  -2.165   5.824  0.00  0.00    +0.000 F 
ATOM     26  F   UNL     1       0.903  -3.033   4.076  0.00  0.00    +0.000 F 
ATOM     27  F   UNL     1       3.035  -3.314   4.404  0.00  0.00    +0.000 F 
ENDBRANCH  22  24
ENDBRANCH   2  18
TORSDOF 4
