REMARK  Name = 
REMARK  6 active torsions:
REMARK  status: ('A' for Active; 'I' for Inactive)
REMARK    1  A    between atoms: C_2  and  C_25
REMARK    2  A    between atoms: N_3  and  C_4
REMARK    3  A    between atoms: C_4  and  C_5
REMARK    4  A    between atoms: C_8  and  C_9
REMARK    5  A    between atoms: C_9  and  N_10
REMARK    6  A    between atoms: C_11  and  C_13
REMARK                            x       y       z     vdW  Elec       q    Type
REMARK                         _______ _______ _______ _____ _____    ______ ____
ROOT
ATOM      1  C   UNL     1       3.279  -3.167   1.762  0.00  0.00    +0.000 A 
ATOM      2  C   UNL     1       4.375  -2.757   2.536  0.00  0.00    +0.000 A 
ATOM      3  C   UNL     1       5.231  -3.699   3.119  0.00  0.00    +0.000 A 
ATOM      4  C   UNL     1       5.023  -5.071   2.924  0.00  0.00    +0.000 A 
ATOM      5  C   UNL     1       3.927  -5.480   2.153  0.00  0.00    +0.000 A 
ATOM      6  C   UNL     1       3.072  -4.539   1.569  0.00  0.00    +0.000 A 
ENDROOT
BRANCH   1   7
ATOM      7  C   UNL     1       2.342  -2.154   1.157  0.00  0.00    +0.000 C 
BRANCH   7  10
ATOM      8  O   UNL     1       0.981  -0.346  -0.461  0.00  0.00    +0.000 OA
ATOM      9  C   UNL     1       2.062  -0.779  -0.853  0.00  0.00    +0.000 C 
ATOM     10  N   UNL     1       2.802  -1.684  -0.128  0.00  0.00    +0.000 N 
ATOM     11  H   UNL     1       3.733  -1.931  -0.427  0.00  0.00    +0.000 HD
BRANCH   9  12
ATOM     12  C   UNL     1       2.646  -0.363  -2.102  0.00  0.00    +0.000 A 
ATOM     13  C   UNL     1       3.767  -0.762  -2.805  0.00  0.00    +0.000 A 
ATOM     14  C   UNL     1       3.777   0.032  -3.967  0.00  0.00    +0.000 A 
ATOM     15  N   UNL     1       2.747   0.876  -4.011  0.00  0.00    +0.000 NA
ATOM     16  N   UNL     1       2.073   0.614  -2.876  0.00  0.00    +0.000 N 
ATOM     17  H   UNL     1       1.223   1.134  -2.676  0.00  0.00    +0.000 HD
ENDBRANCH   9  12
ENDBRANCH   7  10
ENDBRANCH   1   7
BRANCH   4  18
ATOM     18  C   UNL     1       5.932  -6.094   3.559  0.00  0.00    +0.000 C 
BRANCH  18  19
ATOM     19  N   UNL     1       5.452  -6.491   4.859  0.00  0.00    +0.000 N 
ATOM     20  C   UNL     1       6.164  -7.361   5.646  0.00  0.00    +0.000 C 
ATOM     21  O   UNL     1       7.263  -7.794   5.307  0.00  0.00    +0.000 OA
ATOM     22  H   UNL     1       4.468  -6.336   5.053  0.00  0.00    +0.000 HD
BRANCH  20  23
ATOM     23  C   UNL     1       5.574  -7.705   6.947  0.00  0.00    +0.000 A 
ATOM     24  C   UNL     1       6.390  -8.150   7.979  0.00  0.00    +0.000 A 
ATOM     25  S   UNL     1       5.552  -8.454   9.434  0.00  0.00    +0.000 S 
ATOM     26  C   UNL     1       4.060  -8.056   8.720  0.00  0.00    +0.000 A 
ATOM     27  N   UNL     1       2.902  -8.134   9.430  0.00  0.00    +0.000 NA
ATOM     28  C   UNL     1       1.842  -7.837   8.756  0.00  0.00    +0.000 A 
ATOM     29  N   UNL     1       1.835  -7.461   7.438  0.00  0.00    +0.000 N 
ATOM     30  C   UNL     1       2.981  -7.340   6.690  0.00  0.00    +0.000 A 
ATOM     31  O   UNL     1       2.944  -6.961   5.524  0.00  0.00    +0.000 OA
ATOM     32  C   UNL     1       4.202  -7.677   7.397  0.00  0.00    +0.000 A 
ATOM     33  H   UNL     1       0.970  -7.232   6.970  0.00  0.00    +0.000 HD
ENDBRANCH  20  23
ENDBRANCH  18  19
ENDBRANCH   4  18
TORSDOF 6
