REMARK  Name = 
REMARK  9 active torsions:
REMARK  status: ('A' for Active; 'I' for Inactive)
REMARK    1  A    between atoms: C_2  and  C_21
REMARK    2  A    between atoms: N_3  and  CA_4
REMARK    3  A    between atoms: CA_4  and  C_5
REMARK    4  A    between atoms: CA_4  and  C_7
REMARK    5  A    between atoms: C_5  and  O_6
REMARK    6  A    between atoms: C_10  and  C_11
REMARK    7  A    between atoms: C_11  and  N_12
REMARK    8  A    between atoms: N_12  and  C_13
REMARK    9  A    between atoms: C_13  and  C_14
REMARK                            x       y       z     vdW  Elec       q    Type
REMARK                         _______ _______ _______ _____ _____    ______ ____
ROOT
ATOM      1  CA  UNL     1       2.325  -1.690   1.845  0.00  0.00    +0.000 C 
ENDROOT
BRANCH   1   2
ATOM      2  C   UNL     1       3.195  -2.438   2.838  0.00  0.00    +0.000 A 
ATOM      3  C   UNL     1       4.084  -1.718   3.648  0.00  0.00    +0.000 A 
ATOM      4  C   UNL     1       4.913  -2.370   4.567  0.00  0.00    +0.000 A 
ATOM      5  C   UNL     1       4.859  -3.762   4.722  0.00  0.00    +0.000 A 
ATOM      6  C   UNL     1       3.971  -4.485   3.913  0.00  0.00    +0.000 A 
ATOM      7  C   UNL     1       3.143  -3.832   2.988  0.00  0.00    +0.000 A 
BRANCH   5   8
ATOM      8  C   UNL     1       5.782  -4.492   5.680  0.00  0.00    +0.000 C 
BRANCH   8   9
ATOM      9  N   UNL     1       6.081  -3.702   6.875  0.00  0.00    +0.000 NA
ATOM     10  H   UNL     1       5.208  -3.524   7.373  0.00  0.00    +0.000 HD
BRANCH   9  11
ATOM     11  C   UNL     1       6.983  -4.410   7.793  0.00  0.00    +0.000 C 
BRANCH  11  12
ATOM     12  C   UNL     1       7.279  -3.517   9.011  0.00  0.00    +0.000 C 
ATOM     13  C   UNL     1       8.174  -4.172  10.049  0.00  0.00    +0.000 C 
ATOM     14  C   UNL     1       7.956  -3.290  11.267  0.00  0.00    +0.000 C 
ATOM     15  C   UNL     1       6.537  -2.757  11.111  0.00  0.00    +0.000 C 
ATOM     16  N   UNL     1       6.071  -3.200   9.794  0.00  0.00    +0.000 NA
ATOM     17  H   UNL     1       5.552  -2.455   9.330  0.00  0.00    +0.000 HD
ENDBRANCH  11  12
ENDBRANCH   9  11
ENDBRANCH   8   9
ENDBRANCH   5   8
ENDBRANCH   1   2
BRANCH   1  20
ATOM     18  O   UNL     1       0.631   0.469   2.547  0.00  0.00    +0.000 OA
ATOM     19  C   UNL     1       0.165  -0.666   2.536  0.00  0.00    +0.000 C 
ATOM     20  N   UNL     1       0.923  -1.767   2.230  0.00  0.00    +0.000 N 
ATOM     21  H   UNL     1       0.480  -2.680   2.169  0.00  0.00    +0.000 HD
BRANCH  19  22
ATOM     22  C   UNL     1      -1.248  -0.907   2.843  0.00  0.00    +0.000 A 
ATOM     23  C   UNL     1      -1.949  -0.003   3.628  0.00  0.00    +0.000 A 
ATOM     24  S   UNL     1      -3.593  -0.410   3.831  0.00  0.00    +0.000 S 
ATOM     25  C   UNL     1      -3.431  -1.786   2.842  0.00  0.00    +0.000 A 
ATOM     26  N   UNL     1      -4.504  -2.570   2.552  0.00  0.00    +0.000 NA
ATOM     27  C   UNL     1      -4.246  -3.551   1.752  0.00  0.00    +0.000 A 
ATOM     28  N   UNL     1      -3.008  -3.834   1.234  0.00  0.00    +0.000 N 
ATOM     29  C   UNL     1      -1.883  -3.119   1.567  0.00  0.00    +0.000 A 
ATOM     30  O   UNL     1      -0.766  -3.478   1.205  0.00  0.00    +0.000 OA
ATOM     31  C   UNL     1      -2.131  -1.961   2.406  0.00  0.00    +0.000 A 
ATOM     32  H   UNL     1      -2.869  -4.643   0.647  0.00  0.00    +0.000 HD
ENDBRANCH  19  22
ENDBRANCH   1  20
BRANCH   1  33
ATOM     33  C   UNL     1       2.504  -2.181   0.390  0.00  0.00    +0.000 C 
BRANCH  33  34
ATOM     34  O   UNL     1       1.674  -1.449  -0.517  0.00  0.00    +0.000 OA
ATOM     35  H   UNL     1       0.888  -1.168  -0.014  0.00  0.00    +0.000 HD
ENDBRANCH  33  34
ENDBRANCH   1  33
TORSDOF 9
