REMARK  Name = 
REMARK  5 active torsions:
REMARK  status: ('A' for Active; 'I' for Inactive)
REMARK    1  A    between atoms: N_1  and  C_2
REMARK    2  A    between atoms: C_2  and  C_3
REMARK    3  A    between atoms: C_6  and  O_7
REMARK    4  A    between atoms: O_7  and  C_8
REMARK    5  A    between atoms: C_8  and  C_9
REMARK                            x       y       z     vdW  Elec       q    Type
REMARK                         _______ _______ _______ _____ _____    ______ ____
ROOT
ATOM      1  C   UNL     1       3.012   0.522  -1.310  0.00  0.00    +0.000 A 
ATOM      2  C   UNL     1       2.873   1.855  -1.682  0.00  0.00    +0.000 A 
ATOM      3  C   UNL     1       3.342   2.328  -2.920  0.00  0.00    +0.000 A 
ATOM      4  C   UNL     1       3.982   1.428  -3.794  0.00  0.00    +0.000 A 
ATOM      5  C   UNL     1       4.110   0.098  -3.417  0.00  0.00    +0.000 A 
ATOM      6  C   UNL     1       3.651  -0.365  -2.203  0.00  0.00    +0.000 A 
ENDROOT
BRANCH   1   7
ATOM      7  C   UNL     1       2.501   0.024   0.015  0.00  0.00    +0.000 C 
BRANCH   7   8
ATOM      8  N   UNL     1       1.063   0.224   0.127  0.00  0.00    +0.000 NA
ATOM      9  H   UNL     1       0.736  -0.159   1.011  0.00  0.00    +0.000 HD
ATOM     10  H   UNL     1       0.599  -0.304  -0.611  0.00  0.00    +0.000 HD
ENDBRANCH   7   8
ENDBRANCH   1   7
BRANCH   4  11
ATOM     11  O   UNL     1       4.462   1.852  -5.013  0.00  0.00    +0.000 OA
BRANCH  11  12
ATOM     12  C   UNL     1       5.579   1.062  -5.494  0.00  0.00    +0.000 C 
BRANCH  12  13
ATOM     13  C   UNL     1       6.459   1.875  -6.404  0.00  0.00    +0.000 A 
ATOM     14  C   UNL     1       6.582   3.257  -6.258  0.00  0.00    +0.000 A 
ATOM     15  C   UNL     1       7.430   3.942  -7.110  0.00  0.00    +0.000 A 
ATOM     16  N   UNL     1       8.169   3.351  -8.072  0.00  0.00    +0.000 NA
ATOM     17  C   UNL     1       8.052   2.012  -8.186  0.00  0.00    +0.000 A 
ATOM     18  C   UNL     1       7.230   1.240  -7.385  0.00  0.00    +0.000 A 
ENDBRANCH  12  13
ENDBRANCH  11  12
ENDBRANCH   4  11
TORSDOF 5
