REMARK  Name = 
REMARK  8 active torsions:
REMARK  status: ('A' for Active; 'I' for Inactive)
REMARK    1  A    between atoms: C_1  and  C_2
REMARK    2  A    between atoms: C_2  and  N_3
REMARK    3  A    between atoms: C_2  and  C_25
REMARK    4  A    between atoms: N_3  and  C_4
REMARK    5  A    between atoms: C_4  and  C_5
REMARK    6  A    between atoms: C_8  and  C_9
REMARK    7  A    between atoms: C_9  and  N_10
REMARK    8  A    between atoms: C_11  and  C_13
REMARK                            x       y       z     vdW  Elec       q    Type
REMARK                         _______ _______ _______ _____ _____    ______ ____
ROOT
ATOM      1  C   UNL     1      -1.027   1.155   0.104  0.00  0.00    +0.000 A 
ATOM      2  C   UNL     1      -1.738   0.078  -0.427  0.00  0.00    +0.000 A 
ATOM      3  C   UNL     1      -3.122   0.180  -0.566  0.00  0.00    +0.000 A 
ATOM      4  C   UNL     1      -3.772   1.352  -0.178  0.00  0.00    +0.000 A 
ATOM      5  C   UNL     1      -2.992   2.350   0.395  0.00  0.00    +0.000 A 
ATOM      6  N   UNL     1      -1.648   2.282   0.533  0.00  0.00    +0.000 NA
ENDROOT
BRANCH   1   7
ATOM      7  C   UNL     1       0.491   1.172   0.026  0.00  0.00    +0.000 C 
BRANCH   7   8
ATOM      8  N   UNL     1       1.195   1.306   1.312  0.00  0.00    +0.000 NA
ATOM      9  H   UNL     1       0.926   0.526   1.909  0.00  0.00    +0.000 HD
BRANCH   8  11
ATOM     10  C   UNL     1       3.168   2.464   0.279  0.00  0.00    +0.000 C 
ATOM     11  C   UNL     1       2.662   1.296   1.140  0.00  0.00    +0.000 C 
BRANCH  11  12
ATOM     12  C   UNL     1       3.408   1.285   2.470  0.00  0.00    +0.000 A 
ATOM     13  C   UNL     1       4.710   0.765   2.526  0.00  0.00    +0.000 A 
ATOM     14  C   UNL     1       5.376   0.733   3.743  0.00  0.00    +0.000 A 
ATOM     15  N   UNL     1       4.846   1.179   4.899  0.00  0.00    +0.000 NA
ATOM     16  C   UNL     1       3.604   1.705   4.826  0.00  0.00    +0.000 A 
ATOM     17  C   UNL     1       2.863   1.791   3.655  0.00  0.00    +0.000 A 
ENDBRANCH  11  12
ENDBRANCH   8  11
ENDBRANCH   7   8
ENDBRANCH   1   7
BRANCH   4  18
ATOM     18  C   UNL     1      -5.262   1.504  -0.280  0.00  0.00    +0.000 C 
BRANCH  18  19
ATOM     19  N   UNL     1      -5.874   1.017   0.926  0.00  0.00    +0.000 N 
ATOM     20  C   UNL     1      -7.227   0.926   1.096  0.00  0.00    +0.000 C 
ATOM     21  O   UNL     1      -8.022   1.216   0.206  0.00  0.00    +0.000 OA
ATOM     22  H   UNL     1      -5.276   0.993   1.745  0.00  0.00    +0.000 HD
BRANCH  20  23
ATOM     23  C   UNL     1      -7.665   0.396   2.394  0.00  0.00    +0.000 A 
ATOM     24  C   UNL     1      -8.927  -0.167   2.522  0.00  0.00    +0.000 A 
ATOM     25  S   UNL     1      -9.227  -0.825   4.067  0.00  0.00    +0.000 S 
ATOM     26  C   UNL     1      -7.702  -0.332   4.637  0.00  0.00    +0.000 A 
ATOM     27  N   UNL     1      -7.312  -0.590   5.915  0.00  0.00    +0.000 NA
ATOM     28  C   UNL     1      -6.140  -0.140   6.219  0.00  0.00    +0.000 A 
ATOM     29  N   UNL     1      -5.322   0.549   5.362  0.00  0.00    +0.000 N 
ATOM     30  C   UNL     1      -5.666   0.820   4.061  0.00  0.00    +0.000 A 
ATOM     31  O   UNL     1      -4.905   1.422   3.313  0.00  0.00    +0.000 OA
ATOM     32  C   UNL     1      -6.973   0.325   3.663  0.00  0.00    +0.000 A 
ATOM     33  H   UNL     1      -4.414   0.878   5.662  0.00  0.00    +0.000 HD
ENDBRANCH  20  23
ENDBRANCH  18  19
ENDBRANCH   4  18
TORSDOF 7
