REMARK  Name = 
REMARK  10 active torsions:
REMARK  status: ('A' for Active; 'I' for Inactive)
REMARK    1  A    between atoms: C_1  and  C_2
REMARK    2  A    between atoms: C_2  and  C_3
REMARK    3  A    between atoms: C_2  and  C_4
REMARK    4  A    between atoms: C_2  and  C_5
REMARK    5  A    between atoms: C_7  and  C_8
REMARK    6  A    between atoms: C_13  and  O_14
REMARK    7  A    between atoms: O_14  and  C_15
REMARK    8  A    between atoms: C_15  and  C_16
REMARK    9  A    between atoms: C_19  and  C_20
REMARK   10  A    between atoms: C_20  and  N_21
REMARK                            x       y       z     vdW  Elec       q    Type
REMARK                         _______ _______ _______ _____ _____    ______ ____
ROOT
ATOM      1  C   UNL     1       3.064   1.123  -0.859  0.00  0.00    +0.000 A 
ATOM      2  N   UNL     1       2.584   2.341  -0.453  0.00  0.00    +0.000 NA
ATOM      3  C   UNL     1       2.929   3.446  -1.170  0.00  0.00    +0.000 A 
ATOM      4  C   UNL     1       3.734   3.407  -2.293  0.00  0.00    +0.000 A 
ATOM      5  C   UNL     1       4.224   2.173  -2.700  0.00  0.00    +0.000 A 
ATOM      6  C   UNL     1       3.921   1.017  -1.972  0.00  0.00    +0.000 A 
ENDROOT
BRANCH   3   7
ATOM      7  C   UNL     1       2.384   4.761  -0.705  0.00  0.00    +0.000 C 
ATOM      8  N   UNL     1       1.584   4.714   0.405  0.00  0.00    +0.000 N 
ATOM      9  O   UNL     1       2.632   5.818  -1.273  0.00  0.00    +0.000 OA
ATOM     10  H   UNL     1       1.395   3.821   0.845  0.00  0.00    +0.000 HD
ATOM     11  H   UNL     1       1.177   5.562   0.762  0.00  0.00    +0.000 HD
ENDBRANCH   3   7
BRANCH   1  13
ATOM     12  C   UNL     1       1.027  -0.097  -0.073  0.00  0.00    +0.000 C 
ATOM     13  C   UNL     1       2.570  -0.066  -0.008  0.00  0.00    +0.000 C 
ATOM     14  C   UNL     1       3.010   0.159   1.456  0.00  0.00    +0.000 C 
ATOM     15  C   UNL     1       3.052  -1.478  -0.405  0.00  0.00    +0.000 C 
ENDBRANCH   1  13
BRANCH   6  16
ATOM     16  O   UNL     1       4.361  -0.215  -2.346  0.00  0.00    +0.000 OA
BRANCH  16  17
ATOM     17  C   UNL     1       5.604  -0.351  -3.035  0.00  0.00    +0.000 C 
BRANCH  17  18
ATOM     18  C   UNL     1       5.386  -0.981  -4.383  0.00  0.00    +0.000 A 
ATOM     19  C   UNL     1       6.263  -0.741  -5.442  0.00  0.00    +0.000 A 
ATOM     20  C   UNL     1       6.053  -1.362  -6.673  0.00  0.00    +0.000 A 
ATOM     21  C   UNL     1       4.972  -2.229  -6.819  0.00  0.00    +0.000 A 
ATOM     22  N   UNL     1       4.116  -2.489  -5.801  0.00  0.00    +0.000 NA
ATOM     23  C   UNL     1       4.342  -1.870  -4.619  0.00  0.00    +0.000 A 
BRANCH  21  24
ATOM     24  C   UNL     1       4.731  -2.966  -8.120  0.00  0.00    +0.000 C 
BRANCH  24  25
ATOM     25  N   UNL     1       4.493  -2.088  -9.270  0.00  0.00    +0.000 NA
ATOM     26  H   UNL     1       3.631  -1.572  -9.093  0.00  0.00    +0.000 HD
ATOM     27  H   UNL     1       4.299  -2.674 -10.080  0.00  0.00    +0.000 HD
ENDBRANCH  24  25
ENDBRANCH  21  24
ENDBRANCH  17  18
ENDBRANCH  16  17
ENDBRANCH   6  16
TORSDOF 7
