REMARK  Name = 
REMARK  7 active torsions:
REMARK  status: ('A' for Active; 'I' for Inactive)
REMARK    1  A    between atoms: N_1  and  C_2
REMARK    2  A    between atoms: C_2  and  C_3
REMARK    3  A    between atoms: C_6  and  C_7
REMARK    4  A    between atoms: C_7  and  C_8
REMARK    5  A    between atoms: C_8  and  N_9
REMARK    6  A    between atoms: C_12  and  C_13
REMARK    7  A    between atoms: C_13  and  O_14
REMARK                            x       y       z     vdW  Elec       q    Type
REMARK                         _______ _______ _______ _____ _____    ______ ____
ROOT
ATOM      1  C   UNL     1       3.921  -3.466  -4.025  0.00  0.00    +0.000 C 
ENDROOT
BRANCH   1   5
ATOM      2  C   UNL     1       3.320  -0.627  -0.958  0.00  0.00    +0.000 A 
ATOM      3  C   UNL     1       2.417  -0.823  -1.981  0.00  0.00    +0.000 A 
ATOM      4  N   UNL     1       2.588  -1.718  -2.974  0.00  0.00    +0.000 NA
ATOM      5  C   UNL     1       3.713  -2.458  -2.928  0.00  0.00    +0.000 A 
ATOM      6  N   UNL     1       4.663  -2.346  -1.982  0.00  0.00    +0.000 NA
ATOM      7  C   UNL     1       4.439  -1.431  -1.017  0.00  0.00    +0.000 A 
BRANCH   2   8
ATOM      8  C   UNL     1       3.123   0.407   0.101  0.00  0.00    +0.000 C 
BRANCH   8   9
ATOM      9  N   UNL     1       1.884   0.204   0.841  0.00  0.00    +0.000 NA
ATOM     10  H   UNL     1       1.811   0.909   1.574  0.00  0.00    +0.000 HD
ATOM     11  H   UNL     1       1.917  -0.697   1.318  0.00  0.00    +0.000 HD
ENDBRANCH   8   9
ENDBRANCH   2   8
ENDBRANCH   1   5
BRANCH   1  12
ATOM     12  C   UNL     1       4.652  -2.828  -5.211  0.00  0.00    +0.000 C 
BRANCH  12  13
ATOM     13  N   UNL     1       4.879  -3.755  -6.349  0.00  0.00    +0.000 NA
ATOM     14  C   UNL     1       3.603  -4.189  -6.946  0.00  0.00    +0.000 C 
ATOM     15  C   UNL     1       3.810  -5.096  -8.159  0.00  0.00    +0.000 C 
ATOM     16  C   UNL     1       4.688  -4.435  -9.227  0.00  0.00    +0.000 C 
ATOM     17  C   UNL     1       5.998  -3.992  -8.568  0.00  0.00    +0.000 C 
ATOM     18  C   UNL     1       5.757  -3.109  -7.340  0.00  0.00    +0.000 C 
BRANCH  16  19
ATOM     19  C   UNL     1       3.981  -3.264  -9.925  0.00  0.00    +0.000 C 
BRANCH  19  20
ATOM     20  O   UNL     1       2.778  -3.696 -10.549  0.00  0.00    +0.000 OA
ATOM     21  H   UNL     1       3.012  -4.389 -11.186  0.00  0.00    +0.000 HD
ENDBRANCH  19  20
ENDBRANCH  16  19
ENDBRANCH  12  13
ENDBRANCH   1  12
TORSDOF 7
