REMARK  Name = 
REMARK  6 active torsions:
REMARK  status: ('A' for Active; 'I' for Inactive)
REMARK    1  A    between atoms: N_1  and  C_2
REMARK    2  A    between atoms: C_2  and  C_3
REMARK    3  A    between atoms: C_3  and  O_4
REMARK    4  A    between atoms: O_4  and  C_5
REMARK    5  A    between atoms: C_8  and  C_9
REMARK    6  A    between atoms: C_9  and  C_10
REMARK                            x       y       z     vdW  Elec       q    Type
REMARK                         _______ _______ _______ _____ _____    ______ ____
ROOT
ATOM      1  C   UNL     1       5.131   1.557  -2.404  0.00  0.00    +0.000 A 
ATOM      2  C   UNL     1       4.796   2.819  -2.891  0.00  0.00    +0.000 A 
ATOM      3  C   UNL     1       5.545   3.401  -3.912  0.00  0.00    +0.000 A 
ATOM      4  C   UNL     1       6.634   2.720  -4.483  0.00  0.00    +0.000 A 
ATOM      5  C   UNL     1       6.972   1.457  -3.986  0.00  0.00    +0.000 A 
ATOM      6  C   UNL     1       6.215   0.880  -2.963  0.00  0.00    +0.000 A 
ENDROOT
BRANCH   1   7
ATOM      7  O   UNL     1       4.472   0.877  -1.416  0.00  0.00    +0.000 OA
BRANCH   7   8
ATOM      8  C   UNL     1       3.461   1.601  -0.714  0.00  0.00    +0.000 C 
BRANCH   8   9
ATOM      9  C   UNL     1       2.991   0.750   0.469  0.00  0.00    +0.000 C 
BRANCH   9  10
ATOM     10  N   UNL     1       1.934   1.411   1.234  0.00  0.00    +0.000 NA
ATOM     11  H   UNL     1       1.669   0.815   2.017  0.00  0.00    +0.000 HD
ATOM     12  H   UNL     1       1.100   1.502   0.655  0.00  0.00    +0.000 HD
ENDBRANCH   9  10
ENDBRANCH   8   9
ENDBRANCH   7   8
ENDBRANCH   1   7
BRANCH   4  13
ATOM     13  C   UNL     1       7.388   3.331  -5.626  0.00  0.00    +0.000 C 
BRANCH  13  14
ATOM     14  C   UNL     1       8.574   4.072  -5.094  0.00  0.00    +0.000 A 
ATOM     15  C   UNL     1       8.574   5.236  -4.345  0.00  0.00    +0.000 A 
ATOM     16  N   UNL     1       9.862   5.692  -4.259  0.00  0.00    +0.000 N 
ATOM     17  C   UNL     1      10.670   4.952  -5.089  0.00  0.00    +0.000 A 
ATOM     18  C   UNL     1      11.965   5.199  -5.554  0.00  0.00    +0.000 A 
ATOM     19  C   UNL     1      12.554   4.221  -6.362  0.00  0.00    +0.000 A 
ATOM     20  C   UNL     1      11.901   3.016  -6.611  0.00  0.00    +0.000 A 
ATOM     21 CL   UNL     1      12.695   1.794  -7.529  0.00  0.00    +0.000 Cl
ATOM     22  C   UNL     1      10.597   2.795  -6.163  0.00  0.00    +0.000 A 
ATOM     23  C   UNL     1       9.940   3.820  -5.453  0.00  0.00    +0.000 A 
ATOM     24  H   UNL     1      10.158   6.514  -3.750  0.00  0.00    +0.000 HD
ENDBRANCH  13  14
ENDBRANCH   4  13
TORSDOF 6
