REMARK  Name = 
REMARK  5 active torsions:
REMARK  status: ('A' for Active; 'I' for Inactive)
REMARK    1  A    between atoms: N_1  and  C_2
REMARK    2  A    between atoms: C_2  and  C_3
REMARK    3  A    between atoms: C_5  and  C_6
REMARK    4  A    between atoms: C_6  and  N_7
REMARK    5  A    between atoms: C_14  and  C_15
REMARK                            x       y       z     vdW  Elec       q    Type
REMARK                         _______ _______ _______ _____ _____    ______ ____
ROOT
ATOM      1  N   UNL     1       2.072  -4.695  -3.391  0.00  0.00    +0.000 N 
ATOM      2  C   UNL     1       1.153  -4.040  -4.175  0.00  0.00    +0.000 A 
ATOM      3  C   UNL     1       1.444  -4.305  -5.491  0.00  0.00    +0.000 A 
ATOM      4  C   UNL     1       2.597  -5.130  -5.517  0.00  0.00    +0.000 A 
ATOM      5  C   UNL     1       3.339  -5.706  -6.563  0.00  0.00    +0.000 A 
ATOM      6  C   UNL     1       4.469  -6.463  -6.261  0.00  0.00    +0.000 A 
ATOM      7  F   UNL     1       5.155  -6.984  -7.292  0.00  0.00    +0.000 F 
ATOM      8  C   UNL     1       4.879  -6.671  -4.943  0.00  0.00    +0.000 A 
ATOM      9  C   UNL     1       4.130  -6.122  -3.883  0.00  0.00    +0.000 A 
ATOM     10  C   UNL     1       2.990  -5.352  -4.191  0.00  0.00    +0.000 A 
ENDROOT
BRANCH   8  11
ATOM     11  C   UNL     1       6.100  -7.457  -4.611  0.00  0.00    +0.000 C 
ATOM     12  N   UNL     1       6.845  -7.959  -5.640  0.00  0.00    +0.000 N 
ATOM     13  O   UNL     1       6.440  -7.645  -3.450  0.00  0.00    +0.000 OA
ATOM     14  H   UNL     1       6.605  -7.827  -6.615  0.00  0.00    +0.000 HD
ATOM     15  H   UNL     1       7.683  -8.480  -5.418  0.00  0.00    +0.000 HD
ENDBRANCH   8  11
BRANCH   1  16
ATOM     16  C   UNL     1       1.995  -4.730  -1.937  0.00  0.00    +0.000 C 
BRANCH  16  19
ATOM     17  C   UNL     1       3.047  -1.456  -0.434  0.00  0.00    +0.000 C 
ATOM     18  C   UNL     1       2.416  -2.213  -1.591  0.00  0.00    +0.000 C 
ATOM     19  C   UNL     1       2.805  -3.639  -1.246  0.00  0.00    +0.000 C 
ATOM     20  C   UNL     1       2.617  -3.637   0.267  0.00  0.00    +0.000 C 
ATOM     21  O   UNL     1       2.853  -2.293   0.726  0.00  0.00    +0.000 OA
BRANCH  17  22
ATOM     22  C   UNL     1       2.505  -0.038  -0.203  0.00  0.00    +0.000 C 
BRANCH  22  23
ATOM     23  N   UNL     1       1.067  -0.004   0.081  0.00  0.00    +0.000 NA
ATOM     24  H   UNL     1       0.805   0.944   0.350  0.00  0.00    +0.000 HD
ATOM     25  H   UNL     1       0.903  -0.587   0.905  0.00  0.00    +0.000 HD
ENDBRANCH  22  23
ENDBRANCH  17  22
ENDBRANCH  16  19
ENDBRANCH   1  16
TORSDOF 5
