REMARK  Name = 
REMARK  5 active torsions:
REMARK  status: ('A' for Active; 'I' for Inactive)
REMARK    1  A    between atoms: N_1  and  C_2
REMARK    2  A    between atoms: C_2  and  C_3
REMARK    3  A    between atoms: C_3  and  C_4
REMARK    4  A    between atoms: C_8  and  C_9
REMARK    5  A    between atoms: C_9  and  C_10
REMARK                            x       y       z     vdW  Elec       q    Type
REMARK                         _______ _______ _______ _____ _____    ______ ____
ROOT
ATOM      1  C   UNL     1       4.453  -1.180   0.873  0.00  0.00    +0.000 A 
ATOM      2  C   UNL     1       5.140   0.034   0.799  0.00  0.00    +0.000 A 
ATOM      3  C   UNL     1       6.537   0.050   0.810  0.00  0.00    +0.000 A 
ATOM      4  C   UNL     1       7.258  -1.140   0.932  0.00  0.00    +0.000 A 
ATOM      5  C   UNL     1       6.585  -2.363   1.079  0.00  0.00    +0.000 A 
ATOM      6  C   UNL     1       5.181  -2.373   1.022  0.00  0.00    +0.000 A 
ENDROOT
BRANCH   1   7
ATOM      7  C   UNL     1       2.942  -1.217   0.796  0.00  0.00    +0.000 C 
BRANCH   7   8
ATOM      8  C   UNL     1       2.277  -1.194   2.176  0.00  0.00    +0.000 C 
BRANCH   8   9
ATOM      9  N   UNL     1       0.819  -1.243   2.058  0.00  0.00    +0.000 NA
ATOM     10  H   UNL     1       0.406  -1.243   2.989  0.00  0.00    +0.000 HD
ATOM     11  H   UNL     1       0.543  -2.123   1.625  0.00  0.00    +0.000 HD
ENDBRANCH   8   9
ENDBRANCH   7   8
ENDBRANCH   1   7
BRANCH   5  12
ATOM     12  C   UNL     1       7.344  -3.647   1.355  0.00  0.00    +0.000 C 
BRANCH  12  13
ATOM     13  C   UNL     1       7.614  -4.298   0.048  0.00  0.00    +0.000 A 
ATOM     14  N   UNL     1       6.754  -5.200  -0.454  0.00  0.00    +0.000 NA
ATOM     15  O   UNL     1       7.280  -5.585  -1.676  0.00  0.00    +0.000 OA
ATOM     16  C   UNL     1       8.456  -4.942  -1.886  0.00  0.00    +0.000 A 
ATOM     17  C   UNL     1       9.275  -5.038  -2.995  0.00  0.00    +0.000 A 
ATOM     18  N   UNL     1      10.427  -4.317  -3.007  0.00  0.00    +0.000 NA
ATOM     19  C   UNL     1      10.733  -3.549  -1.934  0.00  0.00    +0.000 A 
ATOM     20  C   UNL     1       9.948  -3.420  -0.794  0.00  0.00    +0.000 A 
ATOM     21  C   UNL     1       8.745  -4.139  -0.796  0.00  0.00    +0.000 A 
ENDBRANCH  12  13
ENDBRANCH   5  12
TORSDOF 5
