REMARK  Name = 
REMARK  7 active torsions:
REMARK  status: ('A' for Active; 'I' for Inactive)
REMARK    1  A    between atoms: N_1  and  C_2
REMARK    2  A    between atoms: C_2  and  C_3
REMARK    3  A    between atoms: C_6  and  C_7
REMARK    4  A    between atoms: C_7  and  C_8
REMARK    5  A    between atoms: C_11  and  C_12
REMARK    6  A    between atoms: C_12  and  N_13
REMARK    7  A    between atoms: C_14  and  C_16
REMARK                            x       y       z     vdW  Elec       q    Type
REMARK                         _______ _______ _______ _____ _____    ______ ____
ROOT
ATOM      1  C   UNL     1       5.526   5.112   0.609  0.00  0.00    +0.000 A 
ATOM      2  C   UNL     1       4.536   5.942   1.143  0.00  0.00    +0.000 A 
ATOM      3  C   UNL     1       4.752   7.313   1.293  0.00  0.00    +0.000 A 
ATOM      4  C   UNL     1       5.975   7.883   0.919  0.00  0.00    +0.000 A 
ATOM      5  C   UNL     1       6.986   7.045   0.429  0.00  0.00    +0.000 A 
ATOM      6  C   UNL     1       6.760   5.674   0.261  0.00  0.00    +0.000 A 
ENDROOT
BRANCH   1   7
ATOM      7  C   UNL     1       5.284   3.628   0.479  0.00  0.00    +0.000 C 
BRANCH   7  11
ATOM      8  C   UNL     1       2.866   1.468  -0.485  0.00  0.00    +0.000 C 
ATOM      9  C   UNL     1       2.299   2.573  -1.374  0.00  0.00    +0.000 C 
ATOM     10  C   UNL     1       3.265   3.746  -1.191  0.00  0.00    +0.000 C 
ATOM     11  C   UNL     1       4.635   3.137  -0.831  0.00  0.00    +0.000 C 
ATOM     12  C   UNL     1       4.369   1.620  -0.749  0.00  0.00    +0.000 C 
BRANCH   8  13
ATOM     13  C   UNL     1       2.392   1.663   0.967  0.00  0.00    +0.000 C 
BRANCH  13  14
ATOM     14  N   UNL     1       2.968   0.701   1.898  0.00  0.00    +0.000 NA
ATOM     15  H   UNL     1       2.482   0.775   2.791  0.00  0.00    +0.000 HD
ATOM     16  H   UNL     1       3.938   0.948   2.094  0.00  0.00    +0.000 HD
ENDBRANCH  13  14
ENDBRANCH   8  13
ENDBRANCH   7  11
ENDBRANCH   1   7
BRANCH   4  17
ATOM     17  C   UNL     1       6.209   9.360   1.084  0.00  0.00    +0.000 C 
BRANCH  17  18
ATOM     18  N   UNL     1       6.725   9.668   2.393  0.00  0.00    +0.000 N 
ATOM     19  C   UNL     1       6.899  10.965   2.799  0.00  0.00    +0.000 C 
ATOM     20  O   UNL     1       6.589  11.916   2.083  0.00  0.00    +0.000 OA
ATOM     21  H   UNL     1       7.178   8.914   2.901  0.00  0.00    +0.000 HD
BRANCH  19  22
ATOM     22  C   UNL     1       7.417  11.169   4.156  0.00  0.00    +0.000 A 
ATOM     23  C   UNL     1       7.183  12.375   4.804  0.00  0.00    +0.000 A 
ATOM     24  S   UNL     1       7.811  12.435   6.388  0.00  0.00    +0.000 S 
ATOM     25  C   UNL     1       8.464  10.871   6.246  0.00  0.00    +0.000 A 
ATOM     26  N   UNL     1       9.173  10.317   7.266  0.00  0.00    +0.000 NA
ATOM     27  C   UNL     1       9.640   9.140   7.010  0.00  0.00    +0.000 A 
ATOM     28  N   UNL     1       9.452   8.463   5.834  0.00  0.00    +0.000 N 
ATOM     29  C   UNL     1       8.717   8.969   4.788  0.00  0.00    +0.000 A 
ATOM     30  O   UNL     1       8.532   8.320   3.768  0.00  0.00    +0.000 OA
ATOM     31  C   UNL     1       8.185  10.300   5.017  0.00  0.00    +0.000 A 
ATOM     32  H   UNL     1       9.833   7.538   5.702  0.00  0.00    +0.000 HD
ENDBRANCH  19  22
ENDBRANCH  17  18
ENDBRANCH   4  17
TORSDOF 7
