REMARK  Name = 
REMARK  5 active torsions:
REMARK  status: ('A' for Active; 'I' for Inactive)
REMARK    1  A    between atoms: C_1  and  O_2
REMARK    2  A    between atoms: O_2  and  C_3
REMARK    3  A    between atoms: C_9  and  C_10
REMARK    4  A    between atoms: C_10  and  C_11
REMARK    5  A    between atoms: N_14  and  C_15
REMARK                            x       y       z     vdW  Elec       q    Type
REMARK                         _______ _______ _______ _____ _____    ______ ____
ROOT
ATOM      1  C   UNL     1       3.731   4.790   4.204  0.00  0.00    +0.000 A 
ATOM      2  C   UNL     1       3.632   3.821   5.207  0.00  0.00    +0.000 A 
ATOM      3  C   UNL     1       4.162   2.544   5.015  0.00  0.00    +0.000 A 
ATOM      4  C   UNL     1       4.796   2.272   3.791  0.00  0.00    +0.000 A 
ATOM      5  N   UNL     1       5.415   1.123   3.370  0.00  0.00    +0.000 N 
ATOM      6  C   UNL     1       6.006   1.324   2.157  0.00  0.00    +0.000 A 
ATOM      7  C   UNL     1       5.742   2.613   1.730  0.00  0.00    +0.000 A 
ATOM      8  C   UNL     1       4.929   3.211   2.763  0.00  0.00    +0.000 A 
ATOM      9  C   UNL     1       4.364   4.490   2.984  0.00  0.00    +0.000 A 
ATOM     10  H   UNL     1       5.507   0.287   3.930  0.00  0.00    +0.000 HD
ENDROOT
BRANCH   1  12
ATOM     11  C   UNL     1       2.910   6.517   5.631  0.00  0.00    +0.000 C 
ATOM     12  O   UNL     1       3.277   6.079   4.324  0.00  0.00    +0.000 OA
ENDBRANCH   1  12
BRANCH   7  13
ATOM     13  C   UNL     1       6.441   3.294   0.580  0.00  0.00    +0.000 C 
BRANCH  13  14
ATOM     14  C   UNL     1       5.978   3.104  -0.890  0.00  0.00    +0.000 C 
ATOM     15  C   UNL     1       5.798   1.679  -1.421  0.00  0.00    +0.000 C 
ATOM     16  C   UNL     1       7.080   0.861  -1.323  0.00  0.00    +0.000 C 
ATOM     17  N   UNL     1       8.292   1.503  -1.845  0.00  0.00    +0.000 NA
ATOM     18  C   UNL     1       9.480   0.881  -1.244  0.00  0.00    +0.000 C 
ATOM     19  C   UNL     1       8.369   2.966  -1.777  0.00  0.00    +0.000 C 
ATOM     20  C   UNL     1       7.032   3.723  -1.837  0.00  0.00    +0.000 C 
ENDBRANCH  13  14
ENDBRANCH   7  13
TORSDOF 3
