REMARK  Name = 
REMARK  4 active torsions:
REMARK  status: ('A' for Active; 'I' for Inactive)
REMARK    1  A    between atoms: C_2  and  C_4
REMARK    2  A    between atoms: N_8  and  C_9
REMARK    3  A    between atoms: C_9  and  C_10
REMARK    4  A    between atoms: C_14  and  C_15
REMARK                            x       y       z     vdW  Elec       q    Type
REMARK                         _______ _______ _______ _____ _____    ______ ____
ROOT
ATOM      1  C   UNL     1       6.254  -0.321  -5.206  0.00  0.00    +0.000 C 
ENDROOT
BRANCH   1   6
ATOM      2  C   UNL     1       3.754   1.173  -1.214  0.00  0.00    +0.000 A 
ATOM      3  C   UNL     1       5.055   1.294  -1.632  0.00  0.00    +0.000 A 
ATOM      4  N   UNL     1       5.470   0.976  -2.876  0.00  0.00    +0.000 NA
ATOM      5  C   UNL     1       4.552   0.498  -3.730  0.00  0.00    +0.000 A 
ATOM      6  N   UNL     1       4.911   0.208  -5.030  0.00  0.00    +0.000 N 
ATOM      7  N   UNL     1       3.262   0.323  -3.410  0.00  0.00    +0.000 NA
ATOM      8  C   UNL     1       2.888   0.659  -2.152  0.00  0.00    +0.000 A 
ATOM      9  H   UNL     1       4.178  -0.356  -5.443  0.00  0.00    +0.000 HD
BRANCH   2  11
ATOM     10  N   UNL     1       4.017   2.453   0.831  0.00  0.00    +0.000 N 
ATOM     11  C   UNL     1       3.300   1.515   0.139  0.00  0.00    +0.000 C 
ATOM     12  O   UNL     1       2.301   0.997   0.619  0.00  0.00    +0.000 OA
ATOM     13  H   UNL     1       3.639   2.732   1.730  0.00  0.00    +0.000 HD
ATOM     14  H   UNL     1       4.687   3.075   0.404  0.00  0.00    +0.000 HD
ENDBRANCH   2  11
ENDBRANCH   1   6
BRANCH   1  15
ATOM     15  C   UNL     1       6.774   0.017  -6.591  0.00  0.00    +0.000 A 
ATOM     16  C   UNL     1       6.867   1.353  -6.977  0.00  0.00    +0.000 A 
ATOM     17  C   UNL     1       7.366   1.652  -8.235  0.00  0.00    +0.000 A 
ATOM     18  C   UNL     1       7.779   0.615  -9.064  0.00  0.00    +0.000 A 
ATOM     19  C   UNL     1       7.691  -0.703  -8.613  0.00  0.00    +0.000 A 
ATOM     20  N   UNL     1       7.177  -1.004  -7.392  0.00  0.00    +0.000 NA
BRANCH  19  21
ATOM     21  C   UNL     1       8.176  -1.851  -9.409  0.00  0.00    +0.000 A 
ATOM     22  C   UNL     1       7.580  -3.122  -9.290  0.00  0.00    +0.000 A 
ATOM     23  C   UNL     1       8.045  -4.223 -10.021  0.00  0.00    +0.000 A 
ATOM     24  C   UNL     1       9.123  -4.074 -10.888  0.00  0.00    +0.000 A 
ATOM     25  C   UNL     1       9.721  -2.829 -11.016  0.00  0.00    +0.000 A 
ATOM     26  F   UNL     1      10.764  -2.679 -11.844  0.00  0.00    +0.000 F 
ATOM     27  C   UNL     1       9.264  -1.730 -10.293  0.00  0.00    +0.000 A 
ENDBRANCH  19  21
ENDBRANCH   1  15
TORSDOF 4
