REMARK  Name = 
REMARK  11 active torsions:
REMARK  status: ('A' for Active; 'I' for Inactive)
REMARK    1  A    between atoms: C_1  and  N_2
REMARK    2  A    between atoms: N_2  and  C_3
REMARK    3  A    between atoms: N_2  and  C_4
REMARK    4  A    between atoms: C_4  and  C_5
REMARK    5  A    between atoms: C_4  and  C_6
REMARK    6  A    between atoms: C_4  and  C_7
REMARK    7  A    between atoms: C_9  and  N_10
REMARK    8  A    between atoms: N_10  and  C_11
REMARK    9  A    between atoms: C_11  and  C_12
REMARK   10  A    between atoms: C_15  and  C_16
REMARK   11  A    between atoms: C_23  and  C_24
REMARK                            x       y       z     vdW  Elec       q    Type
REMARK                         _______ _______ _______ _____ _____    ______ ____
ROOT
ATOM      1  C   UNL     1       4.560  -1.105  -1.040  0.00  0.00    +0.000 A 
ATOM      2  C   UNL     1       5.291  -1.758  -0.017  0.00  0.00    +0.000 A 
ATOM      3  C   UNL     1       6.681  -1.797   0.034  0.00  0.00    +0.000 A 
ATOM      4  N   UNL     1       7.411  -1.191  -0.908  0.00  0.00    +0.000 NA
ATOM      5  C   UNL     1       6.737  -0.549  -1.896  0.00  0.00    +0.000 A 
ATOM      6  C   UNL     1       5.346  -0.470  -2.018  0.00  0.00    +0.000 A 
ENDROOT
BRANCH   1   7
ATOM      7  C   UNL     1       2.998  -1.143  -0.958  0.00  0.00    +0.000 C 
ATOM      8  C   UNL     1       2.520  -2.509  -0.361  0.00  0.00    +0.000 C 
ATOM      9  C   UNL     1       2.355  -1.127  -2.374  0.00  0.00    +0.000 C 
BRANCH   7  11
ATOM     10  C   UNL     1       1.015   0.116  -0.102  0.00  0.00    +0.000 C 
ATOM     11  N   UNL     1       2.482   0.029  -0.172  0.00  0.00    +0.000 NA
ATOM     12  C   UNL     1       3.003   0.154   1.195  0.00  0.00    +0.000 C 
ENDBRANCH   7  11
ENDBRANCH   1   7
BRANCH   3  13
ATOM     13  N   UNL     1       7.358  -2.525   0.991  0.00  0.00    +0.000 N 
ATOM     14  H   UNL     1       8.365  -2.393   0.936  0.00  0.00    +0.000 HD
BRANCH  13  15
ATOM     15  C   UNL     1       6.823  -2.651   2.343  0.00  0.00    +0.000 C 
BRANCH  15  16
ATOM     16  C   UNL     1       7.756  -3.397   3.285  0.00  0.00    +0.000 A 
ATOM     17  N   UNL     1       9.090  -3.277   3.103  0.00  0.00    +0.000 NA
ATOM     18  C   UNL     1       9.880  -3.923   3.992  0.00  0.00    +0.000 A 
ATOM     19  C   UNL     1       9.396  -4.648   5.060  0.00  0.00    +0.000 A 
ATOM     20  C   UNL     1       8.026  -4.710   5.159  0.00  0.00    +0.000 A 
ATOM     21  N   UNL     1       7.186  -4.090   4.299  0.00  0.00    +0.000 NA
BRANCH  19  22
ATOM     22  C   UNL     1      10.324  -5.310   5.986  0.00  0.00    +0.000 C 
ATOM     23  N   UNL     1       9.917  -5.519   7.274  0.00  0.00    +0.000 N 
ATOM     24  O   UNL     1      11.444  -5.640   5.619  0.00  0.00    +0.000 OA
ATOM     25  H   UNL     1       9.056  -5.181   7.680  0.00  0.00    +0.000 HD
ATOM     26  H   UNL     1      10.602  -5.923   7.903  0.00  0.00    +0.000 HD
ENDBRANCH  19  22
ENDBRANCH  15  16
ENDBRANCH  13  15
ENDBRANCH   3  13
BRANCH   6  27
ATOM     27  C   UNL     1       4.867   0.235  -3.173  0.00  0.00    +0.000 C 
ATOM     28  N   UNL     1       4.549   0.777  -4.143  0.00  0.00    +0.000 NA
ENDBRANCH   6  27
TORSDOF 7
