REMARK  Name = 
REMARK  3 active torsions:
REMARK  status: ('A' for Active; 'I' for Inactive)
REMARK    1  A    between atoms: C_2  and  C_4
REMARK    2  A    between atoms: C_7  and  C_8
REMARK    3  A    between atoms: C_8  and  N_9
REMARK                            x       y       z     vdW  Elec       q    Type
REMARK                         _______ _______ _______ _____ _____    ______ ____
ROOT
ATOM      1  C   UNL     1       3.044   1.108  -0.651  0.00  0.00    +0.000 A 
ATOM      2  C   UNL     1       2.662   1.670  -1.871  0.00  0.00    +0.000 A 
ATOM      3  C   UNL     1       3.345   2.779  -2.379  0.00  0.00    +0.000 A 
ATOM      4  C   UNL     1       4.410   3.351  -1.664  0.00  0.00    +0.000 A 
ATOM      5  C   UNL     1       4.779   2.784  -0.435  0.00  0.00    +0.000 A 
ATOM      6  C   UNL     1       4.103   1.670   0.070  0.00  0.00    +0.000 A 
ENDROOT
BRANCH   1   8
ATOM      7  N   UNL     1       1.761  -0.930  -0.989  0.00  0.00    +0.000 N 
ATOM      8  C   UNL     1       2.336  -0.075  -0.091  0.00  0.00    +0.000 C 
ATOM      9  O   UNL     1       2.291  -0.293   1.109  0.00  0.00    +0.000 OA
ATOM     10  H   UNL     1       1.354  -1.778  -0.618  0.00  0.00    +0.000 HD
ATOM     11  H   UNL     1       1.987  -0.914  -1.975  0.00  0.00    +0.000 HD
ENDBRANCH   1   8
BRANCH   4  12
ATOM     12  C   UNL     1       5.147   4.552  -2.202  0.00  0.00    +0.000 C 
BRANCH  12  13
ATOM     13  N   UNL     1       4.565   5.817  -1.765  0.00  0.00    +0.000 N 
ATOM     14  C   UNL     1       4.932   6.482  -0.616  0.00  0.00    +0.000 A 
ATOM     15  C   UNL     1       4.337   7.725  -0.633  0.00  0.00    +0.000 A 
ATOM     16  C   UNL     1       3.601   7.827  -1.835  0.00  0.00    +0.000 A 
ATOM     17  N   UNL     1       2.895   8.883  -2.308  0.00  0.00    +0.000 NA
ATOM     18  C   UNL     1       2.326   8.687  -3.515  0.00  0.00    +0.000 A 
ATOM     19  C   UNL     1       2.392   7.518  -4.258  0.00  0.00    +0.000 A 
ATOM     20  C   UNL     1       3.105   6.433  -3.757  0.00  0.00    +0.000 A 
ATOM     21  C   UNL     1       3.732   6.619  -2.520  0.00  0.00    +0.000 A 
ENDBRANCH  12  13
ENDBRANCH   4  12
TORSDOF 3
