REMARK  Name = 
REMARK  9 active torsions:
REMARK  status: ('A' for Active; 'I' for Inactive)
REMARK    1  A    between atoms: C_1  and  C_2
REMARK    2  A    between atoms: C_2  and  N_3
REMARK    3  A    between atoms: C_2  and  C_21
REMARK    4  A    between atoms: N_3  and  C_4
REMARK    5  A    between atoms: C_4  and  C_5
REMARK    6  A    between atoms: C_8  and  C_9
REMARK    7  A    between atoms: C_9  and  O_10
REMARK    8  A    between atoms: C_9  and  C_11
REMARK    9  A    between atoms: C_11  and  N_12
REMARK                            x       y       z     vdW  Elec       q    Type
REMARK                         _______ _______ _______ _____ _____    ______ ____
ROOT
ATOM      1  C   UNL     1      -0.899  -0.617  -1.306  0.00  0.00    +0.000 A 
ATOM      2  C   UNL     1      -1.507  -1.681  -0.655  0.00  0.00    +0.000 A 
ATOM      3  C   UNL     1      -2.895  -1.775  -0.672  0.00  0.00    +0.000 A 
ATOM      4  C   UNL     1      -3.663  -0.809  -1.332  0.00  0.00    +0.000 A 
ATOM      5  C   UNL     1      -2.965   0.219  -1.957  0.00  0.00    +0.000 A 
ATOM      6  N   UNL     1      -1.616   0.328  -1.966  0.00  0.00    +0.000 NA
ENDROOT
BRANCH   1   7
ATOM      7  C   UNL     1       0.614  -0.523  -1.344  0.00  0.00    +0.000 C 
BRANCH   7   8
ATOM      8  N   UNL     1       1.126   0.710  -0.742  0.00  0.00    +0.000 NA
ATOM      9  H   UNL     1       0.768   0.797   0.207  0.00  0.00    +0.000 HD
BRANCH   8  11
ATOM     10  C   UNL     1       3.195   0.607  -2.127  0.00  0.00    +0.000 C 
ATOM     11  C   UNL     1       2.590   0.787  -0.726  0.00  0.00    +0.000 C 
BRANCH  11  12
ATOM     12  C   UNL     1       2.948   2.148  -0.158  0.00  0.00    +0.000 A 
ATOM     13  C   UNL     1       2.524   3.344  -0.714  0.00  0.00    +0.000 A 
ATOM     14  S   UNL     1       3.124   4.724   0.085  0.00  0.00    +0.000 S 
ATOM     15  C   UNL     1       3.961   3.770   1.219  0.00  0.00    +0.000 A 
ATOM     16  N   UNL     1       4.713   4.346   2.196  0.00  0.00    +0.000 NA
ATOM     17  C   UNL     1       5.289   3.503   2.987  0.00  0.00    +0.000 A 
ATOM     18  N   UNL     1       5.175   2.139   2.896  0.00  0.00    +0.000 N 
ATOM     19  C   UNL     1       4.412   1.509   1.937  0.00  0.00    +0.000 A 
ATOM     20  O   UNL     1       4.300   0.288   1.913  0.00  0.00    +0.000 OA
ATOM     21  C   UNL     1       3.768   2.417   1.002  0.00  0.00    +0.000 A 
ATOM     22  H   UNL     1       5.638   1.540   3.563  0.00  0.00    +0.000 HD
ENDBRANCH  11  12
ENDBRANCH   8  11
ENDBRANCH   7   8
ENDBRANCH   1   7
BRANCH   4  23
ATOM     23  C   UNL     1      -5.176  -0.825  -1.384  0.00  0.00    +0.000 C 
BRANCH  23  24
ATOM     24  O   UNL     1      -5.597  -0.933  -2.753  0.00  0.00    +0.000 OA
ATOM     25  H   UNL     1      -5.057  -1.630  -3.166  0.00  0.00    +0.000 HD
ENDBRANCH  23  24
BRANCH  23  26
ATOM     26  C   UNL     1      -5.809  -1.979  -0.580  0.00  0.00    +0.000 C 
BRANCH  26  27
ATOM     27  N   UNL     1      -7.273  -1.938  -0.615  0.00  0.00    +0.000 N 
ATOM     28  C   UNL     1      -7.847  -3.049   0.036  0.00  0.00    +0.000 A 
ATOM     29  C   UNL     1      -9.232  -3.159   0.065  0.00  0.00    +0.000 A 
ATOM     30  C   UNL     1      -9.818  -4.234   0.732  0.00  0.00    +0.000 A 
ATOM     31  C   UNL     1      -9.008  -5.173   1.354  0.00  0.00    +0.000 A 
ATOM     32  C   UNL     1      -7.641  -4.988   1.289  0.00  0.00    +0.000 A 
ATOM     33  N   UNL     1      -7.054  -3.954   0.655  0.00  0.00    +0.000 NA
ATOM     34  H   UNL     1      -7.617  -1.882  -1.573  0.00  0.00    +0.000 HD
ENDBRANCH  26  27
ENDBRANCH  23  26
ENDBRANCH   4  23
TORSDOF 8
