REMARK  Name = 
REMARK  16 active torsions:
REMARK  status: ('A' for Active; 'I' for Inactive)
REMARK    1  A    between atoms: C_1  and  C_2
REMARK    2  A    between atoms: C_2  and  C_3
REMARK    3  A    between atoms: C_2  and  C_4
REMARK    4  A    between atoms: C_2  and  O_5
REMARK    5  A    between atoms: O_5  and  C_6
REMARK    6  A    between atoms: C_6  and  C_7
REMARK    7  A    between atoms: C_7  and  N_8
REMARK    8  A    between atoms: C_7  and  C_9
REMARK    9  A    between atoms: C_9  and  O_10
REMARK   10  A    between atoms: O_10  and  C_11
REMARK   11  A    between atoms: N_19  and  C_20
REMARK   12  A    between atoms: C_20  and  C_21
REMARK   13  A    between atoms: C_25  and  O_26
REMARK   14  A    between atoms: O_26  and  C_27
REMARK   15  A    between atoms: C_27  and  C_28
REMARK   16  A    between atoms: C_28  and  N_29
REMARK                            x       y       z     vdW  Elec       q    Type
REMARK                         _______ _______ _______ _____ _____    ______ ____
ROOT
ATOM      1  C   UNL     1       8.376  -2.748  -3.132  0.00  0.00    +0.000 A 
ATOM      2  C   UNL     1       9.329  -2.801  -2.109  0.00  0.00    +0.000 A 
ATOM      3  N   UNL     1      10.675  -2.897  -2.262  0.00  0.00    +0.000 NA
ATOM      4  C   UNL     1      11.029  -2.933  -3.558  0.00  0.00    +0.000 A 
ATOM      5  C   UNL     1      10.205  -2.852  -4.673  0.00  0.00    +0.000 A 
ATOM      6  C   UNL     1       8.823  -2.754  -4.457  0.00  0.00    +0.000 A 
ATOM      7  N   UNL     1      10.949  -2.904  -5.831  0.00  0.00    +0.000 NA
ATOM      8  C   UNL     1      12.197  -3.052  -5.425  0.00  0.00    +0.000 A 
ATOM      9  N   UNL     1      12.288  -3.102  -4.062  0.00  0.00    +0.000 N 
ENDROOT
BRANCH   1  10
ATOM     10  O   UNL     1       7.016  -2.697  -2.958  0.00  0.00    +0.000 OA
BRANCH  10  11
ATOM     11  C   UNL     1       6.565  -2.790  -1.597  0.00  0.00    +0.000 C 
BRANCH  11  12
ATOM     12  C   UNL     1       5.025  -2.819  -1.542  0.00  0.00    +0.000 C 
BRANCH  12  13
ATOM     13  N   UNL     1       4.479  -3.969  -2.297  0.00  0.00    +0.000 NA
ATOM     14  H   UNL     1       4.854  -4.839  -1.916  0.00  0.00    +0.000 HD
ATOM     15  H   UNL     1       4.848  -3.919  -3.250  0.00  0.00    +0.000 HD
ENDBRANCH  12  13
BRANCH  12  16
ATOM     16  C   UNL     1       4.545  -2.878  -0.077  0.00  0.00    +0.000 C 
BRANCH  16  17
ATOM     17  O   UNL     1       5.011  -1.743   0.658  0.00  0.00    +0.000 OA
BRANCH  17  19
ATOM     18  C   UNL     1       5.281  -2.882   2.819  0.00  0.00    +0.000 C 
ATOM     19  C   UNL     1       4.667  -1.701   2.057  0.00  0.00    +0.000 C 
ATOM     20  C   UNL     1       3.149  -1.644   2.269  0.00  0.00    +0.000 C 
ATOM     21  C   UNL     1       5.281  -0.403   2.604  0.00  0.00    +0.000 C 
ENDBRANCH  17  19
ENDBRANCH  16  17
ENDBRANCH  12  16
ENDBRANCH  11  12
ENDBRANCH  10  11
ENDBRANCH   1  10
BRANCH   9  22
ATOM     22  C   UNL     1      13.477  -3.365  -3.278  0.00  0.00    +0.000 C 
BRANCH  22  23
ATOM     23  C   UNL     1      13.594  -4.843  -2.990  0.00  0.00    +0.000 A 
ATOM     24  C   UNL     1      13.069  -5.384  -1.809  0.00  0.00    +0.000 A 
ATOM     25  C   UNL     1      13.052  -6.765  -1.613  0.00  0.00    +0.000 A 
ATOM     26  C   UNL     1      13.556  -7.614  -2.599  0.00  0.00    +0.000 A 
ATOM     27  C   UNL     1      14.113  -7.091  -3.765  0.00  0.00    +0.000 A 
ATOM     28  C   UNL     1      14.129  -5.709  -3.959  0.00  0.00    +0.000 A 
BRANCH  27  29
ATOM     29  O   UNL     1      14.538  -8.012  -4.684  0.00  0.00    +0.000 OA
BRANCH  29  30
ATOM     30  C   UNL     1      15.634  -7.603  -5.506  0.00  0.00    +0.000 C 
BRANCH  30  31
ATOM     31  C   UNL     1      15.965  -8.742  -6.477  0.00  0.00    +0.000 C 
BRANCH  31  32
ATOM     32  N   UNL     1      17.092  -8.408  -7.348  0.00  0.00    +0.000 NA
ATOM     33  H   UNL     1      16.850  -7.606  -7.929  0.00  0.00    +0.000 HD
ATOM     34  H   UNL     1      17.253  -9.182  -7.993  0.00  0.00    +0.000 HD
ENDBRANCH  31  32
ENDBRANCH  30  31
ENDBRANCH  29  30
ENDBRANCH  27  29
ENDBRANCH  22  23
ENDBRANCH   9  22
TORSDOF 13
