REMARK  Name = 
REMARK  5 active torsions:
REMARK  status: ('A' for Active; 'I' for Inactive)
REMARK    1  A    between atoms: N_1  and  C_2
REMARK    2  A    between atoms: C_2  and  C_3
REMARK    3  A    between atoms: C_5  and  C_6
REMARK    4  A    between atoms: C_6  and  N_7
REMARK    5  A    between atoms: C_14  and  C_15
REMARK                            x       y       z     vdW  Elec       q    Type
REMARK                         _______ _______ _______ _____ _____    ______ ____
ROOT
ATOM      1  N   UNL     1       1.753   5.721  -0.158  0.00  0.00    +0.000 N 
ATOM      2  C   UNL     1       0.421   5.539  -0.444  0.00  0.00    +0.000 A 
ATOM      3  C   UNL     1      -0.298   6.497   0.225  0.00  0.00    +0.000 A 
ATOM      4  C   UNL     1       0.622   7.288   0.959  0.00  0.00    +0.000 A 
ATOM      5  C   UNL     1       0.467   8.394   1.813  0.00  0.00    +0.000 A 
ATOM      6  C   UNL     1       1.593   8.958   2.410  0.00  0.00    +0.000 A 
ATOM      7  F   UNL     1       1.393  10.007   3.228  0.00  0.00    +0.000 F 
ATOM      8  C   UNL     1       2.873   8.458   2.176  0.00  0.00    +0.000 A 
ATOM      9  C   UNL     1       3.047   7.360   1.310  0.00  0.00    +0.000 A 
ATOM     10  C   UNL     1       1.906   6.785   0.714  0.00  0.00    +0.000 A 
ENDROOT
BRANCH   8  11
ATOM     11  C   UNL     1       4.080   9.046   2.823  0.00  0.00    +0.000 C 
ATOM     12  N   UNL     1       3.905  10.092   3.691  0.00  0.00    +0.000 N 
ATOM     13  O   UNL     1       5.201   8.610   2.599  0.00  0.00    +0.000 OA
ATOM     14  H   UNL     1       2.996  10.485   3.907  0.00  0.00    +0.000 HD
ATOM     15  H   UNL     1       4.724  10.483   4.140  0.00  0.00    +0.000 HD
ENDBRANCH   8  11
BRANCH   1  16
ATOM     16  C   UNL     1       2.814   4.934  -0.772  0.00  0.00    +0.000 C 
BRANCH  16  19
ATOM     17  C   UNL     1       2.929   1.430   0.593  0.00  0.00    +0.000 C 
ATOM     18  C   UNL     1       2.131   2.687   0.274  0.00  0.00    +0.000 C 
ATOM     19  C   UNL     1       3.227   3.707   0.037  0.00  0.00    +0.000 C 
ATOM     20  C   UNL     1       4.259   2.856  -0.688  0.00  0.00    +0.000 C 
ATOM     21  O   UNL     1       4.168   1.531  -0.142  0.00  0.00    +0.000 OA
BRANCH  17  22
ATOM     22  C   UNL     1       2.206   0.114   0.264  0.00  0.00    +0.000 C 
BRANCH  22  23
ATOM     23  N   UNL     1       1.893  -0.027  -1.163  0.00  0.00    +0.000 NA
ATOM     24  H   UNL     1       1.487  -0.948  -1.327  0.00  0.00    +0.000 HD
ATOM     25  H   UNL     1       2.779  -0.013  -1.673  0.00  0.00    +0.000 HD
ENDBRANCH  22  23
ENDBRANCH  17  22
ENDBRANCH  16  19
ENDBRANCH   1  16
TORSDOF 5
