REMARK  Name = 
REMARK  4 active torsions:
REMARK  status: ('A' for Active; 'I' for Inactive)
REMARK    1  A    between atoms: C_2  and  C_3
REMARK    2  A    between atoms: N_7  and  C_8
REMARK    3  A    between atoms: C_8  and  C_9
REMARK    4  A    between atoms: C_13  and  C_14
REMARK                            x       y       z     vdW  Elec       q    Type
REMARK                         _______ _______ _______ _____ _____    ______ ____
ROOT
ATOM      1  C   UNL     1       4.258   1.162   0.044  0.00  0.00    +0.000 C 
ATOM      2  C   UNL     1       2.907   0.573  -0.364  0.00  0.00    +0.000 C 
ATOM      3  C   UNL     1       3.113   1.032   1.040  0.00  0.00    +0.000 C 
ENDROOT
BRANCH   1   8
ATOM      4  C   UNL     1       2.993   5.213  -2.873  0.00  0.00    +0.000 A 
ATOM      5  C   UNL     1       2.284   4.182  -2.331  0.00  0.00    +0.000 A 
ATOM      6  N   UNL     1       2.818   3.280  -1.480  0.00  0.00    +0.000 NA
ATOM      7  C   UNL     1       4.110   3.412  -1.142  0.00  0.00    +0.000 A 
ATOM      8  N   UNL     1       4.716   2.520  -0.263  0.00  0.00    +0.000 N 
ATOM      9  N   UNL     1       4.875   4.417  -1.601  0.00  0.00    +0.000 NA
ATOM     10  C   UNL     1       4.305   5.289  -2.469  0.00  0.00    +0.000 A 
ATOM     11  H   UNL     1       5.663   2.808  -0.058  0.00  0.00    +0.000 HD
BRANCH   4  13
ATOM     12  N   UNL     1       1.939   6.873  -4.547  0.00  0.00    +0.000 NA
ATOM     13  C   UNL     1       2.418   6.129  -3.791  0.00  0.00    +0.000 C 
ENDBRANCH   4  13
ENDBRANCH   1   8
BRANCH   1  14
ATOM     14  C   UNL     1       5.360   0.096   0.049  0.00  0.00    +0.000 A 
ATOM     15  C   UNL     1       5.908  -0.405   1.238  0.00  0.00    +0.000 A 
ATOM     16  C   UNL     1       6.635  -1.594   1.242  0.00  0.00    +0.000 A 
ATOM     17  C   UNL     1       6.838  -2.295   0.051  0.00  0.00    +0.000 A 
ATOM     18  C   UNL     1       6.369  -1.798  -1.174  0.00  0.00    +0.000 A 
ATOM     19  C   UNL     1       5.681  -0.571  -1.151  0.00  0.00    +0.000 A 
BRANCH  18  20
ATOM     20  C   UNL     1       6.456  -2.585  -2.424  0.00  0.00    +0.000 A 
ATOM     21  C   UNL     1       6.185  -3.964  -2.426  0.00  0.00    +0.000 A 
ATOM     22  C   UNL     1       6.180  -4.708  -3.610  0.00  0.00    +0.000 A 
ATOM     23  C   UNL     1       6.441  -4.081  -4.825  0.00  0.00    +0.000 A 
ATOM     24  C   UNL     1       6.717  -2.717  -4.852  0.00  0.00    +0.000 A 
ATOM     25  C   UNL     1       6.729  -1.979  -3.663  0.00  0.00    +0.000 A 
ENDBRANCH  18  20
ENDBRANCH   1  14
TORSDOF 4
