REMARK  Name = 
REMARK  7 active torsions:
REMARK  status: ('A' for Active; 'I' for Inactive)
REMARK    1  A    between atoms: C_1  and  O_2
REMARK    2  A    between atoms: O_2  and  C_3
REMARK    3  A    between atoms: C_5  and  C_6
REMARK    4  A    between atoms: C_6  and  N_7
REMARK    5  A    between atoms: C_8  and  C_10
REMARK    6  A    between atoms: C_22  and  C_23
REMARK    7  A    between atoms: C_23  and  N_24
REMARK                            x       y       z     vdW  Elec       q    Type
REMARK                         _______ _______ _______ _____ _____    ______ ____
ROOT
ATOM      1  C   UNL     1       3.140  -0.586  -5.279  0.00  0.00    +0.000 C 
ENDROOT
BRANCH   1   4
ATOM      2  C   UNL     1       3.093  -0.339  -1.465  0.00  0.00    +0.000 A 
ATOM      3  C   UNL     1       2.763  -0.145  -2.816  0.00  0.00    +0.000 A 
ATOM      4  C   UNL     1       3.439  -0.828  -3.828  0.00  0.00    +0.000 A 
ATOM      5  C   UNL     1       4.397  -1.742  -3.424  0.00  0.00    +0.000 A 
ATOM      6  N   UNL     1       4.724  -1.981  -2.131  0.00  0.00    +0.000 NA
ATOM      7  C   UNL     1       4.078  -1.283  -1.146  0.00  0.00    +0.000 A 
BRANCH   2   9
ATOM      8  C   UNL     1       3.055   1.185   0.345  0.00  0.00    +0.000 C 
ATOM      9  O   UNL     1       2.336   0.400  -0.599  0.00  0.00    +0.000 OA
ENDBRANCH   2   9
BRANCH   7  10
ATOM     10  C   UNL     1       4.580  -1.579   0.262  0.00  0.00    +0.000 C 
BRANCH  10  11
ATOM     11  N   UNL     1       3.974  -2.641   1.082  0.00  0.00    +0.000 NA
ATOM     12  C   UNL     1       4.037  -3.980   0.508  0.00  0.00    +0.000 C 
ATOM     13  C   UNL     1       2.669  -4.216  -0.090  0.00  0.00    +0.000 C 
ATOM     14  C   UNL     1       1.743  -3.498   0.873  0.00  0.00    +0.000 C 
ATOM     15  C   UNL     1       2.599  -2.413   1.515  0.00  0.00    +0.000 C 
ENDBRANCH  10  11
ENDBRANCH   7  10
ENDBRANCH   1   4
BRANCH   1  16
ATOM     16  N   UNL     1       2.126  -1.478  -5.784  0.00  0.00    +0.000 N 
ATOM     17  C   UNL     1       0.807  -1.113  -5.874  0.00  0.00    +0.000 C 
ATOM     18  O   UNL     1       0.419   0.004  -5.541  0.00  0.00    +0.000 OA
ATOM     19  H   UNL     1       2.391  -2.445  -5.939  0.00  0.00    +0.000 HD
BRANCH  17  20
ATOM     20  C   UNL     1      -0.121  -2.101  -6.442  0.00  0.00    +0.000 A 
ATOM     21  C   UNL     1      -1.352  -1.676  -6.926  0.00  0.00    +0.000 A 
ATOM     22  S   UNL     1      -2.316  -2.931  -7.556  0.00  0.00    +0.000 S 
ATOM     23  C   UNL     1      -1.142  -4.099  -7.170  0.00  0.00    +0.000 A 
ATOM     24  N   UNL     1      -1.361  -5.416  -7.423  0.00  0.00    +0.000 NA
ATOM     25  C   UNL     1      -0.403  -6.197  -7.052  0.00  0.00    +0.000 A 
ATOM     26  N   UNL     1       0.763  -5.777  -6.463  0.00  0.00    +0.000 N 
ATOM     27  C   UNL     1       1.056  -4.452  -6.248  0.00  0.00    +0.000 A 
ATOM     28  O   UNL     1       2.156  -4.101  -5.828  0.00  0.00    +0.000 OA
ATOM     29  C   UNL     1      -0.009  -3.534  -6.602  0.00  0.00    +0.000 A 
ATOM     30  H   UNL     1       1.484  -6.441  -6.224  0.00  0.00    +0.000 HD
ENDBRANCH  17  20
ENDBRANCH   1  16
TORSDOF 6
