REMARK  Name = 
REMARK  5 active torsions:
REMARK  status: ('A' for Active; 'I' for Inactive)
REMARK    1  A    between atoms: C_2  and  O_3
REMARK    2  A    between atoms: C_2  and  C_4
REMARK    3  A    between atoms: C_7  and  C_8
REMARK    4  A    between atoms: C_11  and  O_12
REMARK    5  A    between atoms: O_12  and  C_13
REMARK                            x       y       z     vdW  Elec       q    Type
REMARK                         _______ _______ _______ _____ _____    ______ ____
ROOT
ATOM      1  C   UNL     1       5.898  -2.613  -3.596  0.00  0.00    +0.000 A 
ATOM      2  N   UNL     1       7.060  -3.240  -3.339  0.00  0.00    +0.000 NA
ATOM      3  C   UNL     1       7.730  -3.728  -4.402  0.00  0.00    +0.000 A 
ATOM      4  C   UNL     1       7.296  -3.626  -5.707  0.00  0.00    +0.000 A 
ATOM      5  C   UNL     1       6.087  -2.975  -5.849  0.00  0.00    +0.000 A 
ATOM      6  N   UNL     1       5.373  -2.458  -4.823  0.00  0.00    +0.000 NA
ENDROOT
BRANCH   1  10
ATOM      7  C   UNL     1       5.000  -1.516   0.503  0.00  0.00    +0.000 C 
ATOM      8  C   UNL     1       5.390  -0.402  -0.473  0.00  0.00    +0.000 C 
ATOM      9  C   UNL     1       6.053  -0.971  -1.723  0.00  0.00    +0.000 C 
ATOM     10  C   UNL     1       5.167  -2.018  -2.418  0.00  0.00    +0.000 C 
ATOM     11  C   UNL     1       4.728  -3.116  -1.436  0.00  0.00    +0.000 C 
ATOM     12  C   UNL     1       4.073  -2.526  -0.189  0.00  0.00    +0.000 C 
BRANCH   7  14
ATOM     13  O   UNL     1       3.190  -1.104   2.078  0.00  0.00    +0.000 OA
ATOM     14  C   UNL     1       4.353  -0.935   1.746  0.00  0.00    +0.000 C 
BRANCH  14  15
ATOM     15  O   UNL     1       5.211  -0.204   2.497  0.00  0.00    +0.000 OA
ATOM     16  H   UNL     1       6.118  -0.161   2.139  0.00  0.00    +0.000 HD
ENDBRANCH  14  15
ENDBRANCH   7  14
ENDBRANCH   1  10
BRANCH   4  17
ATOM     17  O   UNL     1       7.919  -4.083  -6.822  0.00  0.00    +0.000 OA
BRANCH  17  18
ATOM     18  C   UNL     1       9.194  -4.723  -6.663  0.00  0.00    +0.000 C 
ATOM     19  C   UNL     1       9.955  -4.566  -7.985  0.00  0.00    +0.000 C 
ATOM     20  C   UNL     1      11.243  -5.382  -8.009  0.00  0.00    +0.000 C 
ATOM     21  C   UNL     1      10.977  -6.847  -7.684  0.00  0.00    +0.000 C 
ATOM     22  C   UNL     1      10.300  -6.987  -6.328  0.00  0.00    +0.000 C 
ATOM     23  C   UNL     1       8.998  -6.197  -6.278  0.00  0.00    +0.000 C 
ENDBRANCH  17  18
ENDBRANCH   4  17
TORSDOF 5
