REMARK  Name = 
REMARK  7 active torsions:
REMARK  status: ('A' for Active; 'I' for Inactive)
REMARK    1  A    between atoms: C_1  and  O_2
REMARK    2  A    between atoms: O_2  and  C_3
REMARK    3  A    between atoms: C_6  and  C_7
REMARK    4  A    between atoms: C_7  and  C_8
REMARK    5  A    between atoms: C_7  and  N_9
REMARK    6  A    between atoms: N_9  and  C_10
REMARK    7  A    between atoms: C_13  and  C_14
REMARK                            x       y       z     vdW  Elec       q    Type
REMARK                         _______ _______ _______ _____ _____    ______ ____
ROOT
ATOM      1  N   UNL     1       4.120   4.858  -3.605  0.00  0.00    +0.000 N 
ATOM      2  H   UNL     1       3.559   4.974  -2.760  0.00  0.00    +0.000 HD
ENDROOT
BRANCH   1   3
ATOM      3  C   UNL     1       4.712   6.059  -3.983  0.00  0.00    +0.000 A 
ATOM      4  C   UNL     1       5.777   6.214  -4.855  0.00  0.00    +0.000 A 
ATOM      5  N   UNL     1       6.276   7.398  -5.281  0.00  0.00    +0.000 NA
ATOM      6  C   UNL     1       5.643   8.501  -4.814  0.00  0.00    +0.000 A 
ATOM      7  N   UNL     1       4.584   8.498  -3.986  0.00  0.00    +0.000 NA
ATOM      8  C   UNL     1       4.144   7.276  -3.614  0.00  0.00    +0.000 A 
BRANCH   6   9
ATOM      9  C   UNL     1       6.163   9.836  -5.296  0.00  0.00    +0.000 C 
ATOM     10  N   UNL     1       7.218   9.774  -6.181  0.00  0.00    +0.000 N 
ATOM     11  O   UNL     1       5.703  10.920  -4.958  0.00  0.00    +0.000 OA
ATOM     12  H   UNL     1       7.576   8.877  -6.481  0.00  0.00    +0.000 HD
ATOM     13  H   UNL     1       7.587  10.633  -6.564  0.00  0.00    +0.000 HD
ENDBRANCH   6   9
ENDBRANCH   1   3
BRANCH   1  14
ATOM     14  C   UNL     1       4.847   3.580  -3.580  0.00  0.00    +0.000 C 
ATOM     15  C   UNL     1       4.812   2.883  -4.942  0.00  0.00    +0.000 C 
BRANCH  14  19
ATOM     16  C   UNL     1       2.973   1.166  -0.482  0.00  0.00    +0.000 A 
ATOM     17  C   UNL     1       4.318   1.521  -0.389  0.00  0.00    +0.000 A 
ATOM     18  C   UNL     1       4.921   2.281  -1.398  0.00  0.00    +0.000 A 
ATOM     19  C   UNL     1       4.196   2.692  -2.521  0.00  0.00    +0.000 A 
ATOM     20  C   UNL     1       2.850   2.297  -2.625  0.00  0.00    +0.000 A 
ATOM     21  C   UNL     1       2.246   1.544  -1.613  0.00  0.00    +0.000 A 
BRANCH  16  23
ATOM     22  C   UNL     1       2.959   0.103   1.640  0.00  0.00    +0.000 C 
ATOM     23  O   UNL     1       2.262   0.464   0.453  0.00  0.00    +0.000 OA
ENDBRANCH  16  23
ENDBRANCH  14  19
ENDBRANCH   1  14
TORSDOF 5
