REMARK  Name = 
REMARK  6 active torsions:
REMARK  status: ('A' for Active; 'I' for Inactive)
REMARK    1  A    between atoms: N_1  and  C_2
REMARK    2  A    between atoms: C_4  and  C_5
REMARK    3  A    between atoms: C_5  and  N_6
REMARK    4  A    between atoms: C_7  and  C_9
REMARK    5  A    between atoms: C_21  and  C_22
REMARK    6  A    between atoms: C_22  and  C_23
REMARK                            x       y       z     vdW  Elec       q    Type
REMARK                         _______ _______ _______ _____ _____    ______ ____
ROOT
ATOM      1  C   UNL     1       0.871  -0.001  -0.124  0.00  0.00    +0.000 A 
ATOM      2  N   UNL     1       0.235   1.186  -0.152  0.00  0.00    +0.000 NA
ATOM      3  C   UNL     1      -1.116   1.204  -0.057  0.00  0.00    +0.000 A 
ATOM      4  C   UNL     1      -1.862   0.039   0.067  0.00  0.00    +0.000 A 
ATOM      5  C   UNL     1      -1.191  -1.180   0.110  0.00  0.00    +0.000 A 
ATOM      6  C   UNL     1       0.209  -1.218   0.028  0.00  0.00    +0.000 A 
ENDROOT
BRANCH   1   7
ATOM      7  N   UNL     1       2.239   0.073  -0.356  0.00  0.00    +0.000 N 
ATOM      8  H   UNL     1       2.492   1.057  -0.344  0.00  0.00    +0.000 HD
ATOM      9  H   UNL     1       2.766  -0.475   0.326  0.00  0.00    +0.000 HD
ENDBRANCH   1   7
BRANCH   3  10
ATOM     10  C   UNL     1      -1.779   2.559   0.010  0.00  0.00    +0.000 C 
BRANCH  10  11
ATOM     11  N   UNL     1      -1.931   2.991   1.383  0.00  0.00    +0.000 N 
ATOM     12  C   UNL     1      -2.606   4.140   1.698  0.00  0.00    +0.000 C 
ATOM     13  O   UNL     1      -3.173   4.814   0.842  0.00  0.00    +0.000 OA
ATOM     14  H   UNL     1      -1.244   2.626   2.038  0.00  0.00    +0.000 HD
BRANCH  12  15
ATOM     15  C   UNL     1      -2.685   4.487   3.123  0.00  0.00    +0.000 A 
ATOM     16  C   UNL     1      -3.689   5.339   3.565  0.00  0.00    +0.000 A 
ATOM     17  S   UNL     1      -3.689   5.585   5.252  0.00  0.00    +0.000 S 
ATOM     18  C   UNL     1      -2.310   4.608   5.448  0.00  0.00    +0.000 A 
ATOM     19  N   UNL     1      -1.764   4.412   6.679  0.00  0.00    +0.000 NA
ATOM     20  C   UNL     1      -0.702   3.679   6.680  0.00  0.00    +0.000 A 
ATOM     21  N   UNL     1      -0.139   3.120   5.562  0.00  0.00    +0.000 N 
ATOM     22  C   UNL     1      -0.675   3.262   4.305  0.00  0.00    +0.000 A 
ATOM     23  O   UNL     1      -0.175   2.704   3.333  0.00  0.00    +0.000 OA
ATOM     24  C   UNL     1      -1.867   4.086   4.245  0.00  0.00    +0.000 A 
ATOM     25  H   UNL     1       0.691   2.549   5.630  0.00  0.00    +0.000 HD
ENDBRANCH  12  15
ENDBRANCH  10  11
ENDBRANCH   3  10
BRANCH   6  26
ATOM     26  C   UNL     1       0.931  -2.545   0.037  0.00  0.00    +0.000 C 
BRANCH  26  27
ATOM     27  C   UNL     1       1.868  -2.806   1.202  0.00  0.00    +0.000 A 
ATOM     28  N   UNL     1       1.542  -3.801   2.054  0.00  0.00    +0.000 NA
ATOM     29  C   UNL     1       2.466  -4.138   2.976  0.00  0.00    +0.000 A 
ATOM     30  C   UNL     1       3.693  -3.529   3.083  0.00  0.00    +0.000 A 
ATOM     31  C   UNL     1       3.926  -2.514   2.189  0.00  0.00    +0.000 A 
ATOM     32  N   UNL     1       3.040  -2.131   1.248  0.00  0.00    +0.000 NA
ENDBRANCH  26  27
ENDBRANCH   6  26
TORSDOF 6
