REMARK  Name = 
REMARK  6 active torsions:
REMARK  status: ('A' for Active; 'I' for Inactive)
REMARK    1  A    between atoms: C_1  and  C_2
REMARK    2  A    between atoms: C_2  and  N_3
REMARK    3  A    between atoms: C_2  and  C_16
REMARK    4  A    between atoms: C_4  and  C_6
REMARK    5  A    between atoms: C_19  and  O_20
REMARK    6  A    between atoms: O_20  and  C_21
REMARK                            x       y       z     vdW  Elec       q    Type
REMARK                         _______ _______ _______ _____ _____    ______ ____
ROOT
ATOM      1  C   UNL     1       3.131  -0.440   1.398  0.00  0.00    +0.000 C 
ATOM      2  C   UNL     1       2.398  -0.106   0.099  0.00  0.00    +0.000 C 
ENDROOT
BRANCH   2   3
ATOM      3  C   UNL     1       2.829  -1.032  -1.031  0.00  0.00    +0.000 A 
ATOM      4  C   UNL     1       2.920  -0.530  -2.327  0.00  0.00    +0.000 A 
ATOM      5  C   UNL     1       3.220  -1.402  -3.368  0.00  0.00    +0.000 A 
ATOM      6  C   UNL     1       3.455  -2.747  -3.096  0.00  0.00    +0.000 A 
ATOM      7  C   UNL     1       3.308  -3.172  -1.786  0.00  0.00    +0.000 A 
ATOM      8  N   UNL     1       2.995  -2.353  -0.753  0.00  0.00    +0.000 NA
BRANCH   6   9
ATOM      9  O   UNL     1       3.741  -3.695  -4.047  0.00  0.00    +0.000 OA
BRANCH   9  10
ATOM     10  C   UNL     1       4.565  -3.328  -5.104  0.00  0.00    +0.000 A 
ATOM     11  C   UNL     1       4.435  -4.056  -6.277  0.00  0.00    +0.000 A 
ATOM     12  C   UNL     1       5.226  -3.696  -7.364  0.00  0.00    +0.000 A 
ATOM     13  C   UNL     1       6.116  -2.633  -7.239  0.00  0.00    +0.000 A 
ATOM     14  C   UNL     1       6.194  -1.983  -6.019  0.00  0.00    +0.000 A 
ATOM     15  N   UNL     1       5.451  -2.318  -4.946  0.00  0.00    +0.000 NA
ENDBRANCH   9  10
ENDBRANCH   6   9
ENDBRANCH   2   3
BRANCH   2  16
ATOM     16  N   UNL     1       0.955  -0.204   0.261  0.00  0.00    +0.000 N 
ATOM     17  C   UNL     1       0.153   0.846   0.615  0.00  0.00    +0.000 C 
ATOM     18  O   UNL     1       0.621   1.943   0.903  0.00  0.00    +0.000 OA
ATOM     19  H   UNL     1       0.557  -1.103   0.006  0.00  0.00    +0.000 HD
BRANCH  17  20
ATOM     20  C   UNL     1      -1.301   0.603   0.629  0.00  0.00    +0.000 A 
ATOM     21  C   UNL     1      -2.158   1.619   1.042  0.00  0.00    +0.000 A 
ATOM     22  S   UNL     1      -3.804   1.183   1.038  0.00  0.00    +0.000 S 
ATOM     23  C   UNL     1      -3.442  -0.387   0.493  0.00  0.00    +0.000 A 
ATOM     24  N   UNL     1      -4.429  -1.308   0.319  0.00  0.00    +0.000 NA
ATOM     25  C   UNL     1      -4.015  -2.464  -0.082  0.00  0.00    +0.000 A 
ATOM     26  N   UNL     1      -2.708  -2.773  -0.349  0.00  0.00    +0.000 N 
ATOM     27  C   UNL     1      -1.690  -1.858  -0.245  0.00  0.00    +0.000 A 
ATOM     28  O   UNL     1      -0.549  -2.146  -0.589  0.00  0.00    +0.000 OA
ATOM     29  C   UNL     1      -2.085  -0.561   0.274  0.00  0.00    +0.000 A 
ATOM     30  H   UNL     1      -2.449  -3.686  -0.692  0.00  0.00    +0.000 HD
ENDBRANCH  17  20
ENDBRANCH   2  16
TORSDOF 5
