REMARK  Name = 
REMARK  5 active torsions:
REMARK  status: ('A' for Active; 'I' for Inactive)
REMARK    1  A    between atoms: C_2  and  C_18
REMARK    2  A    between atoms: N_3  and  C_4
REMARK    3  A    between atoms: C_4  and  C_5
REMARK    4  A    between atoms: C_8  and  C_9
REMARK    5  A    between atoms: C_9  and  C_10
REMARK                            x       y       z     vdW  Elec       q    Type
REMARK                         _______ _______ _______ _____ _____    ______ ____
ROOT
ATOM      1  O   UNL     1       4.026  -0.153  -0.678  0.00  0.00    +0.000 OA
ATOM      2  C   UNL     1       3.533   0.536   0.210  0.00  0.00    +0.000 C 
ATOM      3  N   UNL     1       2.723   1.604  -0.062  0.00  0.00    +0.000 N 
ATOM      4  H   UNL     1       2.300   2.132   0.692  0.00  0.00    +0.000 HD
ENDROOT
BRANCH   2   5
ATOM      5  C   UNL     1       3.814   0.292   1.627  0.00  0.00    +0.000 A 
ATOM      6  C   UNL     1       4.985  -0.345   2.010  0.00  0.00    +0.000 A 
ATOM      7  S   UNL     1       5.142  -0.520   3.700  0.00  0.00    +0.000 S 
ATOM      8  C   UNL     1       3.631   0.214   3.974  0.00  0.00    +0.000 A 
ATOM      9  N   UNL     1       3.143   0.369   5.235  0.00  0.00    +0.000 NA
ATOM     10  C   UNL     1       1.973   0.913   5.292  0.00  0.00    +0.000 A 
ATOM     11  N   UNL     1       1.246   1.317   4.202  0.00  0.00    +0.000 N 
ATOM     12  C   UNL     1       1.710   1.212   2.913  0.00  0.00    +0.000 A 
ATOM     13  O   UNL     1       1.055   1.638   1.967  0.00  0.00    +0.000 OA
ATOM     14  C   UNL     1       3.019   0.597   2.794  0.00  0.00    +0.000 A 
ATOM     15  H   UNL     1       0.340   1.749   4.316  0.00  0.00    +0.000 HD
ENDBRANCH   2   5
BRANCH   3  16
ATOM     16  C   UNL     1       2.287   1.939  -1.396  0.00  0.00    +0.000 C 
BRANCH  16  17
ATOM     17  C   UNL     1       3.215   2.902  -2.084  0.00  0.00    +0.000 A 
ATOM     18  C   UNL     1       4.288   2.430  -2.831  0.00  0.00    +0.000 A 
ATOM     19  N   UNL     1       5.135   3.248  -3.499  0.00  0.00    +0.000 NA
ATOM     20  C   UNL     1       4.896   4.580  -3.379  0.00  0.00    +0.000 A 
ATOM     21  C   UNL     1       3.846   5.053  -2.598  0.00  0.00    +0.000 A 
ATOM     22  N   UNL     1       2.984   4.234  -1.945  0.00  0.00    +0.000 NA
BRANCH  20  23
ATOM     23  C   UNL     1       5.819   5.526  -4.096  0.00  0.00    +0.000 C 
BRANCH  23  24
ATOM     24  C   UNL     1       6.985   5.974  -3.250  0.00  0.00    +0.000 A 
ATOM     25  C   UNL     1       7.927   5.052  -2.795  0.00  0.00    +0.000 A 
ATOM     26  C   UNL     1       8.980   5.497  -2.002  0.00  0.00    +0.000 A 
ATOM     27  C   UNL     1       9.077   6.848  -1.699  0.00  0.00    +0.000 A 
ATOM     28  C   UNL     1       8.113   7.703  -2.205  0.00  0.00    +0.000 A 
ATOM     29  N   UNL     1       7.070   7.299  -2.965  0.00  0.00    +0.000 NA
ENDBRANCH  23  24
ENDBRANCH  20  23
ENDBRANCH  16  17
ENDBRANCH   3  16
TORSDOF 5
