REMARK  Name = 
REMARK  6 active torsions:
REMARK  status: ('A' for Active; 'I' for Inactive)
REMARK    1  A    between atoms: C_1  and  N_2
REMARK    2  A    between atoms: C_3  and  C_5
REMARK    3  A    between atoms: C_8  and  N_9
REMARK    4  A    between atoms: N_9  and  C_10
REMARK    5  A    between atoms: C_10  and  C_11
REMARK    6  A    between atoms: C_17  and  C_18
REMARK                            x       y       z     vdW  Elec       q    Type
REMARK                         _______ _______ _______ _____ _____    ______ ____
ROOT
ATOM      1  C   UNL     1       2.826  -2.257  -1.213  0.00  0.00    +0.000 A 
ATOM      2  C   UNL     1       1.837  -1.964  -2.158  0.00  0.00    +0.000 A 
ATOM      3  C   UNL     1       1.409  -2.940  -3.074  0.00  0.00    +0.000 A 
ATOM      4  C   UNL     1       2.035  -4.195  -3.165  0.00  0.00    +0.000 A 
ATOM      5  C   UNL     1       3.068  -4.478  -2.242  0.00  0.00    +0.000 A 
ATOM      6  C   UNL     1       3.870  -5.758  -2.271  0.00  0.00    +0.000 C 
ATOM      7  C   UNL     1       3.439  -3.514  -1.267  0.00  0.00    +0.000 A 
ENDROOT
BRANCH   1  10
ATOM      8  C   UNL     1       4.112  -0.689   2.035  0.00  0.00    +0.000 C 
ATOM      9  N   UNL     1       3.702  -1.627   1.007  0.00  0.00    +0.000 N 
ATOM     10  C   UNL     1       3.271  -1.209  -0.242  0.00  0.00    +0.000 C 
ATOM     11  O   UNL     1       3.196  -0.016  -0.558  0.00  0.00    +0.000 OA
ATOM     12  H   UNL     1       3.179  -2.420   1.344  0.00  0.00    +0.000 HD
ENDBRANCH   1  10
BRANCH   4  13
ATOM     13  N   UNL     1       1.570  -5.182  -4.045  0.00  0.00    +0.000 N 
ATOM     14  H   UNL     1       2.269  -5.894  -4.228  0.00  0.00    +0.000 HD
BRANCH  13  15
ATOM     15  C   UNL     1       0.938  -4.789  -5.310  0.00  0.00    +0.000 C 
BRANCH  15  16
ATOM     16  C   UNL     1       0.544  -6.020  -6.106  0.00  0.00    +0.000 A 
ATOM     17  C   UNL     1      -0.347  -6.947  -5.567  0.00  0.00    +0.000 A 
ATOM     18  C   UNL     1      -0.625  -8.108  -6.282  0.00  0.00    +0.000 A 
ATOM     19  C   UNL     1      -0.034  -8.299  -7.525  0.00  0.00    +0.000 A 
ATOM     20  C   UNL     1       0.811  -7.314  -8.007  0.00  0.00    +0.000 A 
ATOM     21  N   UNL     1       1.119  -6.189  -7.325  0.00  0.00    +0.000 NA
ENDBRANCH  15  16
ENDBRANCH  13  15
ENDBRANCH   4  13
TORSDOF 4
