REMARK  Name = 
REMARK  8 active torsions:
REMARK  status: ('A' for Active; 'I' for Inactive)
REMARK    1  A    between atoms: C_2  and  C_21
REMARK    2  A    between atoms: N_3  and  CA_4
REMARK    3  A    between atoms: CA_4  and  C_5
REMARK    4  A    between atoms: CA_4  and  C_7
REMARK    5  A    between atoms: C_5  and  O_6
REMARK    6  A    between atoms: C_10  and  C_11
REMARK    7  A    between atoms: C_12  and  C_13
REMARK    8  A    between atoms: C_13  and  N_14
REMARK                            x       y       z     vdW  Elec       q    Type
REMARK                         _______ _______ _______ _____ _____    ______ ____
ROOT
ATOM      1  CA  UNL     1       2.126  -2.537   0.772  0.00  0.00    +0.000 C 
ENDROOT
BRANCH   1   2
ATOM      2  C   UNL     1       2.998  -3.582   1.463  0.00  0.00    +0.000 A 
ATOM      3  C   UNL     1       4.266  -3.226   1.946  0.00  0.00    +0.000 A 
ATOM      4  C   UNL     1       5.163  -4.204   2.385  0.00  0.00    +0.000 A 
ATOM      5  C   UNL     1       4.814  -5.559   2.373  0.00  0.00    +0.000 A 
ATOM      6  C   UNL     1       3.525  -5.908   1.956  0.00  0.00    +0.000 A 
ATOM      7  C   UNL     1       2.621  -4.930   1.523  0.00  0.00    +0.000 A 
BRANCH   5   8
ATOM      8  C   UNL     1       5.798  -6.620   2.639  0.00  0.00    +0.000 C 
ATOM      9  C   UNL     1       6.853  -6.491   3.459  0.00  0.00    +0.000 C 
BRANCH   9  10
ATOM     10  C   UNL     1       7.962  -7.499   3.574  0.00  0.00    +0.000 C 
BRANCH  10  11
ATOM     11  N   UNL     1       8.103  -8.091   4.908  0.00  0.00    +0.000 NA
ATOM     12  C   UNL     1       9.217  -9.051   4.917  0.00  0.00    +0.000 C 
ATOM     13  C   UNL     1      10.449  -8.206   5.190  0.00  0.00    +0.000 C 
ATOM     14  O   UNL     1       9.986  -7.051   5.896  0.00  0.00    +0.000 OA
ATOM     15  C   UNL     1       8.561  -7.134   5.915  0.00  0.00    +0.000 C 
ENDBRANCH  10  11
ENDBRANCH   9  10
ENDBRANCH   5   8
ENDBRANCH   1   2
BRANCH   1  18
ATOM     16  O   UNL     1      -0.503  -3.726   0.808  0.00  0.00    +0.000 OA
ATOM     17  C   UNL     1      -0.239  -2.791   1.561  0.00  0.00    +0.000 C 
ATOM     18  N   UNL     1       0.973  -2.155   1.565  0.00  0.00    +0.000 N 
ATOM     19  H   UNL     1       1.158  -1.483   2.302  0.00  0.00    +0.000 HD
BRANCH  17  20
ATOM     20  C   UNL     1      -1.250  -2.252   2.472  0.00  0.00    +0.000 A 
ATOM     21  C   UNL     1      -2.597  -2.329   2.146  0.00  0.00    +0.000 A 
ATOM     22  S   UNL     1      -3.626  -1.702   3.354  0.00  0.00    +0.000 S 
ATOM     23  C   UNL     1      -2.305  -1.341   4.367  0.00  0.00    +0.000 A 
ATOM     24  N   UNL     1      -2.494  -0.827   5.613  0.00  0.00    +0.000 NA
ATOM     25  C   UNL     1      -1.407  -0.644   6.282  0.00  0.00    +0.000 A 
ATOM     26  N   UNL     1      -0.143  -0.897   5.810  0.00  0.00    +0.000 N 
ATOM     27  C   UNL     1       0.096  -1.319   4.524  0.00  0.00    +0.000 A 
ATOM     28  O   UNL     1       1.237  -1.370   4.070  0.00  0.00    +0.000 OA
ATOM     29  C   UNL     1      -1.095  -1.633   3.765  0.00  0.00    +0.000 A 
ATOM     30  H   UNL     1       0.669  -0.678   6.368  0.00  0.00    +0.000 HD
ENDBRANCH  17  20
ENDBRANCH   1  18
BRANCH   1  31
ATOM     31  C   UNL     1       1.818  -2.917  -0.697  0.00  0.00    +0.000 C 
BRANCH  31  32
ATOM     32  O   UNL     1       3.015  -2.964  -1.481  0.00  0.00    +0.000 OA
ATOM     33  H   UNL     1       3.577  -3.658  -1.088  0.00  0.00    +0.000 HD
ENDBRANCH  31  32
ENDBRANCH   1  31
TORSDOF 8
