REMARK  Name = 
REMARK  5 active torsions:
REMARK  status: ('A' for Active; 'I' for Inactive)
REMARK    1  A    between atoms: C_2  and  C_4
REMARK    2  A    between atoms: C_7  and  O_8
REMARK    3  A    between atoms: O_8  and  C_9
REMARK    4  A    between atoms: C_9  and  C_10
REMARK    5  A    between atoms: C_15  and  C_16
REMARK                            x       y       z     vdW  Elec       q    Type
REMARK                         _______ _______ _______ _____ _____    ______ ____
ROOT
ATOM      1  C   UNL     1       4.778   2.967  -5.237  0.00  0.00    +0.000 C 
ENDROOT
BRANCH   1   2
ATOM      2  C   UNL     1       5.655   3.237  -6.439  0.00  0.00    +0.000 A 
ATOM      3  C   UNL     1       5.845   4.546  -6.906  0.00  0.00    +0.000 A 
ATOM      4  C   UNL     1       6.639   4.779  -8.024  0.00  0.00    +0.000 A 
ATOM      5  F   UNL     1       6.828   6.033  -8.456  0.00  0.00    +0.000 F 
ATOM      6  C   UNL     1       7.241   3.730  -8.702  0.00  0.00    +0.000 A 
ATOM      7  C   UNL     1       7.042   2.410  -8.272  0.00  0.00    +0.000 A 
ATOM      8  C   UNL     1       6.238   2.178  -7.148  0.00  0.00    +0.000 A 
BRANCH   7   9
ATOM      9  C   UNL     1       7.676   1.241  -8.992  0.00  0.00    +0.000 C 
ATOM     10  C   UNL     1       9.205   1.336  -8.961  0.00  0.00    +0.000 C 
ATOM     11  C   UNL     1       9.828   0.243  -9.813  0.00  0.00    +0.000 C 
ATOM     12  O   UNL     1       9.306   0.276 -11.140  0.00  0.00    +0.000 OA
ATOM     13  C   UNL     1       7.900   0.035 -11.178  0.00  0.00    +0.000 C 
ATOM     14  C   UNL     1       7.151   1.124 -10.427  0.00  0.00    +0.000 C 
ENDBRANCH   7   9
ENDBRANCH   1   2
BRANCH   1  15
ATOM     15  O   UNL     1       5.242   1.809  -4.527  0.00  0.00    +0.000 OA
BRANCH  15  19
ATOM     16  C   UNL     1       2.922   0.886  -1.253  0.00  0.00    +0.000 A 
ATOM     17  C   UNL     1       4.015   0.078  -1.570  0.00  0.00    +0.000 A 
ATOM     18  C   UNL     1       4.798   0.395  -2.681  0.00  0.00    +0.000 A 
ATOM     19  C   UNL     1       4.451   1.507  -3.438  0.00  0.00    +0.000 A 
ATOM     20  N   UNL     1       3.392   2.297  -3.159  0.00  0.00    +0.000 NA
ATOM     21  C   UNL     1       2.646   1.966  -2.079  0.00  0.00    +0.000 A 
BRANCH  16  23
ATOM     22  N   UNL     1       2.611  -0.004   0.981  0.00  0.00    +0.000 N 
ATOM     23  C   UNL     1       2.048   0.633  -0.090  0.00  0.00    +0.000 C 
ATOM     24  O   UNL     1       0.886   1.004  -0.072  0.00  0.00    +0.000 OA
ATOM     25  H   UNL     1       2.036  -0.101   1.809  0.00  0.00    +0.000 HD
ATOM     26  H   UNL     1       3.609  -0.122   1.089  0.00  0.00    +0.000 HD
ENDBRANCH  16  23
ENDBRANCH  15  19
ENDBRANCH   1  15
TORSDOF 5
