REMARK  Name = 
REMARK  6 active torsions:
REMARK  status: ('A' for Active; 'I' for Inactive)
REMARK    1  A    between atoms: N_1  and  C_2
REMARK    2  A    between atoms: C_2  and  C_3
REMARK    3  A    between atoms: C_6  and  O_7
REMARK    4  A    between atoms: O_7  and  C_8
REMARK    5  A    between atoms: C_8  and  C_9
REMARK    6  A    between atoms: C_12  and  C_13
REMARK                            x       y       z     vdW  Elec       q    Type
REMARK                         _______ _______ _______ _____ _____    ______ ____
ROOT
ATOM      1  O   UNL     1       3.997   2.147  -4.988  0.00  0.00    +0.000 OA
ENDROOT
BRANCH   1   5
ATOM      2  C   UNL     1       2.812   1.202  -1.151  0.00  0.00    +0.000 A 
ATOM      3  C   UNL     1       3.318   0.207  -1.995  0.00  0.00    +0.000 A 
ATOM      4  C   UNL     1       3.714   0.532  -3.291  0.00  0.00    +0.000 A 
ATOM      5  C   UNL     1       3.586   1.848  -3.704  0.00  0.00    +0.000 A 
ATOM      6  N   UNL     1       3.081   2.829  -2.926  0.00  0.00    +0.000 NA
ATOM      7  C   UNL     1       2.713   2.486  -1.673  0.00  0.00    +0.000 A 
BRANCH   2   8
ATOM      8  C   UNL     1       2.388   0.909   0.258  0.00  0.00    +0.000 C 
BRANCH   8   9
ATOM      9  N   UNL     1       3.502   0.413   1.059  0.00  0.00    +0.000 NA
ATOM     10  H   UNL     1       3.202   0.323   2.029  0.00  0.00    +0.000 HD
ATOM     11  H   UNL     1       4.250   1.106   1.055  0.00  0.00    +0.000 HD
ENDBRANCH   8   9
ENDBRANCH   2   8
ENDBRANCH   1   5
BRANCH   1  12
ATOM     12  C   UNL     1       3.887   3.548  -5.266  0.00  0.00    +0.000 C 
BRANCH  12  13
ATOM     13  C   UNL     1       4.379   3.843  -6.665  0.00  0.00    +0.000 A 
ATOM     14  C   UNL     1       3.779   3.237  -7.766  0.00  0.00    +0.000 A 
ATOM     15  C   UNL     1       4.236   3.555  -9.043  0.00  0.00    +0.000 A 
ATOM     16  C   UNL     1       5.280   4.470  -9.198  0.00  0.00    +0.000 A 
ATOM     17  C   UNL     1       5.812   5.034  -8.048  0.00  0.00    +0.000 A 
ATOM     18  N   UNL     1       5.385   4.745  -6.799  0.00  0.00    +0.000 NA
BRANCH  16  19
ATOM     19  C   UNL     1       5.838   4.851 -10.532  0.00  0.00    +0.000 C 
ATOM     20  F   UNL     1       5.237   4.212 -11.575  0.00  0.00    +0.000 F 
ATOM     21  F   UNL     1       5.715   6.182 -10.791  0.00  0.00    +0.000 F 
ATOM     22  F   UNL     1       7.166   4.572 -10.641  0.00  0.00    +0.000 F 
ENDBRANCH  16  19
ENDBRANCH  12  13
ENDBRANCH   1  12
TORSDOF 6
