REMARK  Name = 
REMARK  7 active torsions:
REMARK  status: ('A' for Active; 'I' for Inactive)
REMARK    1  A    between atoms: C_2  and  C_4
REMARK    2  A    between atoms: C_7  and  N_8
REMARK    3  A    between atoms: N_8  and  C_9
REMARK    4  A    between atoms: C_9  and  C_10
REMARK    5  A    between atoms: C_10  and  C_11
REMARK    6  A    between atoms: C_15  and  O_16
REMARK    7  A    between atoms: O_16  and  C_17
REMARK                            x       y       z     vdW  Elec       q    Type
REMARK                         _______ _______ _______ _____ _____    ______ ____
ROOT
ATOM      1  C   UNL     1       4.936  -2.036  -5.649  0.00  0.00    +0.000 C 
ENDROOT
BRANCH   1   2
ATOM      2  N   UNL     1       5.441  -2.187  -4.280  0.00  0.00    +0.000 N 
ATOM      3  H   UNL     1       6.366  -1.781  -4.170  0.00  0.00    +0.000 HD
BRANCH   2   7
ATOM      4  C   UNL     1       3.049  -0.792  -1.231  0.00  0.00    +0.000 A 
ATOM      5  C   UNL     1       2.652  -0.666  -2.553  0.00  0.00    +0.000 A 
ATOM      6  N   UNL     1       3.412  -1.107  -3.593  0.00  0.00    +0.000 NA
ATOM      7  C   UNL     1       4.594  -1.678  -3.279  0.00  0.00    +0.000 A 
ATOM      8  C   UNL     1       4.971  -1.802  -1.933  0.00  0.00    +0.000 A 
ATOM      9  N   UNL     1       4.232  -1.361  -0.879  0.00  0.00    +0.000 NA
BRANCH   4  11
ATOM     10  N   UNL     1       2.650  -0.413   1.133  0.00  0.00    +0.000 N 
ATOM     11  C   UNL     1       2.165  -0.297  -0.141  0.00  0.00    +0.000 C 
ATOM     12  O   UNL     1       1.064   0.199  -0.367  0.00  0.00    +0.000 OA
ATOM     13  H   UNL     1       2.105  -0.047   1.901  0.00  0.00    +0.000 HD
ATOM     14  H   UNL     1       3.591  -0.753   1.291  0.00  0.00    +0.000 HD
ENDBRANCH   4  11
ENDBRANCH   2   7
ENDBRANCH   1   2
BRANCH   1  15
ATOM     15  C   UNL     1       5.944  -2.640  -6.640  0.00  0.00    +0.000 C 
BRANCH  15  16
ATOM     16  C   UNL     1       5.460  -2.531  -8.064  0.00  0.00    +0.000 A 
ATOM     17  C   UNL     1       4.693  -3.554  -8.630  0.00  0.00    +0.000 A 
ATOM     18  C   UNL     1       4.177  -3.413  -9.921  0.00  0.00    +0.000 A 
ATOM     19  C   UNL     1       4.424  -2.251 -10.662  0.00  0.00    +0.000 A 
ATOM     20  C   UNL     1       5.210  -1.239 -10.117  0.00  0.00    +0.000 A 
ATOM     21  C   UNL     1       5.716  -1.379  -8.821  0.00  0.00    +0.000 A 
BRANCH  20  22
ATOM     22  O   UNL     1       5.505  -0.044 -10.727  0.00  0.00    +0.000 OA
BRANCH  22  23
ATOM     23  C   UNL     1       5.466   0.052 -12.169  0.00  0.00    +0.000 C 
ATOM     24  C   UNL     1       6.542  -0.702 -12.974  0.00  0.00    +0.000 C 
ATOM     25  N   UNL     1       6.908   0.532 -13.685  0.00  0.00    +0.000 NA
ATOM     26  C   UNL     1       6.099   1.335 -12.758  0.00  0.00    +0.000 C 
ATOM     27  H   UNL     1       6.591   0.569 -14.653  0.00  0.00    +0.000 HD
ENDBRANCH  22  23
ENDBRANCH  20  22
ENDBRANCH  15  16
ENDBRANCH   1  15
TORSDOF 7
