REMARK  Name = 
REMARK  7 active torsions:
REMARK  status: ('A' for Active; 'I' for Inactive)
REMARK    1  A    between atoms: C_2  and  C_3
REMARK    2  A    between atoms: C_6  and  N_7
REMARK    3  A    between atoms: N_7  and  C_8
REMARK    4  A    between atoms: C_8  and  C_9
REMARK    5  A    between atoms: C_13  and  C_14
REMARK    6  A    between atoms: C_18  and  O_19
REMARK    7  A    between atoms: O_19  and  C_20
REMARK                            x       y       z     vdW  Elec       q    Type
REMARK                         _______ _______ _______ _____ _____    ______ ____
ROOT
ATOM      1  C   UNL     1       9.733   0.141  -0.680  0.00  0.00    +0.000 A 
ATOM      2  C   UNL     1       9.752   1.164  -1.641  0.00  0.00    +0.000 A 
ATOM      3  C   UNL     1      10.508   2.316  -1.449  0.00  0.00    +0.000 A 
ATOM      4  C   UNL     1      11.298   2.449  -0.307  0.00  0.00    +0.000 A 
ATOM      5  C   UNL     1      11.379   1.419   0.645  0.00  0.00    +0.000 A 
ATOM      6  C   UNL     1      10.589   0.274   0.426  0.00  0.00    +0.000 A 
ENDROOT
BRANCH   5   7
ATOM      7  C   UNL     1      12.223   1.531   1.852  0.00  0.00    +0.000 A 
ATOM      8  C   UNL     1      12.448   2.742   2.507  0.00  0.00    +0.000 A 
ATOM      9  N   UNL     1      13.195   2.893   3.631  0.00  0.00    +0.000 NA
ATOM     10  C   UNL     1      13.753   1.777   4.146  0.00  0.00    +0.000 A 
ATOM     11  C   UNL     1      13.628   0.521   3.571  0.00  0.00    +0.000 A 
ATOM     12  C   UNL     1      12.844   0.410   2.424  0.00  0.00    +0.000 A 
BRANCH  11  13
ATOM     13  O   UNL     1      14.177  -0.644   4.018  0.00  0.00    +0.000 OA
BRANCH  13  14
ATOM     14  C   UNL     1      15.355  -0.497   4.792  0.00  0.00    +0.000 C 
ATOM     15  F   UNL     1      15.003  -0.204   6.066  0.00  0.00    +0.000 F 
ATOM     16  F   UNL     1      15.971  -1.705   4.820  0.00  0.00    +0.000 F 
ENDBRANCH  13  14
ENDBRANCH  11  13
ENDBRANCH   5   7
BRANCH   1  17
ATOM     17  C   UNL     1       8.719  -0.993  -0.768  0.00  0.00    +0.000 C 
ATOM     18  C   UNL     1       7.859  -1.309   0.442  0.00  0.00    +0.000 C 
ATOM     19  C   UNL     1       7.267  -0.517  -0.675  0.00  0.00    +0.000 C 
BRANCH  17  20
ATOM     20  N   UNL     1       8.982  -1.982  -1.805  0.00  0.00    +0.000 N 
ATOM     21  H   UNL     1       8.848  -1.731  -2.779  0.00  0.00    +0.000 HD
BRANCH  20  25
ATOM     22  C   UNL     1      11.162  -5.455  -1.803  0.00  0.00    +0.000 A 
ATOM     23  C   UNL     1      10.665  -4.878  -2.957  0.00  0.00    +0.000 A 
ATOM     24  N   UNL     1       9.968  -3.715  -2.946  0.00  0.00    +0.000 NA
ATOM     25  C   UNL     1       9.759  -3.128  -1.743  0.00  0.00    +0.000 A 
ATOM     26  C   UNL     1      10.266  -3.721  -0.590  0.00  0.00    +0.000 A 
ATOM     27  N   UNL     1      10.979  -4.888  -0.588  0.00  0.00    +0.000 NA
BRANCH  22  29
ATOM     28  N   UNL     1      12.462  -7.694  -1.985  0.00  0.00    +0.000 NA
ATOM     29  C   UNL     1      11.886  -6.694  -1.869  0.00  0.00    +0.000 C 
ENDBRANCH  22  29
ENDBRANCH  20  25
ENDBRANCH  17  20
ENDBRANCH   1  17
TORSDOF 7
