REMARK  Name = 
REMARK  5 active torsions:
REMARK  status: ('A' for Active; 'I' for Inactive)
REMARK    1  A    between atoms: C_2  and  C_4
REMARK    2  A    between atoms: C_7  and  O_8
REMARK    3  A    between atoms: O_8  and  C_9
REMARK    4  A    between atoms: C_9  and  C_10
REMARK    5  A    between atoms: C_14  and  C_15
REMARK                            x       y       z     vdW  Elec       q    Type
REMARK                         _______ _______ _______ _____ _____    ______ ____
ROOT
ATOM      1  C   UNL     1       4.909   5.139   2.872  0.00  0.00    +0.000 C 
ENDROOT
BRANCH   1   2
ATOM      2  C   UNL     1       5.835   6.288   3.203  0.00  0.00    +0.000 A 
ATOM      3  C   UNL     1       5.435   7.598   2.911  0.00  0.00    +0.000 A 
ATOM      4  C   UNL     1       6.226   8.678   3.290  0.00  0.00    +0.000 A 
ATOM      5  C   UNL     1       7.418   8.461   3.983  0.00  0.00    +0.000 A 
ATOM      6  C   UNL     1       7.842   7.163   4.321  0.00  0.00    +0.000 A 
ATOM      7  C   UNL     1       7.032   6.087   3.909  0.00  0.00    +0.000 A 
BRANCH   6   8
ATOM      8  C   UNL     1       9.067   6.934   5.114  0.00  0.00    +0.000 A 
ATOM      9  C   UNL     1       9.446   7.790   6.157  0.00  0.00    +0.000 A 
ATOM     10  N   UNL     1      10.543   7.633   6.943  0.00  0.00    +0.000 NA
ATOM     11  C   UNL     1      11.310   6.551   6.687  0.00  0.00    +0.000 A 
ATOM     12  C   UNL     1      11.028   5.640   5.688  0.00  0.00    +0.000 A 
ATOM     13  F   UNL     1      11.821   4.579   5.488  0.00  0.00    +0.000 F 
ATOM     14  C   UNL     1       9.906   5.832   4.892  0.00  0.00    +0.000 A 
ENDBRANCH   6   8
ENDBRANCH   1   2
BRANCH   1  15
ATOM     15  O   UNL     1       5.631   3.944   2.551  0.00  0.00    +0.000 OA
BRANCH  15  19
ATOM     16  C   UNL     1       3.110   0.783   1.747  0.00  0.00    +0.000 A 
ATOM     17  C   UNL     1       4.493   0.594   1.693  0.00  0.00    +0.000 A 
ATOM     18  C   UNL     1       5.342   1.671   1.965  0.00  0.00    +0.000 A 
ATOM     19  C   UNL     1       4.771   2.896   2.283  0.00  0.00    +0.000 A 
ATOM     20  N   UNL     1       3.438   3.104   2.338  0.00  0.00    +0.000 NA
ATOM     21  C   UNL     1       2.638   2.049   2.059  0.00  0.00    +0.000 A 
BRANCH  16  23
ATOM     22  N   UNL     1       2.505  -1.569   1.707  0.00  0.00    +0.000 N 
ATOM     23  C   UNL     1       2.125  -0.279   1.467  0.00  0.00    +0.000 C 
ATOM     24  O   UNL     1       0.995  -0.013   1.076  0.00  0.00    +0.000 OA
ATOM     25  H   UNL     1       1.778  -2.269   1.620  0.00  0.00    +0.000 HD
ATOM     26  H   UNL     1       3.312  -1.803   2.266  0.00  0.00    +0.000 HD
ENDBRANCH  16  23
ENDBRANCH  15  19
ENDBRANCH   1  15
TORSDOF 5
