REMARK  Name = 
REMARK  6 active torsions:
REMARK  status: ('A' for Active; 'I' for Inactive)
REMARK    1  A    between atoms: C_2  and  C_4
REMARK    2  A    between atoms: C_7  and  N_8
REMARK    3  A    between atoms: N_8  and  C_9
REMARK    4  A    between atoms: C_9  and  C_10
REMARK    5  A    between atoms: C_10  and  C_11
REMARK    6  A    between atoms: C_15  and  C_16
REMARK                            x       y       z     vdW  Elec       q    Type
REMARK                         _______ _______ _______ _____ _____    ______ ____
ROOT
ATOM      1  C   UNL     1       4.664   4.024  -4.829  0.00  0.00    +0.000 C 
ENDROOT
BRANCH   1   2
ATOM      2  N   UNL     1       5.152   2.753  -4.301  0.00  0.00    +0.000 N 
ATOM      3  H   UNL     1       5.348   2.043  -5.005  0.00  0.00    +0.000 HD
BRANCH   2   7
ATOM      4  C   UNL     1       3.520   1.068  -0.786  0.00  0.00    +0.000 A 
ATOM      5  C   UNL     1       3.020   2.281  -1.263  0.00  0.00    +0.000 A 
ATOM      6  C   UNL     1       3.545   2.844  -2.432  0.00  0.00    +0.000 A 
ATOM      7  C   UNL     1       4.551   2.203  -3.165  0.00  0.00    +0.000 A 
ATOM      8  C   UNL     1       5.063   1.000  -2.653  0.00  0.00    +0.000 A 
ATOM      9  C   UNL     1       4.558   0.438  -1.475  0.00  0.00    +0.000 A 
BRANCH   4  11
ATOM     10  N   UNL     1       1.693   0.715   0.781  0.00  0.00    +0.000 N 
ATOM     11  C   UNL     1       2.996   0.450   0.458  0.00  0.00    +0.000 C 
ATOM     12  O   UNL     1       3.681  -0.294   1.148  0.00  0.00    +0.000 OA
ATOM     13  H   UNL     1       1.315   0.211   1.573  0.00  0.00    +0.000 HD
ATOM     14  H   UNL     1       1.041   1.102   0.115  0.00  0.00    +0.000 HD
ENDBRANCH   4  11
ENDBRANCH   2   7
ENDBRANCH   1   2
BRANCH   1  15
ATOM     15  C   UNL     1       5.451   4.441  -6.073  0.00  0.00    +0.000 C 
BRANCH  15  16
ATOM     16  C   UNL     1       4.992   5.786  -6.569  0.00  0.00    +0.000 A 
ATOM     17  C   UNL     1       5.587   6.959  -6.121  0.00  0.00    +0.000 A 
ATOM     18  N   UNL     1       5.191   8.195  -6.492  0.00  0.00    +0.000 NA
ATOM     19  C   UNL     1       4.151   8.271  -7.352  0.00  0.00    +0.000 A 
ATOM     20  C   UNL     1       3.472   7.169  -7.864  0.00  0.00    +0.000 A 
ATOM     21  C   UNL     1       3.913   5.906  -7.450  0.00  0.00    +0.000 A 
BRANCH  20  22
ATOM     22  C   UNL     1       2.323   7.349  -8.832  0.00  0.00    +0.000 C 
ATOM     23  C   UNL     1       1.007   6.770  -8.288  0.00  0.00    +0.000 C 
ATOM     24  C   UNL     1      -0.095   6.857  -9.336  0.00  0.00    +0.000 C 
ATOM     25  O   UNL     1       0.309   6.213 -10.543  0.00  0.00    +0.000 OA
ATOM     26  C   UNL     1       1.444   6.841 -11.135  0.00  0.00    +0.000 C 
ATOM     27  C   UNL     1       2.648   6.750 -10.209  0.00  0.00    +0.000 C 
ENDBRANCH  20  22
ENDBRANCH  15  16
ENDBRANCH   1  15
TORSDOF 6
