REMARK  Name = 
REMARK  6 active torsions:
REMARK  status: ('A' for Active; 'I' for Inactive)
REMARK    1  A    between atoms: C_1  and  C_2
REMARK    2  A    between atoms: C_2  and  C_3
REMARK    3  A    between atoms: C_2  and  N_9
REMARK    4  A    between atoms: N_9  and  C_10
REMARK    5  A    between atoms: N_9  and  C_11
REMARK    6  A    between atoms: C_14  and  C_15
REMARK                            x       y       z     vdW  Elec       q    Type
REMARK                         _______ _______ _______ _____ _____    ______ ____
ROOT
ATOM      1  C   UNL     1       4.516  -1.250   0.843  0.00  0.00    +0.000 A 
ATOM      2  N   UNL     1       5.178  -0.825  -0.271  0.00  0.00    +0.000 NA
ATOM      3  C   UNL     1       6.517  -1.076  -0.399  0.00  0.00    +0.000 A 
ATOM      4  C   UNL     1       7.280  -1.752   0.534  0.00  0.00    +0.000 A 
ATOM      5  C   UNL     1       6.625  -2.159   1.689  0.00  0.00    +0.000 A 
ATOM      6  C   UNL     1       5.261  -1.889   1.863  0.00  0.00    +0.000 A 
ATOM      7 CL   UNL     1       4.665  -2.295   3.441  0.00  0.00    +0.000 Cl
ENDROOT
BRANCH   4   8
ATOM      8  C   UNL     1       8.729  -2.067   0.399  0.00  0.00    +0.000 C 
ATOM      9  N   UNL     1       9.430  -1.516  -0.630  0.00  0.00    +0.000 N 
ATOM     10  O   UNL     1       9.291  -2.806   1.197  0.00  0.00    +0.000 OA
ATOM     11  H   UNL     1       9.094  -0.824  -1.276  0.00  0.00    +0.000 HD
ATOM     12  H   UNL     1      10.421  -1.732  -0.651  0.00  0.00    +0.000 HD
ENDBRANCH   4   8
BRANCH   1  13
ATOM     13  N   UNL     1       3.146  -1.015   0.891  0.00  0.00    +0.000 N 
ATOM     14  C   UNL     1       2.253  -1.927   1.607  0.00  0.00    +0.000 C 
BRANCH  13  16
ATOM     15  C   UNL     1       1.596  -0.553  -0.985  0.00  0.00    +0.000 C 
ATOM     16  C   UNL     1       2.533   0.063   0.077  0.00  0.00    +0.000 C 
BRANCH  16  17
ATOM     17  C   UNL     1       1.814   1.073   0.991  0.00  0.00    +0.000 A 
ATOM     18  C   UNL     1       2.294   1.318   2.291  0.00  0.00    +0.000 A 
ATOM     19  C   UNL     1       1.609   2.153   3.175  0.00  0.00    +0.000 A 
ATOM     20  C   UNL     1       0.450   2.799   2.763  0.00  0.00    +0.000 A 
ATOM     21  C   UNL     1      -0.003   2.636   1.457  0.00  0.00    +0.000 A 
ATOM     22  C   UNL     1       0.679   1.791   0.575  0.00  0.00    +0.000 A 
ENDBRANCH  16  17
ENDBRANCH  13  16
ENDBRANCH   1  13
TORSDOF 4
