REMARK  Name = 
REMARK  5 active torsions:
REMARK  status: ('A' for Active; 'I' for Inactive)
REMARK    1  A    between atoms: N_1  and  C_2
REMARK    2  A    between atoms: C_2  and  C_3
REMARK    3  A    between atoms: C_3  and  C_4
REMARK    4  A    between atoms: C_7  and  C_8
REMARK    5  A    between atoms: C_8  and  N_9
REMARK                            x       y       z     vdW  Elec       q    Type
REMARK                         _______ _______ _______ _____ _____    ______ ____
ROOT
ATOM      1  C   UNL     1       4.463   1.190  -0.916  0.00  0.00    +0.000 A 
ATOM      2  C   UNL     1       5.235   0.576  -1.911  0.00  0.00    +0.000 A 
ATOM      3  C   UNL     1       6.631   0.577  -1.830  0.00  0.00    +0.000 A 
ATOM      4  C   UNL     1       7.286   1.207  -0.762  0.00  0.00    +0.000 A 
ATOM      5  C   UNL     1       6.506   1.867   0.190  0.00  0.00    +0.000 A 
ATOM      6  F   UNL     1       7.094   2.550   1.182  0.00  0.00    +0.000 F 
ATOM      7  C   UNL     1       5.114   1.859   0.125  0.00  0.00    +0.000 A 
ENDROOT
BRANCH   1   8
ATOM      8  C   UNL     1       2.956   1.133  -0.967  0.00  0.00    +0.000 C 
BRANCH   8   9
ATOM      9  C   UNL     1       2.355   2.318  -1.728  0.00  0.00    +0.000 C 
BRANCH   9  10
ATOM     10  N   UNL     1       0.895   2.246  -1.737  0.00  0.00    +0.000 NA
ATOM     11  H   UNL     1       0.521   3.064  -2.217  0.00  0.00    +0.000 HD
ATOM     12  H   UNL     1       0.542   2.294  -0.781  0.00  0.00    +0.000 HD
ENDBRANCH   9  10
ENDBRANCH   8   9
ENDBRANCH   1   8
BRANCH   4  13
ATOM     13  C   UNL     1       8.784   1.175  -0.650  0.00  0.00    +0.000 C 
BRANCH  13  14
ATOM     14  N   UNL     1       9.278   0.018   0.100  0.00  0.00    +0.000 N 
ATOM     15  C   UNL     1       9.569  -1.203  -0.464  0.00  0.00    +0.000 A 
ATOM     16  C   UNL     1      10.237  -1.959   0.471  0.00  0.00    +0.000 A 
ATOM     17  C   UNL     1      10.356  -1.182   1.654  0.00  0.00    +0.000 A 
ATOM     18  C   UNL     1      10.958  -1.392   2.902  0.00  0.00    +0.000 A 
ATOM     19  N   UNL     1      10.915  -0.439   3.862  0.00  0.00    +0.000 NA
ATOM     20  C   UNL     1      10.270   0.717   3.598  0.00  0.00    +0.000 A 
ATOM     21  C   UNL     1       9.645   1.023   2.400  0.00  0.00    +0.000 A 
ATOM     22  C   UNL     1       9.720   0.036   1.409  0.00  0.00    +0.000 A 
ENDBRANCH  13  14
ENDBRANCH   4  13
TORSDOF 5
