REMARK  Name = 
REMARK  8 active torsions:
REMARK  status: ('A' for Active; 'I' for Inactive)
REMARK    1  A    between atoms: C_1  and  O_2
REMARK    2  A    between atoms: O_2  and  C_3
REMARK    3  A    between atoms: C_8  and  C_9
REMARK    4  A    between atoms: N_11  and  C_12
REMARK    5  A    between atoms: C_12  and  C_13
REMARK    6  A    between atoms: C_16  and  C_17
REMARK    7  A    between atoms: C_17  and  N_18
REMARK    8  A    between atoms: C_19  and  C_21
REMARK                            x       y       z     vdW  Elec       q    Type
REMARK                         _______ _______ _______ _____ _____    ______ ____
ROOT
ATOM      1  C   UNL     1       3.025   3.062   3.117  0.00  0.00    +0.000 A 
ATOM      2  C   UNL     1       1.671   2.707   3.199  0.00  0.00    +0.000 A 
ATOM      3  C   UNL     1       0.671   3.689   3.199  0.00  0.00    +0.000 A 
ATOM      4  C   UNL     1       1.004   5.047   3.097  0.00  0.00    +0.000 A 
ATOM      5  C   UNL     1       2.359   5.400   3.033  0.00  0.00    +0.000 A 
ATOM      6  C   UNL     1       3.357   4.419   3.030  0.00  0.00    +0.000 A 
ENDROOT
BRANCH   1   7
ATOM      7  C   UNL     1       4.105   2.008   3.102  0.00  0.00    +0.000 C 
BRANCH   7  10
ATOM      8  C   UNL     1       5.347   0.585   1.522  0.00  0.00    +0.000 C 
ATOM      9  O   UNL     1       6.006   0.085   2.428  0.00  0.00    +0.000 OA
ATOM     10  N   UNL     1       4.409   1.564   1.763  0.00  0.00    +0.000 N 
ATOM     11  H   UNL     1       3.902   1.958   0.979  0.00  0.00    +0.000 HD
BRANCH   8  17
ATOM     12  C   UNL     1       4.819   0.605  -1.012  0.00  0.00    +0.000 A 
ATOM     13  C   UNL     1       5.017   0.005  -2.267  0.00  0.00    +0.000 A 
ATOM     14  C   UNL     1       5.923  -1.045  -2.431  0.00  0.00    +0.000 A 
ATOM     15  C   UNL     1       6.656  -1.503  -1.345  0.00  0.00    +0.000 A 
ATOM     16  C   UNL     1       6.457  -0.931  -0.087  0.00  0.00    +0.000 A 
ATOM     17  C   UNL     1       5.527   0.111   0.104  0.00  0.00    +0.000 A 
BRANCH  12  19
ATOM     18  C   UNL     1       3.333   2.215  -1.970  0.00  0.00    +0.000 C 
ATOM     19  O   UNL     1       3.957   1.657  -0.818  0.00  0.00    +0.000 OA
ENDBRANCH  12  19
ENDBRANCH   8  17
ENDBRANCH   7  10
ENDBRANCH   1   7
BRANCH   4  20
ATOM     20  C   UNL     1      -0.059   6.120   3.080  0.00  0.00    +0.000 C 
BRANCH  20  21
ATOM     21  N   UNL     1      -0.347   6.600   4.407  0.00  0.00    +0.000 N 
ATOM     22  C   UNL     1      -1.317   7.546   4.633  0.00  0.00    +0.000 C 
ATOM     23  O   UNL     1      -2.003   8.009   3.725  0.00  0.00    +0.000 OA
ATOM     24  H   UNL     1       0.362   6.444   5.113  0.00  0.00    +0.000 HD
BRANCH  22  25
ATOM     25  C   UNL     1      -1.542   7.926   6.034  0.00  0.00    +0.000 A 
ATOM     26  C   UNL     1      -2.775   8.422   6.430  0.00  0.00    +0.000 A 
ATOM     27  S   UNL     1      -2.875   8.752   8.103  0.00  0.00    +0.000 S 
ATOM     28  C   UNL     1      -1.254   8.296   8.345  0.00  0.00    +0.000 A 
ATOM     29  N   UNL     1      -0.683   8.368   9.577  0.00  0.00    +0.000 NA
ATOM     30  C   UNL     1       0.561   8.019   9.608  0.00  0.00    +0.000 A 
ATOM     31  N   UNL     1       1.283   7.601   8.520  0.00  0.00    +0.000 N 
ATOM     32  C   UNL     1       0.740   7.485   7.264  0.00  0.00    +0.000 A 
ATOM     33  O   UNL     1       1.403   7.065   6.319  0.00  0.00    +0.000 OA
ATOM     34  C   UNL     1      -0.653   7.877   7.169  0.00  0.00    +0.000 A 
ATOM     35  H   UNL     1       2.251   7.334   8.612  0.00  0.00    +0.000 HD
ENDBRANCH  22  25
ENDBRANCH  20  21
ENDBRANCH   4  20
TORSDOF 7
