REMARK  Name = 
REMARK  6 active torsions:
REMARK  status: ('A' for Active; 'I' for Inactive)
REMARK    1  A    between atoms: C_2  and  C_19
REMARK    2  A    between atoms: N_3  and  C_4
REMARK    3  A    between atoms: C_4  and  C_5
REMARK    4  A    between atoms: C_8  and  C_9
REMARK    5  A    between atoms: C_9  and  O_10
REMARK    6  A    between atoms: O_10  and  C_11
REMARK                            x       y       z     vdW  Elec       q    Type
REMARK                         _______ _______ _______ _____ _____    ______ ____
ROOT
ATOM      1  O   UNL     1       2.033   3.217   0.247  0.00  0.00    +0.000 OA
ATOM      2  C   UNL     1       2.692   2.215  -0.009  0.00  0.00    +0.000 C 
ATOM      3  N   UNL     1       2.875   1.198   0.891  0.00  0.00    +0.000 N 
ATOM      4  H   UNL     1       3.570   0.480   0.707  0.00  0.00    +0.000 HD
ENDROOT
BRANCH   2   5
ATOM      5  C   UNL     1       3.295   2.026  -1.328  0.00  0.00    +0.000 A 
ATOM      6  C   UNL     1       2.729   2.585  -2.464  0.00  0.00    +0.000 A 
ATOM      7  S   UNL     1       3.626   2.277  -3.884  0.00  0.00    +0.000 S 
ATOM      8  C   UNL     1       4.806   1.406  -3.016  0.00  0.00    +0.000 A 
ATOM      9  N   UNL     1       5.893   0.876  -3.633  0.00  0.00    +0.000 NA
ATOM     10  C   UNL     1       6.712   0.271  -2.836  0.00  0.00    +0.000 A 
ATOM     11  N   UNL     1       6.544   0.140  -1.486  0.00  0.00    +0.000 N 
ATOM     12  C   UNL     1       5.428   0.598  -0.833  0.00  0.00    +0.000 A 
ATOM     13  O   UNL     1       5.245   0.336   0.353  0.00  0.00    +0.000 OA
ATOM     14  C   UNL     1       4.504   1.324  -1.670  0.00  0.00    +0.000 A 
ATOM     15  H   UNL     1       7.200  -0.383  -0.920  0.00  0.00    +0.000 HD
ENDBRANCH   2   5
BRANCH   3  16
ATOM     16  C   UNL     1       2.338   1.265   2.223  0.00  0.00    +0.000 C 
BRANCH  16  17
ATOM     17  C   UNL     1       3.274   1.885   3.218  0.00  0.00    +0.000 A 
ATOM     18  C   UNL     1       3.299   3.264   3.431  0.00  0.00    +0.000 A 
ATOM     19  C   UNL     1       4.117   3.803   4.424  0.00  0.00    +0.000 A 
ATOM     20  C   UNL     1       4.919   2.949   5.178  0.00  0.00    +0.000 A 
ATOM     21  N   UNL     1       4.939   1.608   4.964  0.00  0.00    +0.000 NA
ATOM     22  C   UNL     1       4.127   1.114   3.999  0.00  0.00    +0.000 A 
BRANCH  20  23
ATOM     23  C   UNL     1       5.813   3.496   6.276  0.00  0.00    +0.000 C 
BRANCH  23  24
ATOM     24  O   UNL     1       5.096   3.559   7.512  0.00  0.00    +0.000 OA
BRANCH  24  25
ATOM     25  C   UNL     1       5.766   4.041   8.606  0.00  0.00    +0.000 A 
ATOM     26  C   UNL     1       7.094   4.471   8.641  0.00  0.00    +0.000 A 
ATOM     27  C   UNL     1       7.638   4.985   9.826  0.00  0.00    +0.000 A 
ATOM     28  C   UNL     1       6.860   5.073  10.980  0.00  0.00    +0.000 A 
ATOM     29  C   UNL     1       5.540   4.634  10.955  0.00  0.00    +0.000 A 
ATOM     30  C   UNL     1       5.001   4.112   9.775  0.00  0.00    +0.000 A 
ENDBRANCH  24  25
ENDBRANCH  23  24
ENDBRANCH  20  23
ENDBRANCH  16  17
ENDBRANCH   3  16
TORSDOF 6
