REMARK  Name = 
REMARK  8 active torsions:
REMARK  status: ('A' for Active; 'I' for Inactive)
REMARK    1  A    between atoms: C_1  and  O_2
REMARK    2  A    between atoms: O_2  and  C_3
REMARK    3  A    between atoms: C_6  and  C_7
REMARK    4  A    between atoms: C_7  and  O_8
REMARK    5  A    between atoms: C_7  and  C_9
REMARK    6  A    between atoms: C_9  and  O_10
REMARK    7  A    between atoms: O_10  and  C_11
REMARK    8  A    between atoms: C_14  and  C_15
REMARK                            x       y       z     vdW  Elec       q    Type
REMARK                         _______ _______ _______ _____ _____    ______ ____
ROOT
ATOM      1  C   UNL     1       4.850  -3.581   4.767  0.00  0.00    +0.000 C 
ENDROOT
BRANCH   1   2
ATOM      2  C   UNL     1       5.443  -2.268   4.227  0.00  0.00    +0.000 C 
BRANCH   2   6
ATOM      3  C   UNL     1       2.937  -0.604   1.084  0.00  0.00    +0.000 A 
ATOM      4  C   UNL     1       4.250  -0.987   0.816  0.00  0.00    +0.000 A 
ATOM      5  C   UNL     1       5.055  -1.522   1.832  0.00  0.00    +0.000 A 
ATOM      6  C   UNL     1       4.559  -1.687   3.134  0.00  0.00    +0.000 A 
ATOM      7  C   UNL     1       3.230  -1.310   3.386  0.00  0.00    +0.000 A 
ATOM      8  C   UNL     1       2.432  -0.772   2.372  0.00  0.00    +0.000 A 
BRANCH   3  10
ATOM      9  C   UNL     1       2.534   0.158  -1.131  0.00  0.00    +0.000 C 
ATOM     10  O   UNL     1       2.057  -0.057   0.192  0.00  0.00    +0.000 OA
ENDBRANCH   3  10
ENDBRANCH   2   6
BRANCH   2  11
ATOM     11  O   UNL     1       5.590  -1.323   5.289  0.00  0.00    +0.000 OA
ATOM     12  H   UNL     1       4.743  -0.868   5.419  0.00  0.00    +0.000 HD
ENDBRANCH   2  11
ENDBRANCH   1   2
BRANCH   1  13
ATOM     13  O   UNL     1       5.688  -4.179   5.770  0.00  0.00    +0.000 OA
BRANCH  13  14
ATOM     14  C   UNL     1       5.187  -5.329   6.314  0.00  0.00    +0.000 A 
ATOM     15  C   UNL     1       4.012  -5.963   5.962  0.00  0.00    +0.000 A 
ATOM     16  N   UNL     1       3.562  -7.105   6.515  0.00  0.00    +0.000 NA
ATOM     17  C   UNL     1       4.353  -7.631   7.479  0.00  0.00    +0.000 A 
ATOM     18  N   UNL     1       5.515  -7.107   7.916  0.00  0.00    +0.000 NA
ATOM     19  C   UNL     1       5.903  -5.957   7.315  0.00  0.00    +0.000 A 
BRANCH  17  20
ATOM     20  C   UNL     1       3.853  -8.920   8.091  0.00  0.00    +0.000 C 
ATOM     21  N   UNL     1       2.660  -9.386   7.586  0.00  0.00    +0.000 N 
ATOM     22  O   UNL     1       4.440  -9.537   8.975  0.00  0.00    +0.000 OA
ATOM     23  H   UNL     1       2.181  -8.872   6.853  0.00  0.00    +0.000 HD
ATOM     24  H   UNL     1       2.278 -10.242   7.953  0.00  0.00    +0.000 HD
ENDBRANCH  17  20
ENDBRANCH  13  14
ENDBRANCH   1  13
TORSDOF 7
