REMARK  Name = 
REMARK  5 active torsions:
REMARK  status: ('A' for Active; 'I' for Inactive)
REMARK    1  A    between atoms: N_1  and  C_2
REMARK    2  A    between atoms: C_2  and  C_3
REMARK    3  A    between atoms: N_6  and  C_7
REMARK    4  A    between atoms: C_7  and  N_8
REMARK    5  A    between atoms: C_14  and  O_15
REMARK                            x       y       z     vdW  Elec       q    Type
REMARK                         _______ _______ _______ _____ _____    ______ ____
ROOT
ATOM      1  C   UNL     1       1.149   4.527   0.300  0.00  0.00    +0.000 C 
ENDROOT
BRANCH   1   2
ATOM      2  N   UNL     1       0.166   5.213  -0.540  0.00  0.00    +0.000 N 
ATOM      3  C   UNL     1       0.474   6.148  -1.499  0.00  0.00    +0.000 A 
ATOM      4  C   UNL     1      -0.691   6.514  -2.130  0.00  0.00    +0.000 A 
ATOM      5  C   UNL     1      -1.758   5.802  -1.518  0.00  0.00    +0.000 A 
ATOM      6  C   UNL     1      -3.147   5.744  -1.754  0.00  0.00    +0.000 A 
ATOM      7  C   UNL     1      -3.951   4.923  -0.953  0.00  0.00    +0.000 A 
ATOM      8  C   UNL     1      -3.380   4.196   0.083  0.00  0.00    +0.000 A 
ATOM      9  C   UNL     1      -2.014   4.248   0.356  0.00  0.00    +0.000 A 
ATOM     10  C   UNL     1      -1.206   5.036  -0.483  0.00  0.00    +0.000 A 
BRANCH   8  11
ATOM     11  O   UNL     1      -4.140   3.376   0.869  0.00  0.00    +0.000 OA
ATOM     12  H   UNL     1      -5.009   3.272   0.449  0.00  0.00    +0.000 HD
ENDBRANCH   8  11
ENDBRANCH   1   2
BRANCH   1  16
ATOM     13  C   UNL     1       3.183   0.966  -1.049  0.00  0.00    +0.000 C 
ATOM     14  C   UNL     1       3.970   2.076  -0.339  0.00  0.00    +0.000 C 
ATOM     15  C   UNL     1       3.052   3.078   0.368  0.00  0.00    +0.000 C 
ATOM     16  N   UNL     1       2.038   3.671  -0.521  0.00  0.00    +0.000 NA
ATOM     17  C   UNL     1       1.276   2.642  -1.255  0.00  0.00    +0.000 C 
ATOM     18  C   UNL     1       2.175   1.642  -1.986  0.00  0.00    +0.000 C 
BRANCH  13  19
ATOM     19  C   UNL     1       2.544   0.005  -0.031  0.00  0.00    +0.000 C 
BRANCH  19  20
ATOM     20  N   UNL     1       1.789  -1.067  -0.665  0.00  0.00    +0.000 NA
ATOM     21  H   UNL     1       1.416  -1.697   0.045  0.00  0.00    +0.000 HD
ATOM     22  H   UNL     1       2.414  -1.633  -1.244  0.00  0.00    +0.000 HD
ENDBRANCH  19  20
ENDBRANCH  13  19
ENDBRANCH   1  16
TORSDOF 5
