REMARK  Name = 
REMARK  7 active torsions:
REMARK  status: ('A' for Active; 'I' for Inactive)
REMARK    1  A    between atoms: C_1  and  C_2
REMARK    2  A    between atoms: C_2  and  N_3
REMARK    3  A    between atoms: C_2  and  C_16
REMARK    4  A    between atoms: C_4  and  C_6
REMARK    5  A    between atoms: C_19  and  C_20
REMARK    6  A    between atoms: C_20  and  N_21
REMARK    7  A    between atoms: C_22  and  C_24
REMARK                            x       y       z     vdW  Elec       q    Type
REMARK                         _______ _______ _______ _____ _____    ______ ____
ROOT
ATOM      1  C   UNL     1       3.528  -1.197   0.406  0.00  0.00    +0.000 C 
ATOM      2  C   UNL     1       2.525  -0.079   0.107  0.00  0.00    +0.000 C 
ENDROOT
BRANCH   2   3
ATOM      3  C   UNL     1       2.998   0.943  -0.917  0.00  0.00    +0.000 A 
ATOM      4  C   UNL     1       2.547   2.269  -0.809  0.00  0.00    +0.000 A 
ATOM      5  C   UNL     1       2.911   3.239  -1.751  0.00  0.00    +0.000 A 
ATOM      6  C   UNL     1       3.724   2.904  -2.839  0.00  0.00    +0.000 A 
ATOM      7  C   UNL     1       4.195   1.589  -2.942  0.00  0.00    +0.000 A 
ATOM      8  C   UNL     1       3.825   0.618  -2.002  0.00  0.00    +0.000 A 
BRANCH   6   9
ATOM      9  C   UNL     1       4.044   3.922  -3.901  0.00  0.00    +0.000 C 
BRANCH   9  10
ATOM     10  N   UNL     1       5.246   4.666  -3.642  0.00  0.00    +0.000 N 
ATOM     11  C   UNL     1       5.682   5.619  -4.534  0.00  0.00    +0.000 C 
ATOM     12  O   UNL     1       5.111   5.865  -5.593  0.00  0.00    +0.000 OA
ATOM     13  H   UNL     1       5.769   4.559  -2.777  0.00  0.00    +0.000 HD
BRANCH  11  14
ATOM     14  C   UNL     1       6.892   6.323  -4.104  0.00  0.00    +0.000 A 
ATOM     15  C   UNL     1       7.548   7.325  -4.795  0.00  0.00    +0.000 A 
ATOM     16  N   UNL     1       8.615   7.672  -4.014  0.00  0.00    +0.000 N 
ATOM     17  C   UNL     1       8.577   6.890  -2.895  0.00  0.00    +0.000 A 
ATOM     18  N   UNL     1       7.553   6.066  -2.910  0.00  0.00    +0.000 NA
ATOM     19  H   UNL     1       9.307   8.379  -4.224  0.00  0.00    +0.000 HD
ENDBRANCH  11  14
ENDBRANCH   9  10
ENDBRANCH   6   9
ENDBRANCH   2   3
BRANCH   2  20
ATOM     20  N   UNL     1       1.251  -0.637  -0.314  0.00  0.00    +0.000 N 
ATOM     21  C   UNL     1       0.320  -1.091   0.589  0.00  0.00    +0.000 C 
ATOM     22  O   UNL     1       0.471  -0.974   1.802  0.00  0.00    +0.000 OA
ATOM     23  H   UNL     1       1.163  -0.892  -1.291  0.00  0.00    +0.000 HD
BRANCH  21  24
ATOM     24  C   UNL     1      -0.903  -1.677   0.030  0.00  0.00    +0.000 A 
ATOM     25  C   UNL     1      -2.088  -1.616   0.750  0.00  0.00    +0.000 A 
ATOM     26  S   UNL     1      -3.410  -2.341  -0.046  0.00  0.00    +0.000 S 
ATOM     27  C   UNL     1      -2.432  -2.812  -1.356  0.00  0.00    +0.000 A 
ATOM     28  N   UNL     1      -2.946  -3.529  -2.391  0.00  0.00    +0.000 NA
ATOM     29  C   UNL     1      -2.082  -3.859  -3.292  0.00  0.00    +0.000 A 
ATOM     30  N   UNL     1      -0.752  -3.524  -3.259  0.00  0.00    +0.000 N 
ATOM     31  C   UNL     1      -0.201  -2.749  -2.265  0.00  0.00    +0.000 A 
ATOM     32  O   UNL     1       0.970  -2.384  -2.313  0.00  0.00    +0.000 OA
ATOM     33  C   UNL     1      -1.123  -2.389  -1.205  0.00  0.00    +0.000 A 
ATOM     34  H   UNL     1      -0.135  -3.793  -4.010  0.00  0.00    +0.000 HD
ENDBRANCH  21  24
ENDBRANCH   2  20
TORSDOF 6
