REMARK  Name = 
REMARK  6 active torsions:
REMARK  status: ('A' for Active; 'I' for Inactive)
REMARK    1  A    between atoms: C_2  and  C_19
REMARK    2  A    between atoms: N_3  and  C_4
REMARK    3  A    between atoms: C_4  and  C_5
REMARK    4  A    between atoms: C_8  and  C_9
REMARK    5  A    between atoms: C_9  and  O_10
REMARK    6  A    between atoms: O_10  and  C_11
REMARK                            x       y       z     vdW  Elec       q    Type
REMARK                         _______ _______ _______ _____ _____    ______ ____
ROOT
ATOM      1  O   UNL     1      -0.346   3.061  -1.695  0.00  0.00    +0.000 OA
ATOM      2  C   UNL     1       0.277   2.222  -2.337  0.00  0.00    +0.000 C 
ATOM      3  N   UNL     1       1.510   1.762  -1.954  0.00  0.00    +0.000 N 
ATOM      4  H   UNL     1       2.055   1.211  -2.606  0.00  0.00    +0.000 HD
ENDROOT
BRANCH   2   5
ATOM      5  C   UNL     1      -0.293   1.601  -3.541  0.00  0.00    +0.000 A 
ATOM      6  C   UNL     1      -1.668   1.598  -3.733  0.00  0.00    +0.000 A 
ATOM      7  S   UNL     1      -2.156   0.808  -5.163  0.00  0.00    +0.000 S 
ATOM      8  C   UNL     1      -0.543   0.487  -5.601  0.00  0.00    +0.000 A 
ATOM      9  N   UNL     1      -0.248  -0.155  -6.764  0.00  0.00    +0.000 NA
ATOM     10  C   UNL     1       1.016  -0.286  -6.995  0.00  0.00    +0.000 A 
ATOM     11  N   UNL     1       2.012   0.156  -6.165  0.00  0.00    +0.000 N 
ATOM     12  C   UNL     1       1.760   0.733  -4.944  0.00  0.00    +0.000 A 
ATOM     13  O   UNL     1       2.674   0.985  -4.164  0.00  0.00    +0.000 OA
ATOM     14  C   UNL     1       0.354   0.953  -4.657  0.00  0.00    +0.000 A 
ATOM     15  H   UNL     1       2.983  -0.007  -6.387  0.00  0.00    +0.000 HD
ENDBRANCH   2   5
BRANCH   3  16
ATOM     16  C   UNL     1       2.232   2.297  -0.829  0.00  0.00    +0.000 C 
BRANCH  16  17
ATOM     17  C   UNL     1       3.168   3.401  -1.246  0.00  0.00    +0.000 A 
ATOM     18  C   UNL     1       2.735   4.732  -1.229  0.00  0.00    +0.000 A 
ATOM     19  C   UNL     1       3.599   5.766  -1.595  0.00  0.00    +0.000 A 
ATOM     20  C   UNL     1       4.908   5.488  -2.009  0.00  0.00    +0.000 A 
ATOM     21  C   UNL     1       5.340   4.155  -2.037  0.00  0.00    +0.000 A 
ATOM     22  C   UNL     1       4.474   3.120  -1.671  0.00  0.00    +0.000 A 
BRANCH  20  23
ATOM     23  C   UNL     1       5.832   6.608  -2.421  0.00  0.00    +0.000 C 
BRANCH  23  24
ATOM     24  O   UNL     1       6.531   7.100  -1.278  0.00  0.00    +0.000 OA
BRANCH  24  25
ATOM     25  C   UNL     1       7.378   8.156  -1.488  0.00  0.00    +0.000 A 
ATOM     26  C   UNL     1       7.667   8.740  -2.719  0.00  0.00    +0.000 A 
ATOM     27  C   UNL     1       8.551   9.808  -2.749  0.00  0.00    +0.000 A 
ATOM     28  N   UNL     1       9.153  10.318  -1.654  0.00  0.00    +0.000 NA
ATOM     29  C   UNL     1       8.857   9.733  -0.476  0.00  0.00    +0.000 A 
ATOM     30  C   UNL     1       7.989   8.663  -0.345  0.00  0.00    +0.000 A 
ENDBRANCH  24  25
ENDBRANCH  23  24
ENDBRANCH  20  23
ENDBRANCH  16  17
ENDBRANCH   3  16
TORSDOF 6
