REMARK  Name = 
REMARK  7 active torsions:
REMARK  status: ('A' for Active; 'I' for Inactive)
REMARK    1  A    between atoms: C_2  and  C_19
REMARK    2  A    between atoms: N_3  and  C_4
REMARK    3  A    between atoms: C_4  and  C_5
REMARK    4  A    between atoms: C_8  and  C_9
REMARK    5  A    between atoms: C_9  and  C_10
REMARK    6  A    between atoms: C_10  and  N_11
REMARK    7  A    between atoms: N_11  and  C_12
REMARK                            x       y       z     vdW  Elec       q    Type
REMARK                         _______ _______ _______ _____ _____    ______ ____
ROOT
ATOM      1  C   UNL     1       2.333   0.694   2.374  0.00  0.00    +0.000 C 
ENDROOT
BRANCH   1   2
ATOM      2  C   UNL     1       3.298   1.048   3.465  0.00  0.00    +0.000 A 
ATOM      3  C   UNL     1       3.527   2.369   3.855  0.00  0.00    +0.000 A 
ATOM      4  C   UNL     1       4.408   2.649   4.902  0.00  0.00    +0.000 A 
ATOM      5  C   UNL     1       5.056   1.594   5.532  0.00  0.00    +0.000 A 
ATOM      6  N   UNL     1       4.869   0.308   5.138  0.00  0.00    +0.000 NA
ATOM      7  C   UNL     1       4.015   0.064   4.124  0.00  0.00    +0.000 A 
BRANCH   5   8
ATOM      8  C   UNL     1       5.990   1.837   6.709  0.00  0.00    +0.000 C 
BRANCH   8   9
ATOM      9  C   UNL     1       6.557   0.502   7.223  0.00  0.00    +0.000 C 
BRANCH   9  10
ATOM     10  N   UNL     1       7.426   0.575   8.407  0.00  0.00    +0.000 NA
ATOM     11  H   UNL     1       6.911   0.955   9.201  0.00  0.00    +0.000 HD
BRANCH  10  12
ATOM     12  C   UNL     1       7.944  -0.771   8.749  0.00  0.00    +0.000 C 
ATOM     13  C   UNL     1       6.894  -1.798   9.180  0.00  0.00    +0.000 C 
ATOM     14  C   UNL     1       6.831  -1.653  10.682  0.00  0.00    +0.000 C 
ATOM     15  N   UNL     1       8.220  -1.442  11.091  0.00  0.00    +0.000 NA
ATOM     16  C   UNL     1       8.878  -0.726   9.979  0.00  0.00    +0.000 C 
ATOM     17  H   UNL     1       8.670  -2.351  11.199  0.00  0.00    +0.000 HD
ENDBRANCH  10  12
ENDBRANCH   9  10
ENDBRANCH   8   9
ENDBRANCH   5   8
ENDBRANCH   1   2
BRANCH   1  20
ATOM     18  O   UNL     1       2.412   2.861   0.592  0.00  0.00    +0.000 OA
ATOM     19  C   UNL     1       2.992   1.823   0.290  0.00  0.00    +0.000 C 
ATOM     20  N   UNL     1       2.959   0.703   1.080  0.00  0.00    +0.000 N 
ATOM     21  H   UNL     1       3.600  -0.058   0.880  0.00  0.00    +0.000 HD
BRANCH  19  22
ATOM     22  C   UNL     1       3.721   1.697  -0.974  0.00  0.00    +0.000 A 
ATOM     23  C   UNL     1       3.364   2.476  -2.064  0.00  0.00    +0.000 A 
ATOM     24  S   UNL     1       4.329   2.200  -3.444  0.00  0.00    +0.000 S 
ATOM     25  C   UNL     1       5.278   1.054  -2.617  0.00  0.00    +0.000 A 
ATOM     26  N   UNL     1       6.329   0.439  -3.228  0.00  0.00    +0.000 NA
ATOM     27  C   UNL     1       6.984  -0.373  -2.467  0.00  0.00    +0.000 A 
ATOM     28  N   UNL     1       6.676  -0.638  -1.158  0.00  0.00    +0.000 N 
ATOM     29  C   UNL     1       5.575  -0.101  -0.527  0.00  0.00    +0.000 A 
ATOM     30  O   UNL     1       5.237  -0.490   0.588  0.00  0.00    +0.000 OA
ATOM     31  C   UNL     1       4.841   0.859  -1.320  0.00  0.00    +0.000 A 
ATOM     32  H   UNL     1       7.208  -1.317  -0.630  0.00  0.00    +0.000 HD
ENDBRANCH  19  22
ENDBRANCH   1  20
TORSDOF 7
