REMARK  Name = 
REMARK  10 active torsions:
REMARK  status: ('A' for Active; 'I' for Inactive)
REMARK    1  A    between atoms: C_1  and  C_2
REMARK    2  A    between atoms: C_2  and  N_3
REMARK    3  A    between atoms: C_2  and  C_19
REMARK    4  A    between atoms: N_3  and  C_4
REMARK    5  A    between atoms: C_4  and  C_5
REMARK    6  A    between atoms: C_8  and  C_9
REMARK    7  A    between atoms: C_9  and  O_10
REMARK    8  A    between atoms: C_9  and  C_11
REMARK    9  A    between atoms: C_11  and  N_12
REMARK   10  A    between atoms: C_19  and  C_21
REMARK                            x       y       z     vdW  Elec       q    Type
REMARK                         _______ _______ _______ _____ _____    ______ ____
ROOT
ATOM      1  N   UNL     1       3.182   2.475   0.383  0.00  0.00    +0.000 NA
ATOM      2  H   UNL     1       3.204   3.494   0.387  0.00  0.00    +0.000 HD
ENDROOT
BRANCH   1   4
ATOM      3  C   UNL     1       1.502   2.576  -1.461  0.00  0.00    +0.000 C 
ATOM      4  C   UNL     1       2.847   2.020  -0.985  0.00  0.00    +0.000 C 
BRANCH   4   5
ATOM      5  C   UNL     1       2.931   0.482  -1.142  0.00  0.00    +0.000 C 
ATOM      6  O   UNL     1       1.914  -0.178  -1.366  0.00  0.00    +0.000 OA
BRANCH   5   7
ATOM      7  C   UNL     1       4.230  -0.201  -0.995  0.00  0.00    +0.000 A 
ATOM      8  C   UNL     1       5.248   0.230  -0.160  0.00  0.00    +0.000 A 
ATOM      9  S   UNL     1       6.540  -0.883  -0.037  0.00  0.00    +0.000 S 
ATOM     10  C   UNL     1       5.793  -1.955  -1.127  0.00  0.00    +0.000 A 
ATOM     11  N   UNL     1       6.352  -3.156  -1.430  0.00  0.00    +0.000 NA
ATOM     12  C   UNL     1       5.659  -3.865  -2.260  0.00  0.00    +0.000 A 
ATOM     13  N   UNL     1       4.481  -3.467  -2.840  0.00  0.00    +0.000 N 
ATOM     14  C   UNL     1       3.961  -2.202  -2.675  0.00  0.00    +0.000 A 
ATOM     15  O   UNL     1       3.102  -1.764  -3.431  0.00  0.00    +0.000 OA
ATOM     16  C   UNL     1       4.615  -1.436  -1.630  0.00  0.00    +0.000 A 
ATOM     17  H   UNL     1       4.052  -4.025  -3.562  0.00  0.00    +0.000 HD
ENDBRANCH   5   7
ENDBRANCH   4   5
ENDBRANCH   1   4
BRANCH   1  18
ATOM     18  C   UNL     1       2.258   2.026   1.427  0.00  0.00    +0.000 C 
BRANCH  18  19
ATOM     19  C   UNL     1       2.695   2.519   2.787  0.00  0.00    +0.000 A 
ATOM     20  C   UNL     1       2.804   3.892   3.058  0.00  0.00    +0.000 A 
ATOM     21  C   UNL     1       3.188   4.344   4.323  0.00  0.00    +0.000 A 
ATOM     22  C   UNL     1       3.454   3.436   5.354  0.00  0.00    +0.000 A 
ATOM     23  C   UNL     1       3.340   2.061   5.086  0.00  0.00    +0.000 A 
ATOM     24  C   UNL     1       2.970   1.609   3.815  0.00  0.00    +0.000 A 
BRANCH  22  25
ATOM     25  C   UNL     1       3.828   3.941   6.730  0.00  0.00    +0.000 C 
BRANCH  25  26
ATOM     26  O   UNL     1       2.849   3.444   7.645  0.00  0.00    +0.000 OA
ATOM     27  H   UNL     1       3.251   2.693   8.110  0.00  0.00    +0.000 HD
ENDBRANCH  25  26
BRANCH  25  28
ATOM     28  C   UNL     1       5.280   3.543   7.129  0.00  0.00    +0.000 C 
BRANCH  28  29
ATOM     29  N   UNL     1       5.713   3.964   8.484  0.00  0.00    +0.000 NA
ATOM     30  C   UNL     1       5.735   5.426   8.659  0.00  0.00    +0.000 C 
ATOM     31  C   UNL     1       7.081   5.864   8.118  0.00  0.00    +0.000 C 
ATOM     32  C   UNL     1       8.002   4.765   8.606  0.00  0.00    +0.000 C 
ATOM     33  C   UNL     1       7.107   3.533   8.736  0.00  0.00    +0.000 C 
ENDBRANCH  28  29
ENDBRANCH  25  28
ENDBRANCH  22  25
ENDBRANCH  18  19
ENDBRANCH   1  18
TORSDOF 9
