REMARK  Name = 
REMARK  5 active torsions:
REMARK  status: ('A' for Active; 'I' for Inactive)
REMARK    1  A    between atoms: C_2  and  C_4
REMARK    2  A    between atoms: C_7  and  O_8
REMARK    3  A    between atoms: O_8  and  C_9
REMARK    4  A    between atoms: C_9  and  C_10
REMARK    5  A    between atoms: C_14  and  C_15
REMARK                            x       y       z     vdW  Elec       q    Type
REMARK                         _______ _______ _______ _____ _____    ______ ____
ROOT
ATOM      1  C   UNL     1       6.267  -2.326  -4.572  0.00  0.00    +0.000 C 
ENDROOT
BRANCH   1   2
ATOM      2  C   UNL     1       6.915  -2.530  -5.915  0.00  0.00    +0.000 A 
ATOM      3  C   UNL     1       7.389  -1.442  -6.654  0.00  0.00    +0.000 A 
ATOM      4  C   UNL     1       8.012  -1.652  -7.880  0.00  0.00    +0.000 A 
ATOM      5  C   UNL     1       8.191  -2.950  -8.364  0.00  0.00    +0.000 A 
ATOM      6  C   UNL     1       7.769  -4.073  -7.628  0.00  0.00    +0.000 A 
ATOM      7  C   UNL     1       7.110  -3.831  -6.409  0.00  0.00    +0.000 A 
BRANCH   6   8
ATOM      8  C   UNL     1       8.080  -5.454  -8.066  0.00  0.00    +0.000 A 
ATOM      9  C   UNL     1       9.284  -5.743  -8.737  0.00  0.00    +0.000 A 
ATOM     10  C   UNL     1       9.643  -7.052  -9.078  0.00  0.00    +0.000 A 
ATOM     11  C   UNL     1       8.801  -8.107  -8.744  0.00  0.00    +0.000 A 
ATOM     12  C   UNL     1       7.604  -7.839  -8.097  0.00  0.00    +0.000 A 
ATOM     13  F   UNL     1       6.795  -8.855  -7.762  0.00  0.00    +0.000 F 
ATOM     14  C   UNL     1       7.234  -6.536  -7.768  0.00  0.00    +0.000 A 
ENDBRANCH   6   8
ENDBRANCH   1   2
BRANCH   1  15
ATOM     15  O   UNL     1       7.274  -2.432  -3.566  0.00  0.00    +0.000 OA
BRANCH  15  19
ATOM     16  C   UNL     1       6.268  -2.007   0.352  0.00  0.00    +0.000 A 
ATOM     17  N   UNL     1       5.245  -1.883  -0.529  0.00  0.00    +0.000 NA
ATOM     18  C   UNL     1       5.580  -2.022  -1.828  0.00  0.00    +0.000 A 
ATOM     19  C   UNL     1       6.862  -2.278  -2.280  0.00  0.00    +0.000 A 
ATOM     20  C   UNL     1       7.815  -2.384  -1.285  0.00  0.00    +0.000 A 
ATOM     21  N   UNL     1       7.553  -2.254   0.033  0.00  0.00    +0.000 NA
BRANCH  16  23
ATOM     22  N   UNL     1       4.583  -1.632   2.084  0.00  0.00    +0.000 N 
ATOM     23  C   UNL     1       5.915  -1.865   1.814  0.00  0.00    +0.000 C 
ATOM     24  O   UNL     1       6.724  -1.945   2.729  0.00  0.00    +0.000 OA
ATOM     25  H   UNL     1       4.289  -1.546   3.046  0.00  0.00    +0.000 HD
ATOM     26  H   UNL     1       3.909  -1.583   1.329  0.00  0.00    +0.000 HD
ENDBRANCH  16  23
ENDBRANCH  15  19
ENDBRANCH   1  15
TORSDOF 5
