REMARK  Name = 
REMARK  4 active torsions:
REMARK  status: ('A' for Active; 'I' for Inactive)
REMARK    1  A    between atoms: C_1  and  C_2
REMARK    2  A    between atoms: C_2  and  N_3
REMARK    3  A    between atoms: C_2  and  C_13
REMARK    4  A    between atoms: C_8  and  C_9
REMARK                            x       y       z     vdW  Elec       q    Type
REMARK                         _______ _______ _______ _____ _____    ______ ____
ROOT
ATOM      1  N   UNL     1       2.898  -0.673   1.421  0.00  0.00    +0.000 N 
ATOM      2  C   UNL     1       3.042   0.238   2.478  0.00  0.00    +0.000 A 
ATOM      3  C   UNL     1       3.334  -0.228   3.778  0.00  0.00    +0.000 A 
ATOM      4  N   UNL     1       3.459   0.587   4.859  0.00  0.00    +0.000 NA
ATOM      5  C   UNL     1       3.318   1.906   4.592  0.00  0.00    +0.000 A 
ATOM      6  C   UNL     1       3.078   2.388   3.307  0.00  0.00    +0.000 A 
ATOM      7  N   UNL     1       2.913   1.560   2.241  0.00  0.00    +0.000 NA
ATOM      8  H   UNL     1       3.751  -1.229   1.358  0.00  0.00    +0.000 HD
ENDROOT
BRANCH   6   9
ATOM      9  C   UNL     1       3.041   3.849   3.042  0.00  0.00    +0.000 C 
ATOM     10  N   UNL     1       2.831   4.302   1.763  0.00  0.00    +0.000 N 
ATOM     11  O   UNL     1       3.207   4.669   3.957  0.00  0.00    +0.000 OA
ATOM     12  H   UNL     1       2.671   3.684   0.978  0.00  0.00    +0.000 HD
ATOM     13  H   UNL     1       2.783   5.299   1.620  0.00  0.00    +0.000 HD
ENDBRANCH   6   9
BRANCH   1  15
ATOM     14  C   UNL     1       1.066   0.001  -0.151  0.00  0.00    +0.000 C 
ATOM     15  C   UNL     1       2.579  -0.109   0.092  0.00  0.00    +0.000 C 
BRANCH  15  16
ATOM     16  C   UNL     1       3.120  -1.001  -1.034  0.00  0.00    +0.000 A 
ATOM     17  C   UNL     1       3.563  -0.411  -2.220  0.00  0.00    +0.000 A 
ATOM     18  C   UNL     1       3.863  -1.226  -3.308  0.00  0.00    +0.000 A 
ATOM     19  C   UNL     1       3.715  -2.602  -3.190  0.00  0.00    +0.000 A 
ATOM     20  C   UNL     1       3.289  -3.111  -1.975  0.00  0.00    +0.000 A 
ATOM     21  N   UNL     1       2.997  -2.348  -0.899  0.00  0.00    +0.000 NA
ENDBRANCH  15  16
ENDBRANCH   1  15
TORSDOF 3
