REMARK  Name = 
REMARK  4 active torsions:
REMARK  status: ('A' for Active; 'I' for Inactive)
REMARK    1  A    between atoms: C_2  and  C_4
REMARK    2  A    between atoms: N_8  and  C_9
REMARK    3  A    between atoms: C_9  and  C_10
REMARK    4  A    between atoms: C_10  and  C_13
REMARK                            x       y       z     vdW  Elec       q    Type
REMARK                         _______ _______ _______ _____ _____    ______ ____
ROOT
ATOM      1  C   UNL     1       2.996  -0.667   1.229  0.00  0.00    +0.000 A 
ATOM      2  C   UNL     1       3.624   0.199   2.120  0.00  0.00    +0.000 A 
ATOM      3  C   UNL     1       4.507  -0.325   3.064  0.00  0.00    +0.000 A 
ATOM      4  C   UNL     1       4.710  -1.707   3.137  0.00  0.00    +0.000 A 
ATOM      5  N   UNL     1       5.559  -2.179   4.142  0.00  0.00    +0.000 N 
ATOM      6  N   UNL     1       4.094  -2.555   2.294  0.00  0.00    +0.000 NA
ATOM      7  C   UNL     1       3.258  -2.022   1.358  0.00  0.00    +0.000 A 
ATOM      8  H   UNL     1       6.517  -1.871   3.993  0.00  0.00    +0.000 HD
ENDROOT
BRANCH   1  10
ATOM      9  N   UNL     1       2.215   1.066  -0.284  0.00  0.00    +0.000 N 
ATOM     10  C   UNL     1       2.048  -0.204   0.195  0.00  0.00    +0.000 C 
ATOM     11  O   UNL     1       1.168  -0.934  -0.240  0.00  0.00    +0.000 OA
ATOM     12  H   UNL     1       1.624   1.336  -1.060  0.00  0.00    +0.000 HD
ATOM     13  H   UNL     1       3.054   1.605  -0.127  0.00  0.00    +0.000 HD
ENDBRANCH   1  10
BRANCH   5  14
ATOM     14  C   UNL     1       5.435  -3.598   4.522  0.00  0.00    +0.000 C 
BRANCH  14  15
ATOM     15  C   UNL     1       6.557  -4.032   5.505  0.00  0.00    +0.000 C 
ATOM     16  F   UNL     1       7.752  -3.940   4.839  0.00  0.00    +0.000 F 
ATOM     17  F   UNL     1       6.647  -3.098   6.503  0.00  0.00    +0.000 F 
BRANCH  15  18
ATOM     18  C   UNL     1       6.334  -5.422   6.071  0.00  0.00    +0.000 A 
ATOM     19  C   UNL     1       6.846  -6.555   5.423  0.00  0.00    +0.000 A 
ATOM     20  C   UNL     1       6.682  -7.829   5.971  0.00  0.00    +0.000 A 
ATOM     21  C   UNL     1       5.999  -7.983   7.180  0.00  0.00    +0.000 A 
ATOM     22  C   UNL     1       5.471  -6.869   7.829  0.00  0.00    +0.000 A 
ATOM     23  C   UNL     1       5.633  -5.595   7.277  0.00  0.00    +0.000 A 
ENDBRANCH  15  18
ENDBRANCH  14  15
ENDBRANCH   5  14
TORSDOF 4
