REMARK  Name = 
REMARK  9 active torsions:
REMARK  status: ('A' for Active; 'I' for Inactive)
REMARK    1  A    between atoms: C_1  and  C_2
REMARK    2  A    between atoms: N_6  and  C_7
REMARK    3  A    between atoms: C_7  and  C_8
REMARK    4  A    between atoms: C_8  and  C_9
REMARK    5  A    between atoms: C_8  and  C_10
REMARK    6  A    between atoms: C_8  and  C_11
REMARK    7  A    between atoms: C_15  and  O_16
REMARK    8  A    between atoms: O_16  and  C_17
REMARK    9  A    between atoms: C_23  and  C_24
REMARK                            x       y       z     vdW  Elec       q    Type
REMARK                         _______ _______ _______ _____ _____    ______ ____
ROOT
ATOM      1  C   UNL     1      -3.967   0.746   0.031  0.00  0.00    +0.000 C 
ENDROOT
BRANCH   1   7
ATOM      2  C   UNL     1       1.496   3.772   1.898  0.00  0.00    +0.000 C 
ATOM      3  C   UNL     1       0.163   3.131   1.674  0.00  0.00    +0.000 A 
ATOM      4  N   UNL     1      -0.754   3.326   2.658  0.00  0.00    +0.000 NA
ATOM      5  C   UNL     1      -1.966   2.758   2.456  0.00  0.00    +0.000 A 
ATOM      6  C   UNL     1      -2.300   1.991   1.337  0.00  0.00    +0.000 A 
ATOM      7  N   UNL     1      -3.599   1.486   1.237  0.00  0.00    +0.000 N 
ATOM      8  N   UNL     1      -1.399   1.806   0.353  0.00  0.00    +0.000 NA
ATOM      9  C   UNL     1      -0.163   2.381   0.541  0.00  0.00    +0.000 A 
ATOM     10  H   UNL     1      -3.872   1.029   2.101  0.00  0.00    +0.000 HD
BRANCH   9  11
ATOM     11  C   UNL     1       0.815   2.145  -0.574  0.00  0.00    +0.000 C 
ATOM     12  N   UNL     1       0.332   1.403  -1.621  0.00  0.00    +0.000 N 
ATOM     13  O   UNL     1       1.963   2.564  -0.585  0.00  0.00    +0.000 OA
ATOM     14  H   UNL     1      -0.629   1.081  -1.604  0.00  0.00    +0.000 HD
ATOM     15  H   UNL     1       0.925   1.217  -2.417  0.00  0.00    +0.000 HD
ENDBRANCH   9  11
ENDBRANCH   1   7
BRANCH   1  16
ATOM     16  C   UNL     1      -5.489   0.349   0.026  0.00  0.00    +0.000 C 
ATOM     17  C   UNL     1      -5.723  -0.482  -1.260  0.00  0.00    +0.000 C 
ATOM     18  C   UNL     1      -5.765  -0.573   1.241  0.00  0.00    +0.000 C 
BRANCH  16  19
ATOM     19  C   UNL     1      -6.483   1.533   0.044  0.00  0.00    +0.000 A 
ATOM     20  C   UNL     1      -7.871   1.296   0.026  0.00  0.00    +0.000 A 
ATOM     21  C   UNL     1      -8.793   2.346   0.087  0.00  0.00    +0.000 A 
ATOM     22  C   UNL     1      -8.352   3.664   0.179  0.00  0.00    +0.000 A 
ATOM     23  C   UNL     1      -6.989   3.929   0.188  0.00  0.00    +0.000 A 
ATOM     24  C   UNL     1      -6.070   2.876   0.109  0.00  0.00    +0.000 A 
BRANCH  23  25
ATOM     25  O   UNL     1      -6.448   5.181   0.350  0.00  0.00    +0.000 OA
BRANCH  25  26
ATOM     26  C   UNL     1      -7.151   6.305  -0.210  0.00  0.00    +0.000 C 
ATOM     27  C   UNL     1      -6.461   7.664  -0.008  0.00  0.00    +0.000 C 
ATOM     28  C   UNL     1      -7.847   8.138   0.411  0.00  0.00    +0.000 C 
ATOM     29  O   UNL     1      -8.299   6.771   0.562  0.00  0.00    +0.000 OA
ENDBRANCH  25  26
ENDBRANCH  23  25
ENDBRANCH  16  19
ENDBRANCH   1  16
TORSDOF 6
