REMARK  Name = 
REMARK  9 active torsions:
REMARK  status: ('A' for Active; 'I' for Inactive)
REMARK    1  A    between atoms: C_2  and  C_4
REMARK    2  A    between atoms: C_7  and  N_8
REMARK    3  A    between atoms: N_8  and  C_9
REMARK    4  A    between atoms: C_9  and  C_10
REMARK    5  A    between atoms: C_10  and  C_11
REMARK    6  A    between atoms: C_10  and  C_13
REMARK    7  A    between atoms: C_11  and  O_12
REMARK    8  A    between atoms: C_15  and  C_16
REMARK    9  A    between atoms: C_19  and  C_20
REMARK                            x       y       z     vdW  Elec       q    Type
REMARK                         _______ _______ _______ _____ _____    ______ ____
ROOT
ATOM      1  C   UNL     1       5.633   2.658  -6.730  0.00  0.00    +0.000 C 
ENDROOT
BRANCH   1   2
ATOM      2  C   UNL     1       5.245   3.836  -7.606  0.00  0.00    +0.000 A 
ATOM      3  C   UNL     1       3.960   3.966  -8.137  0.00  0.00    +0.000 A 
ATOM      4  C   UNL     1       3.638   5.032  -8.990  0.00  0.00    +0.000 A 
ATOM      5  C   UNL     1       4.661   5.948  -9.259  0.00  0.00    +0.000 A 
ATOM      6  C   UNL     1       5.907   5.770  -8.678  0.00  0.00    +0.000 A 
ATOM      7  N   UNL     1       6.216   4.744  -7.859  0.00  0.00    +0.000 NA
BRANCH   4   8
ATOM      8  C   UNL     1       2.285   5.169  -9.584  0.00  0.00    +0.000 A 
ATOM      9  C   UNL     1       1.735   6.429  -9.882  0.00  0.00    +0.000 A 
ATOM     10  C   UNL     1       0.463   6.561 -10.452  0.00  0.00    +0.000 A 
ATOM     11  C   UNL     1      -0.314   5.432 -10.732  0.00  0.00    +0.000 A 
ATOM     12  C   UNL     1       0.212   4.170 -10.434  0.00  0.00    +0.000 A 
ATOM     13  C   UNL     1       1.491   4.044  -9.878  0.00  0.00    +0.000 A 
BRANCH  11  14
ATOM     14  C   UNL     1      -1.688   5.555 -11.343  0.00  0.00    +0.000 C 
ATOM     15  F   UNL     1      -2.067   6.842 -11.576  0.00  0.00    +0.000 F 
ATOM     16  F   UNL     1      -1.784   4.915 -12.541  0.00  0.00    +0.000 F 
ATOM     17  F   UNL     1      -2.659   5.018 -10.553  0.00  0.00    +0.000 F 
ENDBRANCH  11  14
ENDBRANCH   4   8
ENDBRANCH   1   2
BRANCH   1  18
ATOM     18  C   UNL     1       4.751   2.581  -5.471  0.00  0.00    +0.000 C 
BRANCH  18  19
ATOM     19  N   UNL     1       5.269   1.584  -4.530  0.00  0.00    +0.000 N 
ATOM     20  H   UNL     1       4.554   0.982  -4.122  0.00  0.00    +0.000 HD
BRANCH  19  24
ATOM     21  C   UNL     1       8.288   2.392  -1.693  0.00  0.00    +0.000 A 
ATOM     22  C   UNL     1       7.803   3.431  -2.489  0.00  0.00    +0.000 A 
ATOM     23  C   UNL     1       6.808   3.178  -3.442  0.00  0.00    +0.000 A 
ATOM     24  C   UNL     1       6.251   1.902  -3.591  0.00  0.00    +0.000 A 
ATOM     25  C   UNL     1       6.780   0.867  -2.811  0.00  0.00    +0.000 A 
ATOM     26  C   UNL     1       7.795   1.100  -1.874  0.00  0.00    +0.000 A 
BRANCH  21  28
ATOM     27  N   UNL     1       9.407   3.869  -0.119  0.00  0.00    +0.000 N 
ATOM     28  C   UNL     1       9.349   2.625  -0.680  0.00  0.00    +0.000 C 
ATOM     29  O   UNL     1      10.114   1.735  -0.331  0.00  0.00    +0.000 OA
ATOM     30  H   UNL     1      10.065   3.991   0.640  0.00  0.00    +0.000 HD
ATOM     31  H   UNL     1       8.649   4.534  -0.195  0.00  0.00    +0.000 HD
ENDBRANCH  21  28
ENDBRANCH  19  24
ENDBRANCH  18  19
ENDBRANCH   1  18
BRANCH   1  32
ATOM     32  C   UNL     1       5.635   1.345  -7.533  0.00  0.00    +0.000 C 
BRANCH  32  33
ATOM     33  O   UNL     1       4.321   0.914  -7.895  0.00  0.00    +0.000 OA
ATOM     34  H   UNL     1       3.940   0.475  -7.115  0.00  0.00    +0.000 HD
ENDBRANCH  32  33
ENDBRANCH   1  32
TORSDOF 9
