REMARK  Name = 
REMARK  11 active torsions:
REMARK  status: ('A' for Active; 'I' for Inactive)
REMARK    1  A    between atoms: N_1  and  C_2
REMARK    2  A    between atoms: C_2  and  C_3
REMARK    3  A    between atoms: C_3  and  O_4
REMARK    4  A    between atoms: O_4  and  C_5
REMARK    5  A    between atoms: C_5  and  C_6
REMARK    6  A    between atoms: C_6  and  N_7
REMARK    7  A    between atoms: C_6  and  C_20
REMARK    8  A    between atoms: C_8  and  C_10
REMARK    9  A    between atoms: C_23  and  O_24
REMARK   10  A    between atoms: O_24  and  C_25
REMARK   11  A    between atoms: C_25  and  C_26
REMARK                            x       y       z     vdW  Elec       q    Type
REMARK                         _______ _______ _______ _____ _____    ______ ____
ROOT
ATOM      1  C   UNL     1       6.406   1.522   2.275  0.00  0.00    +0.000 C 
ENDROOT
BRANCH   1   2
ATOM      2  C   UNL     1       6.957   2.375   3.407  0.00  0.00    +0.000 A 
ATOM      3  C   UNL     1       7.836   1.848   4.360  0.00  0.00    +0.000 A 
ATOM      4  C   UNL     1       8.403   2.681   5.332  0.00  0.00    +0.000 A 
ATOM      5  C   UNL     1       8.116   4.047   5.344  0.00  0.00    +0.000 A 
ATOM      6  C   UNL     1       7.180   4.561   4.453  0.00  0.00    +0.000 A 
ATOM      7  C   UNL     1       6.610   3.733   3.496  0.00  0.00    +0.000 A 
BRANCH   5   8
ATOM      8  O   UNL     1       8.803   4.812   6.248  0.00  0.00    +0.000 OA
BRANCH   8   9
ATOM      9  C   UNL     1       8.983   6.175   5.831  0.00  0.00    +0.000 C 
BRANCH   9  10
ATOM     10  C   UNL     1      10.174   6.817   6.498  0.00  0.00    +0.000 A 
ATOM     11  C   UNL     1      11.292   6.063   6.846  0.00  0.00    +0.000 A 
ATOM     12  C   UNL     1      12.396   6.710   7.391  0.00  0.00    +0.000 A 
ATOM     13  C   UNL     1      12.363   8.089   7.555  0.00  0.00    +0.000 A 
ATOM     14  C   UNL     1      11.223   8.769   7.165  0.00  0.00    +0.000 A 
ATOM     15  N   UNL     1      10.135   8.168   6.638  0.00  0.00    +0.000 NA
ENDBRANCH   9  10
ENDBRANCH   8   9
ENDBRANCH   5   8
ENDBRANCH   1   2
BRANCH   1  16
ATOM     16  N   UNL     1       6.822   2.094   0.997  0.00  0.00    +0.000 N 
ATOM     17  C   UNL     1       7.962   1.736   0.332  0.00  0.00    +0.000 C 
ATOM     18  O   UNL     1       8.683   0.810   0.690  0.00  0.00    +0.000 OA
ATOM     19  H   UNL     1       6.371   2.963   0.743  0.00  0.00    +0.000 HD
BRANCH  17  20
ATOM     20  C   UNL     1       8.250   2.509  -0.888  0.00  0.00    +0.000 A 
ATOM     21  C   UNL     1       8.994   1.940  -1.912  0.00  0.00    +0.000 A 
ATOM     22  S   UNL     1       9.202   2.973  -3.256  0.00  0.00    +0.000 S 
ATOM     23  C   UNL     1       8.361   4.237  -2.490  0.00  0.00    +0.000 A 
ATOM     24  N   UNL     1       8.210   5.447  -3.094  0.00  0.00    +0.000 NA
ATOM     25  C   UNL     1       7.593   6.328  -2.379  0.00  0.00    +0.000 A 
ATOM     26  N   UNL     1       7.102   6.104  -1.120  0.00  0.00    +0.000 N 
ATOM     27  C   UNL     1       7.145   4.874  -0.516  0.00  0.00    +0.000 A 
ATOM     28  O   UNL     1       6.547   4.672   0.534  0.00  0.00    +0.000 OA
ATOM     29  C   UNL     1       7.889   3.864  -1.245  0.00  0.00    +0.000 A 
ATOM     30  H   UNL     1       6.594   6.826  -0.630  0.00  0.00    +0.000 HD
ENDBRANCH  17  20
ENDBRANCH   1  16
BRANCH   1  31
ATOM     31  C   UNL     1       4.863   1.468   2.366  0.00  0.00    +0.000 C 
BRANCH  31  32
ATOM     32  O   UNL     1       4.322   0.643   1.331  0.00  0.00    +0.000 OA
BRANCH  32  33
ATOM     33  C   UNL     1       2.889   0.663   1.356  0.00  0.00    +0.000 C 
BRANCH  33  34
ATOM     34  C   UNL     1       2.354  -0.175   0.194  0.00  0.00    +0.000 C 
BRANCH  34  35
ATOM     35  N   UNL     1       2.732   0.410  -1.097  0.00  0.00    +0.000 NA
ATOM     36  H   UNL     1       2.514  -0.252  -1.839  0.00  0.00    +0.000 HD
ATOM     37  H   UNL     1       3.751   0.508  -1.096  0.00  0.00    +0.000 HD
ENDBRANCH  34  35
ENDBRANCH  33  34
ENDBRANCH  32  33
ENDBRANCH  31  32
ENDBRANCH   1  31
TORSDOF 11
