REMARK  Name = 
REMARK  10 active torsions:
REMARK  status: ('A' for Active; 'I' for Inactive)
REMARK    1  A    between atoms: C_1  and  O_2
REMARK    2  A    between atoms: O_2  and  C_3
REMARK    3  A    between atoms: C_10  and  C_11
REMARK    4  A    between atoms: N_13  and  C_14
REMARK    5  A    between atoms: C_14  and  C_15
REMARK    6  A    between atoms: C_18  and  C_19
REMARK    7  A    between atoms: C_19  and  C_20
REMARK    8  A    between atoms: C_19  and  N_21
REMARK    9  A    between atoms: N_21  and  C_22
REMARK   10  A    between atoms: C_22  and  C_23
REMARK                            x       y       z     vdW  Elec       q    Type
REMARK                         _______ _______ _______ _____ _____    ______ ____
ROOT
ATOM      1  C   UNL     1       1.335   2.805  -1.611  0.00  0.00    +0.000 A 
ATOM      2  C   UNL     1       1.224   1.507  -2.126  0.00  0.00    +0.000 A 
ATOM      3  C   UNL     1       0.054   1.096  -2.774  0.00  0.00    +0.000 A 
ATOM      4  C   UNL     1      -1.026   1.978  -2.932  0.00  0.00    +0.000 A 
ATOM      5  C   UNL     1      -0.891   3.290  -2.453  0.00  0.00    +0.000 A 
ATOM      6  C   UNL     1       0.277   3.700  -1.807  0.00  0.00    +0.000 A 
ENDROOT
BRANCH   4   7
ATOM      7  C   UNL     1      -2.300   1.508  -3.619  0.00  0.00    +0.000 C 
ATOM      8  C   UNL     1      -3.481   1.560  -2.641  0.00  0.00    +0.000 C 
BRANCH   7   9
ATOM      9  N   UNL     1      -2.645   2.290  -4.814  0.00  0.00    +0.000 NA
ATOM     10  H   UNL     1      -2.753   3.272  -4.562  0.00  0.00    +0.000 HD
BRANCH   9  11
ATOM     11  C   UNL     1      -1.620   2.200  -5.864  0.00  0.00    +0.000 C 
BRANCH  11  12
ATOM     12  C   UNL     1      -1.977   3.033  -7.083  0.00  0.00    +0.000 A 
ATOM     13  C   UNL     1      -3.127   2.747  -7.816  0.00  0.00    +0.000 A 
ATOM     14  C   UNL     1      -3.431   3.532  -8.924  0.00  0.00    +0.000 A 
ATOM     15  C   UNL     1      -2.583   4.576  -9.271  0.00  0.00    +0.000 A 
ATOM     16  C   UNL     1      -1.462   4.796  -8.489  0.00  0.00    +0.000 A 
ATOM     17  N   UNL     1      -1.141   4.052  -7.408  0.00  0.00    +0.000 NA
ENDBRANCH  11  12
ENDBRANCH   9  11
ENDBRANCH   7   9
ENDBRANCH   4   7
BRANCH   1  18
ATOM     18  C   UNL     1       2.580   3.243  -0.883  0.00  0.00    +0.000 C 
BRANCH  18  21
ATOM     19  C   UNL     1       4.748   4.299  -1.361  0.00  0.00    +0.000 C 
ATOM     20  O   UNL     1       5.084   4.213  -0.181  0.00  0.00    +0.000 OA
ATOM     21  N   UNL     1       3.528   3.840  -1.784  0.00  0.00    +0.000 N 
ATOM     22  H   UNL     1       3.251   3.948  -2.751  0.00  0.00    +0.000 HD
BRANCH  19  30
ATOM     23  C   UNL     1       4.505   4.722  -4.768  0.00  0.00    +0.000 A 
ATOM     24  N   UNL     1       4.650   5.044  -6.068  0.00  0.00    +0.000 NA
ATOM     25  C   UNL     1       5.763   5.685  -6.435  0.00  0.00    +0.000 A 
ATOM     26  N   UNL     1       6.775   6.048  -5.651  0.00  0.00    +0.000 NA
ATOM     27  C   UNL     1       6.583   5.719  -4.362  0.00  0.00    +0.000 A 
ATOM     28  S   UNL     1       7.777   6.097  -3.214  0.00  0.00    +0.000 S 
ATOM     29  C   UNL     1       6.852   5.424  -1.958  0.00  0.00    +0.000 A 
ATOM     30  C   UNL     1       5.632   4.904  -2.372  0.00  0.00    +0.000 A 
ATOM     31  C   UNL     1       5.480   5.070  -3.817  0.00  0.00    +0.000 A 
BRANCH  23  33
ATOM     32  C   UNL     1       2.743   3.332  -5.440  0.00  0.00    +0.000 C 
ATOM     33  O   UNL     1       3.354   4.069  -4.384  0.00  0.00    +0.000 OA
ENDBRANCH  23  33
ENDBRANCH  19  30
ENDBRANCH  18  21
ENDBRANCH   1  18
TORSDOF 8
