REMARK  Name = 
REMARK  7 active torsions:
REMARK  status: ('A' for Active; 'I' for Inactive)
REMARK    1  A    between atoms: C_2  and  C_3
REMARK    2  A    between atoms: C_6  and  N_7
REMARK    3  A    between atoms: N_7  and  C_8
REMARK    4  A    between atoms: C_8  and  C_9
REMARK    5  A    between atoms: C_9  and  C_12
REMARK    6  A    between atoms: C_16  and  N_17
REMARK    7  A    between atoms: N_17  and  C_18
REMARK                            x       y       z     vdW  Elec       q    Type
REMARK                         _______ _______ _______ _____ _____    ______ ____
ROOT
ATOM      1  C   UNL     1       5.963  -1.040   0.307  0.00  0.00    +0.000 C 
ATOM      2  F   UNL     1       6.379  -0.057   1.162  0.00  0.00    +0.000 F 
ATOM      3  F   UNL     1       4.641  -1.235   0.611  0.00  0.00    +0.000 F 
ENDROOT
BRANCH   1   4
ATOM      4  C   UNL     1       6.778  -2.307   0.477  0.00  0.00    +0.000 A 
ATOM      5  C   UNL     1       8.140  -2.247   0.799  0.00  0.00    +0.000 A 
ATOM      6  C   UNL     1       8.880  -3.420   0.957  0.00  0.00    +0.000 A 
ATOM      7  C   UNL     1       8.271  -4.668   0.787  0.00  0.00    +0.000 A 
ATOM      8  C   UNL     1       6.914  -4.754   0.474  0.00  0.00    +0.000 A 
ATOM      9  C   UNL     1       6.179  -3.567   0.319  0.00  0.00    +0.000 A 
BRANCH   8  10
ATOM     10  N   UNL     1       6.232  -5.977   0.299  0.00  0.00    +0.000 N 
ATOM     11  H   UNL     1       5.460  -6.019   0.966  0.00  0.00    +0.000 HD
BRANCH  10  12
ATOM     12  C   UNL     1       6.823  -7.259   0.058  0.00  0.00    +0.000 C 
ATOM     13  C   UNL     1       7.400  -7.391  -1.366  0.00  0.00    +0.000 C 
ATOM     14  C   UNL     1       6.685  -8.753  -1.477  0.00  0.00    +0.000 C 
ATOM     15  F   UNL     1       6.085  -9.007  -2.661  0.00  0.00    +0.000 F 
ATOM     16  F   UNL     1       7.449  -9.833  -1.189  0.00  0.00    +0.000 F 
ATOM     17  C   UNL     1       5.749  -8.293  -0.342  0.00  0.00    +0.000 C 
ENDBRANCH  10  12
ENDBRANCH   8  10
ENDBRANCH   1   4
BRANCH   1  18
ATOM     18  C   UNL     1       6.039  -0.502  -1.148  0.00  0.00    +0.000 C 
BRANCH  18  19
ATOM     19  N   UNL     1       5.270   0.743  -1.342  0.00  0.00    +0.000 N 
ATOM     20  H   UNL     1       4.428   0.808  -0.770  0.00  0.00    +0.000 HD
BRANCH  19  24
ATOM     21  C   UNL     1       5.071   2.823  -5.007  0.00  0.00    +0.000 A 
ATOM     22  C   UNL     1       5.813   1.646  -4.922  0.00  0.00    +0.000 A 
ATOM     23  C   UNL     1       5.872   0.932  -3.719  0.00  0.00    +0.000 A 
ATOM     24  C   UNL     1       5.166   1.356  -2.584  0.00  0.00    +0.000 A 
ATOM     25  C   UNL     1       4.432   2.547  -2.686  0.00  0.00    +0.000 A 
ATOM     26  C   UNL     1       4.378   3.276  -3.884  0.00  0.00    +0.000 A 
BRANCH  21  28
ATOM     27  N   UNL     1       5.014   4.168  -7.222  0.00  0.00    +0.000 NA
ATOM     28  C   UNL     1       5.035   3.568  -6.232  0.00  0.00    +0.000 C 
ENDBRANCH  21  28
ENDBRANCH  19  24
ENDBRANCH  18  19
ENDBRANCH   1  18
TORSDOF 7
