REMARK  Name = 
REMARK  5 active torsions:
REMARK  status: ('A' for Active; 'I' for Inactive)
REMARK    1  A    between atoms: C_7  and  C_8
REMARK    2  A    between atoms: N_10  and  C_11
REMARK    3  A    between atoms: C_11  and  C_12
REMARK    4  A    between atoms: C_15  and  C_16
REMARK    5  A    between atoms: C_16  and  N_17
REMARK                            x       y       z     vdW  Elec       q    Type
REMARK                         _______ _______ _______ _____ _____    ______ ____
ROOT
ATOM      1  C   UNL     1       9.862   2.708   2.107  0.00  0.00    +0.000 C 
ATOM      2  O   UNL     1      10.859   3.259   1.643  0.00  0.00    +0.000 OA
ATOM      3  N   UNL     1       8.679   2.663   1.417  0.00  0.00    +0.000 N 
ATOM      4  H   UNL     1       7.863   2.222   1.827  0.00  0.00    +0.000 HD
ENDROOT
BRANCH   1  11
ATOM      5  N   UNL     1       6.768  -1.090   6.729  0.00  0.00    +0.000 N 
ATOM      6  C   UNL     1       7.524  -0.300   5.924  0.00  0.00    +0.000 A 
ATOM      7  N   UNL     1       8.730   0.029   6.264  0.00  0.00    +0.000 NA
ATOM      8  C   UNL     1       9.395   0.805   5.367  0.00  0.00    +0.000 A 
ATOM      9  S   UNL     1      10.996   1.297   5.665  0.00  0.00    +0.000 S 
ATOM     10  C   UNL     1      11.077   2.117   4.174  0.00  0.00    +0.000 A 
ATOM     11  C   UNL     1       9.906   2.052   3.427  0.00  0.00    +0.000 A 
ATOM     12  C   UNL     1       8.922   1.276   4.155  0.00  0.00    +0.000 A 
ATOM     13  C   UNL     1       7.562   0.899   3.822  0.00  0.00    +0.000 A 
ATOM     14  O   UNL     1       6.982   1.234   2.790  0.00  0.00    +0.000 OA
ATOM     15  N   UNL     1       6.935   0.113   4.762  0.00  0.00    +0.000 N 
ATOM     16  H   UNL     1       7.153  -1.183   7.665  0.00  0.00    +0.000 HD
ATOM     17  H   UNL     1       5.765  -0.968   6.716  0.00  0.00    +0.000 HD
ATOM     18  H   UNL     1       6.006  -0.191   4.530  0.00  0.00    +0.000 HD
ENDBRANCH   1  11
BRANCH   3  19
ATOM     19  C   UNL     1       8.529   3.205   0.087  0.00  0.00    +0.000 C 
BRANCH  19  20
ATOM     20  C   UNL     1       7.986   4.611   0.095  0.00  0.00    +0.000 A 
ATOM     21  C   UNL     1       8.859   5.707   0.107  0.00  0.00    +0.000 A 
ATOM     22  C   UNL     1       8.364   7.015   0.097  0.00  0.00    +0.000 A 
ATOM     23  C   UNL     1       6.984   7.254   0.100  0.00  0.00    +0.000 A 
ATOM     24  C   UNL     1       6.110   6.158   0.084  0.00  0.00    +0.000 A 
ATOM     25  C   UNL     1       6.605   4.850   0.090  0.00  0.00    +0.000 A 
BRANCH  23  26
ATOM     26  C   UNL     1       6.443   8.666   0.150  0.00  0.00    +0.000 C 
BRANCH  26  27
ATOM     27  N   UNL     1       6.234   9.186  -1.197  0.00  0.00    +0.000 N 
ATOM     28  C   UNL     1       5.594  10.441  -1.206  0.00  0.00    +0.000 A 
ATOM     29  C   UNL     1       5.335  11.049  -2.433  0.00  0.00    +0.000 A 
ATOM     30  C   UNL     1       4.704  12.294  -2.465  0.00  0.00    +0.000 A 
ATOM     31  C   UNL     1       4.349  12.905  -1.272  0.00  0.00    +0.000 A 
ATOM     32  C   UNL     1       4.652  12.247  -0.096  0.00  0.00    +0.000 A 
ATOM     33  N   UNL     1       5.266  11.044  -0.044  0.00  0.00    +0.000 NA
ATOM     34  H   UNL     1       5.706   8.539  -1.774  0.00  0.00    +0.000 HD
ENDBRANCH  26  27
ENDBRANCH  23  26
ENDBRANCH  19  20
ENDBRANCH   3  19
TORSDOF 5
