REMARK  Name = 
REMARK  9 active torsions:
REMARK  status: ('A' for Active; 'I' for Inactive)
REMARK    1  A    between atoms: C_1  and  O_2
REMARK    2  A    between atoms: O_2  and  C_3
REMARK    3  A    between atoms: C_10  and  C_11
REMARK    4  A    between atoms: N_13  and  C_14
REMARK    5  A    between atoms: C_14  and  C_15
REMARK    6  A    between atoms: C_18  and  C_19
REMARK    7  A    between atoms: C_19  and  N_20
REMARK    8  A    between atoms: N_20  and  C_21
REMARK    9  A    between atoms: C_21  and  C_22
REMARK                            x       y       z     vdW  Elec       q    Type
REMARK                         _______ _______ _______ _____ _____    ______ ____
ROOT
ATOM      1  C   UNL     1       1.801   1.286  -2.957  0.00  0.00    +0.000 A 
ATOM      2  C   UNL     1       1.962  -0.099  -3.091  0.00  0.00    +0.000 A 
ATOM      3  C   UNL     1       0.884  -0.910  -3.470  0.00  0.00    +0.000 A 
ATOM      4  C   UNL     1      -0.378  -0.356  -3.733  0.00  0.00    +0.000 A 
ATOM      5  C   UNL     1      -0.528   1.033  -3.630  0.00  0.00    +0.000 A 
ATOM      6  C   UNL     1       0.550   1.844  -3.254  0.00  0.00    +0.000 A 
ENDROOT
BRANCH   1   7
ATOM      7  C   UNL     1       2.959   2.166  -2.552  0.00  0.00    +0.000 C 
BRANCH   7  10
ATOM      8  C   UNL     1       4.827   3.372  -3.626  0.00  0.00    +0.000 C 
ATOM      9  O   UNL     1       5.273   3.745  -2.541  0.00  0.00    +0.000 OA
ATOM     10  N   UNL     1       3.701   2.603  -3.708  0.00  0.00    +0.000 N 
ATOM     11  H   UNL     1       3.317   2.369  -4.612  0.00  0.00    +0.000 HD
BRANCH   8  19
ATOM     12  C   UNL     1       4.201   2.590  -6.918  0.00  0.00    +0.000 A 
ATOM     13  N   UNL     1       4.192   2.437  -8.257  0.00  0.00    +0.000 NA
ATOM     14  C   UNL     1       5.152   3.037  -8.963  0.00  0.00    +0.000 A 
ATOM     15  N   UNL     1       6.141   3.791  -8.492  0.00  0.00    +0.000 NA
ATOM     16  C   UNL     1       6.108   3.927  -7.155  0.00  0.00    +0.000 A 
ATOM     17  S   UNL     1       7.292   4.863  -6.379  0.00  0.00    +0.000 S 
ATOM     18  C   UNL     1       6.613   4.548  -4.853  0.00  0.00    +0.000 A 
ATOM     19  C   UNL     1       5.486   3.735  -4.894  0.00  0.00    +0.000 A 
ATOM     20  C   UNL     1       5.181   3.370  -6.278  0.00  0.00    +0.000 A 
BRANCH  12  22
ATOM     21  C   UNL     1       2.633   0.858  -6.846  0.00  0.00    +0.000 C 
ATOM     22  O   UNL     1       3.186   2.001  -6.196  0.00  0.00    +0.000 OA
ENDBRANCH  12  22
ENDBRANCH   8  19
ENDBRANCH   7  10
ENDBRANCH   1   7
BRANCH   4  23
ATOM     23  C   UNL     1      -1.551  -1.238  -4.118  0.00  0.00    +0.000 C 
BRANCH  23  24
ATOM     24  N   UNL     1      -1.828  -2.209  -3.064  0.00  0.00    +0.000 NA
ATOM     25  H   UNL     1      -2.036  -1.703  -2.204  0.00  0.00    +0.000 HD
BRANCH  24  26
ATOM     26  C   UNL     1      -2.963  -3.083  -3.378  0.00  0.00    +0.000 C 
BRANCH  26  27
ATOM     27  C   UNL     1      -3.226  -4.065  -2.258  0.00  0.00    +0.000 A 
ATOM     28  C   UNL     1      -2.191  -4.556  -1.445  0.00  0.00    +0.000 A 
ATOM     29  C   UNL     1      -2.461  -5.425  -0.386  0.00  0.00    +0.000 A 
ATOM     30  C   UNL     1      -3.767  -5.844  -0.141  0.00  0.00    +0.000 A 
ATOM     31  C   UNL     1      -4.799  -5.410  -0.971  0.00  0.00    +0.000 A 
ATOM     32  C   UNL     1      -4.522  -4.535  -2.021  0.00  0.00    +0.000 A 
ATOM     33  F   UNL     1      -5.533  -4.135  -2.806  0.00  0.00    +0.000 F 
ENDBRANCH  26  27
ENDBRANCH  24  26
ENDBRANCH  23  24
ENDBRANCH   4  23
TORSDOF 8
