REMARK  Name = 
REMARK  9 active torsions:
REMARK  status: ('A' for Active; 'I' for Inactive)
REMARK    1  A    between atoms: C_1  and  C_2
REMARK    2  A    between atoms: C_2  and  C_3
REMARK    3  A    between atoms: C_3  and  N_4
REMARK    4  A    between atoms: C_3  and  C_26
REMARK    5  A    between atoms: N_4  and  C_5
REMARK    6  A    between atoms: C_5  and  C_6
REMARK    7  A    between atoms: C_9  and  C_10
REMARK    8  A    between atoms: C_10  and  N_11
REMARK    9  A    between atoms: C_12  and  C_14
REMARK                            x       y       z     vdW  Elec       q    Type
REMARK                         _______ _______ _______ _____ _____    ______ ____
ROOT
ATOM      1  C   UNL     1       1.751  -2.210   0.225  0.00  0.00    +0.000 A 
ATOM      2  C   UNL     1       0.463  -2.322   0.769  0.00  0.00    +0.000 A 
ATOM      3  C   UNL     1      -0.434  -3.277   0.286  0.00  0.00    +0.000 A 
ATOM      4  C   UNL     1      -0.057  -4.141  -0.750  0.00  0.00    +0.000 A 
ATOM      5  C   UNL     1       1.216  -4.005  -1.318  0.00  0.00    +0.000 A 
ATOM      6  C   UNL     1       2.114  -3.052  -0.833  0.00  0.00    +0.000 A 
ENDROOT
BRANCH   1   7
ATOM      7  C   UNL     1       2.704  -1.150   0.725  0.00  0.00    +0.000 C 
BRANCH   7   8
ATOM      8  N   UNL     1       2.925  -1.261   2.167  0.00  0.00    +0.000 NA
ATOM      9  H   UNL     1       3.299  -2.194   2.356  0.00  0.00    +0.000 HD
BRANCH   8  10
ATOM     10  C   UNL     1       3.905  -0.278   2.687  0.00  0.00    +0.000 C 
BRANCH  10  11
ATOM     11  C   UNL     1       4.163  -0.528   4.178  0.00  0.00    +0.000 A 
ATOM     12  C   UNL     1       3.115  -0.503   5.103  0.00  0.00    +0.000 A 
ATOM     13  C   UNL     1       3.391  -0.708   6.450  0.00  0.00    +0.000 A 
ATOM     14  C   UNL     1       4.701  -0.936   6.848  0.00  0.00    +0.000 A 
ATOM     15  C   UNL     1       5.686  -0.956   5.872  0.00  0.00    +0.000 A 
ATOM     16  N   UNL     1       5.448  -0.759   4.554  0.00  0.00    +0.000 NA
ENDBRANCH  10  11
BRANCH  10  18
ATOM     17  C   UNL     1       4.475   2.226   2.862  0.00  0.00    +0.000 C 
ATOM     18  C   UNL     1       3.451   1.180   2.441  0.00  0.00    +0.000 C 
ENDBRANCH  10  18
ENDBRANCH   8  10
ENDBRANCH   7   8
ENDBRANCH   1   7
BRANCH   4  19
ATOM     19  C   UNL     1      -1.017  -5.169  -1.283  0.00  0.00    +0.000 C 
BRANCH  19  20
ATOM     20  N   UNL     1      -1.786  -4.639  -2.379  0.00  0.00    +0.000 N 
ATOM     21  C   UNL     1      -2.785  -5.375  -2.960  0.00  0.00    +0.000 C 
ATOM     22  O   UNL     1      -3.097  -6.488  -2.544  0.00  0.00    +0.000 OA
ATOM     23  H   UNL     1      -1.407  -3.831  -2.863  0.00  0.00    +0.000 HD
BRANCH  21  24
ATOM     24  C   UNL     1      -3.510  -4.742  -4.068  0.00  0.00    +0.000 A 
ATOM     25  C   UNL     1      -4.789  -5.180  -4.385  0.00  0.00    +0.000 A 
ATOM     26  S   UNL     1      -5.513  -4.314  -5.662  0.00  0.00    +0.000 S 
ATOM     27  C   UNL     1      -4.124  -3.354  -5.870  0.00  0.00    +0.000 A 
ATOM     28  N   UNL     1      -4.072  -2.404  -6.842  0.00  0.00    +0.000 NA
ATOM     29  C   UNL     1      -2.948  -1.771  -6.909  0.00  0.00    +0.000 A 
ATOM     30  N   UNL     1      -1.874  -1.998  -6.088  0.00  0.00    +0.000 N 
ATOM     31  C   UNL     1      -1.890  -2.928  -5.076  0.00  0.00    +0.000 A 
ATOM     32  O   UNL     1      -0.924  -3.079  -4.335  0.00  0.00    +0.000 OA
ATOM     33  C   UNL     1      -3.127  -3.677  -4.965  0.00  0.00    +0.000 A 
ATOM     34  H   UNL     1      -1.025  -1.462  -6.188  0.00  0.00    +0.000 HD
ENDBRANCH  21  24
ENDBRANCH  19  20
ENDBRANCH   4  19
TORSDOF 8
