REMARK  Name = 
REMARK  6 active torsions:
REMARK  status: ('A' for Active; 'I' for Inactive)
REMARK    1  A    between atoms: C_2  and  C_18
REMARK    2  A    between atoms: N_3  and  C_4
REMARK    3  A    between atoms: C_4  and  C_5
REMARK    4  A    between atoms: C_8  and  C_9
REMARK    5  A    between atoms: C_9  and  N_10
REMARK    6  A    between atoms: C_13  and  O_14
REMARK                            x       y       z     vdW  Elec       q    Type
REMARK                         _______ _______ _______ _____ _____    ______ ____
ROOT
ATOM      1  O   UNL     1      -0.084  -0.159  -1.029  0.00  0.00    +0.000 OA
ATOM      2  C   UNL     1       0.005  -0.079  -2.252  0.00  0.00    +0.000 C 
ATOM      3  N   UNL     1       1.038   0.535  -2.916  0.00  0.00    +0.000 N 
ATOM      4  H   UNL     1       1.154   0.350  -3.903  0.00  0.00    +0.000 HD
ENDROOT
BRANCH   2   5
ATOM      5  C   UNL     1      -0.863  -0.803  -3.168  0.00  0.00    +0.000 A 
ATOM      6  C   UNL     1      -1.278  -2.101  -2.948  0.00  0.00    +0.000 A 
ATOM      7  S   UNL     1      -1.799  -2.851  -4.403  0.00  0.00    +0.000 S 
ATOM      8  C   UNL     1      -1.603  -1.405  -5.286  0.00  0.00    +0.000 A 
ATOM      9  N   UNL     1      -1.731  -1.346  -6.639  0.00  0.00    +0.000 NA
ATOM     10  C   UNL     1      -1.601  -0.156  -7.130  0.00  0.00    +0.000 A 
ATOM     11  N   UNL     1      -1.407   0.987  -6.393  0.00  0.00    +0.000 N 
ATOM     12  C   UNL     1      -1.294   0.979  -5.025  0.00  0.00    +0.000 A 
ATOM     13  O   UNL     1      -1.223   2.013  -4.371  0.00  0.00    +0.000 OA
ATOM     14  C   UNL     1      -1.295  -0.351  -4.454  0.00  0.00    +0.000 A 
ATOM     15  H   UNL     1      -1.412   1.896  -6.829  0.00  0.00    +0.000 HD
ENDBRANCH   2   5
BRANCH   3  16
ATOM     16  C   UNL     1       2.234   0.994  -2.237  0.00  0.00    +0.000 C 
BRANCH  16  17
ATOM     17  C   UNL     1       3.179   1.720  -3.178  0.00  0.00    +0.000 A 
ATOM     18  N   UNL     1       3.060   3.056  -3.299  0.00  0.00    +0.000 NA
ATOM     19  C   UNL     1       3.898   3.665  -4.163  0.00  0.00    +0.000 A 
ATOM     20  C   UNL     1       4.845   3.006  -4.919  0.00  0.00    +0.000 A 
ATOM     21  C   UNL     1       4.870   1.639  -4.735  0.00  0.00    +0.000 A 
ATOM     22  N   UNL     1       4.041   0.972  -3.901  0.00  0.00    +0.000 NA
BRANCH  20  23
ATOM     23  C   UNL     1       5.768   3.709  -5.869  0.00  0.00    +0.000 C 
BRANCH  23  24
ATOM     24  N   UNL     1       7.088   4.003  -5.301  0.00  0.00    +0.000 NA
ATOM     25  C   UNL     1       7.073   5.078  -4.294  0.00  0.00    +0.000 C 
ATOM     26  C   UNL     1       8.415   5.804  -4.418  0.00  0.00    +0.000 C 
ATOM     27  C   UNL     1       9.160   5.059  -5.512  0.00  0.00    +0.000 C 
ATOM     28  C   UNL     1       8.037   4.445  -6.341  0.00  0.00    +0.000 C 
BRANCH  27  29
ATOM     29  O   UNL     1       9.965   4.034  -4.930  0.00  0.00    +0.000 OA
ATOM     30  H   UNL     1       9.337   3.385  -4.557  0.00  0.00    +0.000 HD
ENDBRANCH  27  29
ENDBRANCH  23  24
ENDBRANCH  20  23
ENDBRANCH  16  17
ENDBRANCH   3  16
TORSDOF 6
