REMARK  Name = 
REMARK  8 active torsions:
REMARK  status: ('A' for Active; 'I' for Inactive)
REMARK    1  A    between atoms: C_1  and  O_2
REMARK    2  A    between atoms: O_2  and  C_3
REMARK    3  A    between atoms: C_10  and  C_11
REMARK    4  A    between atoms: N_13  and  C_14
REMARK    5  A    between atoms: C_14  and  C_15
REMARK    6  A    between atoms: C_18  and  N_19
REMARK    7  A    between atoms: N_19  and  C_20
REMARK    8  A    between atoms: C_20  and  C_21
REMARK                            x       y       z     vdW  Elec       q    Type
REMARK                         _______ _______ _______ _____ _____    ______ ____
ROOT
ATOM      1  C   UNL     1       3.005  -1.075  -3.183  0.00  0.00    +0.000 C 
ENDROOT
BRANCH   1   2
ATOM      2  C   UNL     1       1.832  -1.906  -2.742  0.00  0.00    +0.000 A 
ATOM      3  C   UNL     1       1.941  -3.296  -2.690  0.00  0.00    +0.000 A 
ATOM      4  C   UNL     1       0.887  -4.073  -2.201  0.00  0.00    +0.000 A 
ATOM      5  C   UNL     1      -0.310  -3.496  -1.758  0.00  0.00    +0.000 A 
ATOM      6  C   UNL     1      -0.432  -2.106  -1.875  0.00  0.00    +0.000 A 
ATOM      7  C   UNL     1       0.619  -1.319  -2.369  0.00  0.00    +0.000 A 
BRANCH   5   8
ATOM      8  N   UNL     1      -1.310  -4.204  -1.085  0.00  0.00    +0.000 N 
ATOM      9  H   UNL     1      -2.250  -3.919  -1.351  0.00  0.00    +0.000 HD
BRANCH   8  10
ATOM     10  C   UNL     1      -1.150  -5.628  -0.810  0.00  0.00    +0.000 C 
BRANCH  10  11
ATOM     11  C   UNL     1      -1.880  -6.093   0.469  0.00  0.00    +0.000 C 
ATOM     12  C   UNL     1      -1.436  -5.380   1.755  0.00  0.00    +0.000 C 
ATOM     13  C   UNL     1      -0.040  -5.801   2.202  0.00  0.00    +0.000 C 
ATOM     14  C   UNL     1       0.076  -7.320   2.251  0.00  0.00    +0.000 C 
ATOM     15  C   UNL     1      -0.421  -7.954   0.960  0.00  0.00    +0.000 C 
ATOM     16  O   UNL     1      -1.745  -7.520   0.636  0.00  0.00    +0.000 OA
ENDBRANCH  10  11
ENDBRANCH   8  10
ENDBRANCH   5   8
ENDBRANCH   1   2
BRANCH   1  19
ATOM     17  C   UNL     1       4.057  -0.240  -5.224  0.00  0.00    +0.000 C 
ATOM     18  O   UNL     1       4.966   0.273  -4.571  0.00  0.00    +0.000 OA
ATOM     19  N   UNL     1       3.043  -0.920  -4.613  0.00  0.00    +0.000 N 
ATOM     20  H   UNL     1       2.275  -1.295  -5.153  0.00  0.00    +0.000 HD
BRANCH  17  28
ATOM     21  C   UNL     1       1.907  -1.425  -7.647  0.00  0.00    +0.000 A 
ATOM     22  N   UNL     1       1.300  -1.824  -8.786  0.00  0.00    +0.000 NA
ATOM     23  C   UNL     1       1.855  -1.482  -9.951  0.00  0.00    +0.000 A 
ATOM     24  N   UNL     1       2.962  -0.769 -10.130  0.00  0.00    +0.000 NA
ATOM     25  C   UNL     1       3.544  -0.403  -8.976  0.00  0.00    +0.000 A 
ATOM     26  S   UNL     1       4.965   0.525  -9.020  0.00  0.00    +0.000 S 
ATOM     27  C   UNL     1       5.063   0.540  -7.325  0.00  0.00    +0.000 A 
ATOM     28  C   UNL     1       4.037  -0.153  -6.694  0.00  0.00    +0.000 A 
ATOM     29  C   UNL     1       3.109  -0.694  -7.686  0.00  0.00    +0.000 A 
BRANCH  21  31
ATOM     30  C   UNL     1       0.069  -2.430  -6.580  0.00  0.00    +0.000 C 
ATOM     31  O   UNL     1       1.309  -1.738  -6.443  0.00  0.00    +0.000 OA
ENDBRANCH  21  31
ENDBRANCH  17  28
ENDBRANCH   1  19
TORSDOF 7
