REMARK  Name = 
REMARK  4 active torsions:
REMARK  status: ('A' for Active; 'I' for Inactive)
REMARK    1  A    between atoms: C_2  and  C_4
REMARK    2  A    between atoms: C_7  and  O_8
REMARK    3  A    between atoms: O_8  and  C_9
REMARK    4  A    between atoms: C_9  and  C_10
REMARK                            x       y       z     vdW  Elec       q    Type
REMARK                         _______ _______ _______ _____ _____    ______ ____
ROOT
ATOM      1  O   UNL     1       5.416  -1.951   4.037  0.00  0.00    +0.000 OA
ENDROOT
BRANCH   1   5
ATOM      2  C   UNL     1       2.672  -0.164   1.486  0.00  0.00    +0.000 A 
ATOM      3  C   UNL     1       2.552   0.062   2.862  0.00  0.00    +0.000 A 
ATOM      4  C   UNL     1       3.477  -0.496   3.748  0.00  0.00    +0.000 A 
ATOM      5  C   UNL     1       4.499  -1.305   3.257  0.00  0.00    +0.000 A 
ATOM      6  C   UNL     1       4.644  -1.498   1.883  0.00  0.00    +0.000 A 
ATOM      7  C   UNL     1       3.725  -0.939   0.995  0.00  0.00    +0.000 A 
BRANCH   2   9
ATOM      8  N   UNL     1       0.973   1.474   0.872  0.00  0.00    +0.000 N 
ATOM      9  C   UNL     1       1.670   0.356   0.516  0.00  0.00    +0.000 C 
ATOM     10  O   UNL     1       1.493  -0.176  -0.573  0.00  0.00    +0.000 OA
ATOM     11  H   UNL     1       0.356   1.863   0.170  0.00  0.00    +0.000 HD
ATOM     12  H   UNL     1       1.257   2.074   1.632  0.00  0.00    +0.000 HD
ENDBRANCH   2   9
ENDBRANCH   1   5
BRANCH   1  13
ATOM     13  C   UNL     1       5.008  -2.456   5.335  0.00  0.00    +0.000 C 
ATOM     14  C   UNL     1       4.877  -3.975   5.298  0.00  0.00    +0.000 C 
ATOM     15  C   UNL     1       3.665  -3.139   5.530  0.00  0.00    +0.000 C 
BRANCH  13  16
ATOM     16  C   UNL     1       5.724  -1.820   6.512  0.00  0.00    +0.000 A 
ATOM     17  C   UNL     1       7.117  -1.951   6.655  0.00  0.00    +0.000 A 
ATOM     18  C   UNL     1       7.815  -1.300   7.677  0.00  0.00    +0.000 A 
ATOM     19  C   UNL     1       7.130  -0.501   8.592  0.00  0.00    +0.000 A 
ATOM     20 CL   UNL     1       8.054   0.312   9.804  0.00  0.00    +0.000 Cl
ATOM     21  C   UNL     1       5.744  -0.371   8.489  0.00  0.00    +0.000 A 
ATOM     22 CL   UNL     1       4.820   0.595   9.584  0.00  0.00    +0.000 Cl
ATOM     23  C   UNL     1       5.054  -1.025   7.459  0.00  0.00    +0.000 A 
ENDBRANCH  13  16
ENDBRANCH   1  13
TORSDOF 4
