REMARK  Name = 
REMARK  7 active torsions:
REMARK  status: ('A' for Active; 'I' for Inactive)
REMARK    1  A    between atoms: C_1  and  C_2
REMARK    2  A    between atoms: C_2  and  N_3
REMARK    3  A    between atoms: C_2  and  C_17
REMARK    4  A    between atoms: C_4  and  C_6
REMARK    5  A    between atoms: N_12  and  C_13
REMARK    6  A    between atoms: C_20  and  C_21
REMARK    7  A    between atoms: C_21  and  N_22
REMARK                            x       y       z     vdW  Elec       q    Type
REMARK                         _______ _______ _______ _____ _____    ______ ____
ROOT
ATOM      1  C   UNL     1       1.060   0.014  -0.042  0.00  0.00    +0.000 C 
ATOM      2  C   UNL     1       2.589  -0.059  -0.029  0.00  0.00    +0.000 C 
ENDROOT
BRANCH   2   3
ATOM      3  C   UNL     1       3.090  -1.476  -0.080  0.00  0.00    +0.000 A 
ATOM      4  C   UNL     1       3.933  -1.909  -1.082  0.00  0.00    +0.000 A 
ATOM      5  N   UNL     1       4.412  -3.165  -1.177  0.00  0.00    +0.000 NA
ATOM      6  C   UNL     1       4.046  -4.032  -0.211  0.00  0.00    +0.000 A 
ATOM      7  N   UNL     1       3.252  -3.705   0.834  0.00  0.00    +0.000 NA
ATOM      8  C   UNL     1       2.787  -2.438   0.865  0.00  0.00    +0.000 A 
BRANCH   6   9
ATOM      9  C   UNL     1       4.564  -5.463  -0.293  0.00  0.00    +0.000 C 
BRANCH   9  10
ATOM     10  N   UNL     1       5.833  -5.628   0.431  0.00  0.00    +0.000 N 
ATOM     11  C   UNL     1       6.312  -6.947   0.435  0.00  0.00    +0.000 A 
ATOM     12  C   UNL     1       7.518  -7.208   1.084  0.00  0.00    +0.000 A 
ATOM     13  C   UNL     1       8.027  -8.506   1.099  0.00  0.00    +0.000 A 
ATOM     14  C   UNL     1       7.322  -9.516   0.461  0.00  0.00    +0.000 A 
ATOM     15  C   UNL     1       6.142  -9.175  -0.174  0.00  0.00    +0.000 A 
ATOM     16  N   UNL     1       5.633  -7.923  -0.202  0.00  0.00    +0.000 NA
ATOM     17  H   UNL     1       5.753  -5.289   1.385  0.00  0.00    +0.000 HD
ENDBRANCH   9  10
ENDBRANCH   6   9
ENDBRANCH   2   3
BRANCH   2  18
ATOM     18  N   UNL     1       3.118   0.604   1.144  0.00  0.00    +0.000 N 
ATOM     19  C   UNL     1       3.418   1.942   1.187  0.00  0.00    +0.000 C 
ATOM     20  O   UNL     1       3.389   2.655   0.189  0.00  0.00    +0.000 OA
ATOM     21  H   UNL     1       2.987   0.124   2.027  0.00  0.00    +0.000 HD
BRANCH  19  22
ATOM     22  C   UNL     1       3.829   2.456   2.498  0.00  0.00    +0.000 A 
ATOM     23  C   UNL     1       4.677   3.550   2.580  0.00  0.00    +0.000 A 
ATOM     24  S   UNL     1       5.061   3.993   4.182  0.00  0.00    +0.000 S 
ATOM     25  C   UNL     1       4.069   2.765   4.820  0.00  0.00    +0.000 A 
ATOM     26  N   UNL     1       3.923   2.610   6.160  0.00  0.00    +0.000 NA
ATOM     27  C   UNL     1       3.115   1.662   6.507  0.00  0.00    +0.000 A 
ATOM     28  N   UNL     1       2.435   0.833   5.638  0.00  0.00    +0.000 N 
ATOM     29  C   UNL     1       1.558  -0.205   6.139  0.00  0.00    +0.000 C 
ATOM     30  C   UNL     1       2.597   0.935   4.261  0.00  0.00    +0.000 A 
ATOM     31  O   UNL     1       2.069   0.157   3.469  0.00  0.00    +0.000 OA
ATOM     32  C   UNL     1       3.475   2.011   3.828  0.00  0.00    +0.000 A 
ENDBRANCH  19  22
ENDBRANCH   2  18
TORSDOF 5
