REMARK  Name = 
REMARK  9 active torsions:
REMARK  status: ('A' for Active; 'I' for Inactive)
REMARK    1  A    between atoms: C_1  and  O_2
REMARK    2  A    between atoms: O_2  and  C_3
REMARK    3  A    between atoms: C_10  and  C_11
REMARK    4  A    between atoms: N_13  and  C_14
REMARK    5  A    between atoms: C_14  and  C_15
REMARK    6  A    between atoms: C_18  and  C_19
REMARK    7  A    between atoms: C_19  and  N_20
REMARK    8  A    between atoms: N_20  and  C_21
REMARK    9  A    between atoms: C_21  and  C_22
REMARK                            x       y       z     vdW  Elec       q    Type
REMARK                         _______ _______ _______ _____ _____    ______ ____
ROOT
ATOM      1  C   UNL     1       2.842   0.872   3.163  0.00  0.00    +0.000 C 
ENDROOT
BRANCH   1   2
ATOM      2  C   UNL     1       1.783   1.873   2.776  0.00  0.00    +0.000 A 
ATOM      3  C   UNL     1       0.480   1.458   2.470  0.00  0.00    +0.000 A 
ATOM      4  C   UNL     1      -0.490   2.388   2.076  0.00  0.00    +0.000 A 
ATOM      5  C   UNL     1      -0.179   3.752   1.976  0.00  0.00    +0.000 A 
ATOM      6  C   UNL     1       1.125   4.163   2.278  0.00  0.00    +0.000 A 
ATOM      7  C   UNL     1       2.097   3.235   2.669  0.00  0.00    +0.000 A 
BRANCH   5   8
ATOM      8  C   UNL     1      -1.220   4.752   1.518  0.00  0.00    +0.000 C 
BRANCH   8   9
ATOM      9  N   UNL     1      -2.374   4.770   2.412  0.00  0.00    +0.000 NA
ATOM     10  H   UNL     1      -2.064   4.997   3.356  0.00  0.00    +0.000 HD
BRANCH   9  11
ATOM     11  C   UNL     1      -3.365   5.760   1.990  0.00  0.00    +0.000 C 
BRANCH  11  12
ATOM     12  C   UNL     1      -4.567   5.753   2.908  0.00  0.00    +0.000 A 
ATOM     13  C   UNL     1      -4.954   6.909   3.602  0.00  0.00    +0.000 A 
ATOM     14  C   UNL     1      -6.079   6.895   4.431  0.00  0.00    +0.000 A 
ATOM     15  C   UNL     1      -6.828   5.728   4.576  0.00  0.00    +0.000 A 
ATOM     16  C   UNL     1      -6.453   4.573   3.893  0.00  0.00    +0.000 A 
ATOM     17  C   UNL     1      -5.332   4.586   3.063  0.00  0.00    +0.000 A 
ENDBRANCH  11  12
ENDBRANCH   9  11
ENDBRANCH   8   9
ENDBRANCH   5   8
ENDBRANCH   1   2
BRANCH   1  20
ATOM     18  C   UNL     1       4.520  -0.575   2.098  0.00  0.00    +0.000 C 
ATOM     19  O   UNL     1       4.848  -1.039   3.188  0.00  0.00    +0.000 OA
ATOM     20  N   UNL     1       3.543   0.378   2.001  0.00  0.00    +0.000 N 
ATOM     21  H   UNL     1       3.312   0.785   1.105  0.00  0.00    +0.000 HD
BRANCH  18  29
ATOM     22  C   UNL     1       4.008   0.134  -1.236  0.00  0.00    +0.000 A 
ATOM     23  N   UNL     1       4.033   0.233  -2.581  0.00  0.00    +0.000 NA
ATOM     24  C   UNL     1       4.938  -0.488  -3.248  0.00  0.00    +0.000 A 
ATOM     25  N   UNL     1       5.841  -1.316  -2.729  0.00  0.00    +0.000 NA
ATOM     26  C   UNL     1       5.787  -1.378  -1.388  0.00  0.00    +0.000 A 
ATOM     27  S   UNL     1       6.867  -2.390  -0.556  0.00  0.00    +0.000 S 
ATOM     28  C   UNL     1       6.207  -1.942   0.943  0.00  0.00    +0.000 A 
ATOM     29  C   UNL     1       5.168  -1.022   0.852  0.00  0.00    +0.000 A 
ATOM     30  C   UNL     1       4.916  -0.689  -0.549  0.00  0.00    +0.000 A 
BRANCH  22  32
ATOM     31  C   UNL     1       1.937   1.211  -1.324  0.00  0.00    +0.000 C 
ATOM     32  O   UNL     1       3.094   0.906  -0.549  0.00  0.00    +0.000 OA
ENDBRANCH  22  32
ENDBRANCH  18  29
ENDBRANCH   1  20
TORSDOF 8
