REMARK  Name = 
REMARK  9 active torsions:
REMARK  status: ('A' for Active; 'I' for Inactive)
REMARK    1  A    between atoms: C_1  and  C_2
REMARK    2  A    between atoms: C_2  and  C_3
REMARK    3  A    between atoms: C_3  and  N_4
REMARK    4  A    between atoms: C_3  and  C_26
REMARK    5  A    between atoms: N_4  and  C_5
REMARK    6  A    between atoms: C_5  and  C_6
REMARK    7  A    between atoms: C_9  and  C_10
REMARK    8  A    between atoms: C_10  and  N_11
REMARK    9  A    between atoms: C_12  and  C_14
REMARK                            x       y       z     vdW  Elec       q    Type
REMARK                         _______ _______ _______ _____ _____    ______ ____
ROOT
ATOM      1  C   UNL     1       2.907  -1.461  -1.983  0.00  0.00    +0.000 A 
ATOM      2  C   UNL     1       2.487  -2.744  -1.601  0.00  0.00    +0.000 A 
ATOM      3  C   UNL     1       1.828  -3.577  -2.508  0.00  0.00    +0.000 A 
ATOM      4  C   UNL     1       1.577  -3.139  -3.813  0.00  0.00    +0.000 A 
ATOM      5  C   UNL     1       1.964  -1.843  -4.182  0.00  0.00    +0.000 A 
ATOM      6  C   UNL     1       2.625  -1.012  -3.277  0.00  0.00    +0.000 A 
ENDROOT
BRANCH   1   7
ATOM      7  C   UNL     1       3.590  -0.562  -0.982  0.00  0.00    +0.000 C 
BRANCH   7   8
ATOM      8  N   UNL     1       4.851  -1.136  -0.487  0.00  0.00    +0.000 NA
ATOM      9  H   UNL     1       5.458  -1.288  -1.295  0.00  0.00    +0.000 HD
BRANCH   8  10
ATOM     10  C   UNL     1       5.556  -0.214   0.436  0.00  0.00    +0.000 C 
BRANCH  10  11
ATOM     11  C   UNL     1       6.888  -0.774   0.960  0.00  0.00    +0.000 A 
ATOM     12  C   UNL     1       6.931  -1.960   1.697  0.00  0.00    +0.000 A 
ATOM     13  C   UNL     1       8.051  -2.226   2.483  0.00  0.00    +0.000 A 
ATOM     14  C   UNL     1       9.125  -1.343   2.468  0.00  0.00    +0.000 A 
ATOM     15  C   UNL     1       9.054  -0.252   1.622  0.00  0.00    +0.000 A 
ATOM     16  N   UNL     1       7.964   0.056   0.879  0.00  0.00    +0.000 NA
ENDBRANCH  10  11
BRANCH  10  18
ATOM     17  C   UNL     1       5.280   1.241   2.549  0.00  0.00    +0.000 C 
ATOM     18  C   UNL     1       4.668   0.180   1.646  0.00  0.00    +0.000 C 
ENDBRANCH  10  18
ENDBRANCH   8  10
ENDBRANCH   7   8
ENDBRANCH   1   7
BRANCH   4  19
ATOM     19  C   UNL     1       0.865  -4.015  -4.808  0.00  0.00    +0.000 C 
BRANCH  19  20
ATOM     20  N   UNL     1      -0.558  -3.802  -4.758  0.00  0.00    +0.000 N 
ATOM     21  C   UNL     1      -1.412  -4.526  -5.547  0.00  0.00    +0.000 C 
ATOM     22  O   UNL     1      -1.017  -5.399  -6.311  0.00  0.00    +0.000 OA
ATOM     23  H   UNL     1      -0.874  -2.923  -4.361  0.00  0.00    +0.000 HD
BRANCH  21  24
ATOM     24  C   UNL     1      -2.842  -4.243  -5.377  0.00  0.00    +0.000 A 
ATOM     25  C   UNL     1      -3.778  -5.223  -5.678  0.00  0.00    +0.000 A 
ATOM     26  S   UNL     1      -5.388  -4.746  -5.375  0.00  0.00    +0.000 S 
ATOM     27  C   UNL     1      -4.892  -3.193  -4.879  0.00  0.00    +0.000 A 
ATOM     28  N   UNL     1      -5.804  -2.255  -4.501  0.00  0.00    +0.000 NA
ATOM     29  C   UNL     1      -5.286  -1.109  -4.184  0.00  0.00    +0.000 A 
ATOM     30  N   UNL     1      -3.950  -0.832  -4.189  0.00  0.00    +0.000 N 
ATOM     31  C   UNL     1      -2.987  -1.759  -4.529  0.00  0.00    +0.000 A 
ATOM     32  O   UNL     1      -1.794  -1.480  -4.491  0.00  0.00    +0.000 OA
ATOM     33  C   UNL     1      -3.517  -3.050  -4.921  0.00  0.00    +0.000 A 
ATOM     34  H   UNL     1      -3.604   0.079  -3.919  0.00  0.00    +0.000 HD
ENDBRANCH  21  24
ENDBRANCH  19  20
ENDBRANCH   4  19
TORSDOF 8
