REMARK  Name = 
REMARK  5 active torsions:
REMARK  status: ('A' for Active; 'I' for Inactive)
REMARK    1  A    between atoms: C_2  and  C_4
REMARK    2  A    between atoms: C_7  and  O_8
REMARK    3  A    between atoms: O_8  and  C_9
REMARK    4  A    between atoms: C_9  and  C_10
REMARK    5  A    between atoms: C_12  and  C_13
REMARK                            x       y       z     vdW  Elec       q    Type
REMARK                         _______ _______ _______ _____ _____    ______ ____
ROOT
ATOM      1  C   UNL     1       5.235   0.689   5.837  0.00  0.00    +0.000 C 
ENDROOT
BRANCH   1   2
ATOM      2  C   UNL     1       6.215   1.154   6.885  0.00  0.00    +0.000 A 
ATOM      3  C   UNL     1       6.340   2.507   7.241  0.00  0.00    +0.000 A 
ATOM      4  C   UNL     1       7.196   2.933   8.278  0.00  0.00    +0.000 A 
ATOM      5  C   UNL     1       7.933   1.943   8.955  0.00  0.00    +0.000 A 
ATOM      6  C   UNL     1       7.820   0.592   8.613  0.00  0.00    +0.000 A 
ATOM      7  C   UNL     1       6.960   0.212   7.593  0.00  0.00    +0.000 A 
ATOM      8  F   UNL     1       6.842  -1.092   7.303  0.00  0.00    +0.000 F 
BRANCH   4   9
ATOM      9  C   UNL     1       7.303   4.366   8.641  0.00  0.00    +0.000 A 
ATOM     10  C   UNL     1       6.202   5.231   8.546  0.00  0.00    +0.000 A 
ATOM     11  C   UNL     1       6.350   6.570   8.878  0.00  0.00    +0.000 A 
ATOM     12  N   UNL     1       7.506   7.110   9.310  0.00  0.00    +0.000 NA
ATOM     13  C   UNL     1       8.558   6.275   9.410  0.00  0.00    +0.000 A 
ATOM     14  C   UNL     1       8.508   4.926   9.089  0.00  0.00    +0.000 A 
ENDBRANCH   4   9
ENDBRANCH   1   2
BRANCH   1  15
ATOM     15  O   UNL     1       5.048   1.698   4.837  0.00  0.00    +0.000 OA
BRANCH  15  19
ATOM     16  C   UNL     1       2.278   0.649   1.977  0.00  0.00    +0.000 A 
ATOM     17  C   UNL     1       2.911   1.892   1.903  0.00  0.00    +0.000 A 
ATOM     18  C   UNL     1       3.850   2.235   2.878  0.00  0.00    +0.000 A 
ATOM     19  C   UNL     1       4.118   1.324   3.889  0.00  0.00    +0.000 A 
ATOM     20  N   UNL     1       3.515   0.120   3.988  0.00  0.00    +0.000 NA
ATOM     21  C   UNL     1       2.603  -0.187   3.035  0.00  0.00    +0.000 A 
BRANCH  16  23
ATOM     22  N   UNL     1       1.310   0.712  -0.253  0.00  0.00    +0.000 N 
ATOM     23  C   UNL     1       1.261   0.190   1.009  0.00  0.00    +0.000 C 
ATOM     24  O   UNL     1       0.427  -0.652   1.313  0.00  0.00    +0.000 OA
ATOM     25  H   UNL     1       0.673   0.304  -0.927  0.00  0.00    +0.000 HD
ATOM     26  H   UNL     1       2.115   1.205  -0.611  0.00  0.00    +0.000 HD
ENDBRANCH  16  23
ENDBRANCH  15  19
ENDBRANCH   1  15
TORSDOF 5
