REMARK  Name = 
REMARK  10 active torsions:
REMARK  status: ('A' for Active; 'I' for Inactive)
REMARK    1  A    between atoms: C_1  and  C_2
REMARK    2  A    between atoms: N_4  and  C_5
REMARK    3  A    between atoms: C_9  and  C_10
REMARK    4  A    between atoms: C_10  and  C_11
REMARK    5  A    between atoms: C_10  and  C_12
REMARK    6  A    between atoms: C_10  and  C_13
REMARK    7  A    between atoms: C_13  and  N_14
REMARK    8  A    between atoms: N_14  and  C_15
REMARK    9  A    between atoms: C_18  and  C_19
REMARK   10  A    between atoms: C_27  and  C_28
REMARK                            x       y       z     vdW  Elec       q    Type
REMARK                         _______ _______ _______ _____ _____    ______ ____
ROOT
ATOM      1  C   UNL     1      -1.448   1.145  -5.297  0.00  0.00    +0.000 C 
ATOM      2  C   UNL     1      -2.479   0.856  -4.183  0.00  0.00    +0.000 C 
ATOM      3  C   UNL     1      -2.101   2.100  -6.326  0.00  0.00    +0.000 C 
ENDROOT
BRANCH   1   8
ATOM      4  C   UNL     1       1.828   1.504  -3.234  0.00  0.00    +0.000 A 
ATOM      5  C   UNL     1       2.234   2.786  -3.622  0.00  0.00    +0.000 A 
ATOM      6  C   UNL     1       1.466   3.563  -4.483  0.00  0.00    +0.000 A 
ATOM      7  C   UNL     1       0.277   3.061  -5.007  0.00  0.00    +0.000 A 
ATOM      8  C   UNL     1      -0.176   1.776  -4.671  0.00  0.00    +0.000 A 
ATOM      9  C   UNL     1       0.602   1.044  -3.746  0.00  0.00    +0.000 A 
BRANCH   4  13
ATOM     10  C   UNL     1       1.836  -2.236  -3.106  0.00  0.00    +0.000 C 
ATOM     11  C   UNL     1       2.550  -1.682  -1.874  0.00  0.00    +0.000 C 
ATOM     12  C   UNL     1       2.076  -0.269  -1.477  0.00  0.00    +0.000 C 
ATOM     13  N   UNL     1       2.614   0.752  -2.383  0.00  0.00    +0.000 N 
ATOM     14  C   UNL     1       4.070   0.669  -2.594  0.00  0.00    +0.000 C 
ATOM     15  C   UNL     1       4.477  -0.772  -2.975  0.00  0.00    +0.000 C 
ATOM     16  C   UNL     1       5.995  -0.905  -3.017  0.00  0.00    +0.000 C 
ATOM     17  O   UNL     1       3.982  -1.738  -2.029  0.00  0.00    +0.000 OA
ENDBRANCH   4  13
ENDBRANCH   1   8
BRANCH   1  18
ATOM     18  C   UNL     1      -1.066  -0.199  -6.010  0.00  0.00    +0.000 C 
BRANCH  18  19
ATOM     19  N   UNL     1      -2.221  -0.866  -6.639  0.00  0.00    +0.000 N 
ATOM     20  H   UNL     1      -2.797  -0.231  -7.184  0.00  0.00    +0.000 HD
BRANCH  19  21
ATOM     21  C   UNL     1      -2.008  -2.065  -7.331  0.00  0.00    +0.000 A 
ATOM     22  C   UNL     1      -1.060  -3.014  -6.936  0.00  0.00    +0.000 A 
ATOM     23  C   UNL     1      -0.934  -4.239  -7.606  0.00  0.00    +0.000 A 
ATOM     24  C   UNL     1      -1.772  -4.549  -8.678  0.00  0.00    +0.000 A 
ATOM     25  C   UNL     1      -2.737  -3.623  -9.058  0.00  0.00    +0.000 A 
ATOM     26  F   UNL     1      -3.580  -3.869 -10.076  0.00  0.00    +0.000 F 
ATOM     27  C   UNL     1      -2.867  -2.404  -8.386  0.00  0.00    +0.000 A 
BRANCH  24  28
ATOM     28  C   UNL     1      -1.588  -5.857  -9.349  0.00  0.00    +0.000 C 
ATOM     29  N   UNL     1      -2.418  -6.178 -10.388  0.00  0.00    +0.000 N 
ATOM     30  O   UNL     1      -0.722  -6.647  -8.994  0.00  0.00    +0.000 OA
ATOM     31  H   UNL     1      -3.153  -5.563 -10.717  0.00  0.00    +0.000 HD
ATOM     32  H   UNL     1      -2.290  -7.072 -10.842  0.00  0.00    +0.000 HD
ENDBRANCH  24  28
ENDBRANCH  19  21
ENDBRANCH  18  19
ENDBRANCH   1  18
TORSDOF 6
