REMARK  Name = 
REMARK  6 active torsions:
REMARK  status: ('A' for Active; 'I' for Inactive)
REMARK    1  A    between atoms: C_2  and  C_3
REMARK    2  A    between atoms: C_6  and  C_7
REMARK    3  A    between atoms: C_11  and  C_12
REMARK    4  A    between atoms: C_12  and  N_13
REMARK    5  A    between atoms: N_13  and  C_14
REMARK    6  A    between atoms: C_17  and  C_18
REMARK                            x       y       z     vdW  Elec       q    Type
REMARK                         _______ _______ _______ _____ _____    ______ ____
ROOT
ATOM      1  C   UNL     1       6.603  -1.210  -1.760  0.00  0.00    +0.000 C 
ATOM      2  C   UNL     1       7.549  -2.412  -1.791  0.00  0.00    +0.000 C 
ATOM      3  C   UNL     1       8.059  -1.064  -2.153  0.00  0.00    +0.000 C 
ATOM      4  F   UNL     1       8.390  -0.883  -3.486  0.00  0.00    +0.000 F 
ENDROOT
BRANCH   1   9
ATOM      5  C   UNL     1       4.367   0.203  -4.367  0.00  0.00    +0.000 A 
ATOM      6  N   UNL     1       3.417  -0.732  -4.558  0.00  0.00    +0.000 NA
ATOM      7  C   UNL     1       3.560  -1.876  -3.875  0.00  0.00    +0.000 A 
ATOM      8  C   UNL     1       4.603  -2.114  -3.015  0.00  0.00    +0.000 A 
ATOM      9  C   UNL     1       5.529  -1.096  -2.843  0.00  0.00    +0.000 A 
ATOM     10  N   UNL     1       5.410   0.065  -3.527  0.00  0.00    +0.000 NA
BRANCH   5  14
ATOM     11  C   UNL     1       3.955   3.943  -6.476  0.00  0.00    +0.000 A 
ATOM     12  C   UNL     1       2.974   2.960  -6.592  0.00  0.00    +0.000 A 
ATOM     13  C   UNL     1       3.114   1.745  -5.911  0.00  0.00    +0.000 A 
ATOM     14  C   UNL     1       4.232   1.480  -5.096  0.00  0.00    +0.000 A 
ATOM     15  C   UNL     1       5.211   2.489  -5.000  0.00  0.00    +0.000 A 
ATOM     16  C   UNL     1       5.077   3.706  -5.679  0.00  0.00    +0.000 A 
BRANCH  11  18
ATOM     17  N   UNL     1       3.686   6.205  -7.722  0.00  0.00    +0.000 NA
ATOM     18  C   UNL     1       3.811   5.191  -7.166  0.00  0.00    +0.000 C 
ENDBRANCH  11  18
ENDBRANCH   5  14
ENDBRANCH   1   9
BRANCH   1  19
ATOM     19  N   UNL     1       6.081  -0.885  -0.403  0.00  0.00    +0.000 N 
ATOM     20  H   UNL     1       5.178  -1.307  -0.194  0.00  0.00    +0.000 HD
BRANCH  19  21
ATOM     21  C   UNL     1       6.159   0.390   0.197  0.00  0.00    +0.000 A 
ATOM     22  C   UNL     1       6.877   1.463  -0.331  0.00  0.00    +0.000 A 
ATOM     23  C   UNL     1       7.022   2.653   0.395  0.00  0.00    +0.000 A 
ATOM     24  C   UNL     1       6.451   2.786   1.665  0.00  0.00    +0.000 A 
ATOM     25  C   UNL     1       5.732   1.720   2.207  0.00  0.00    +0.000 A 
ATOM     26  C   UNL     1       5.597   0.534   1.478  0.00  0.00    +0.000 A 
BRANCH  24  27
ATOM     27  C   UNL     1       6.684   4.047   2.417  0.00  0.00    +0.000 C 
ATOM     28  N   UNL     1       5.773   4.391   3.379  0.00  0.00    +0.000 N 
ATOM     29  O   UNL     1       7.643   4.766   2.178  0.00  0.00    +0.000 OA
ATOM     30  H   UNL     1       4.870   3.952   3.468  0.00  0.00    +0.000 HD
ATOM     31  H   UNL     1       5.907   5.294   3.815  0.00  0.00    +0.000 HD
ENDBRANCH  24  27
ENDBRANCH  19  21
ENDBRANCH   1  19
TORSDOF 6
