REMARK  Name = 
REMARK  7 active torsions:
REMARK  status: ('A' for Active; 'I' for Inactive)
REMARK    1  A    between atoms: C_1  and  C_2
REMARK    2  A    between atoms: C_2  and  N_3
REMARK    3  A    between atoms: C_2  and  C_16
REMARK    4  A    between atoms: C_4  and  C_6
REMARK    5  A    between atoms: C_19  and  C_20
REMARK    6  A    between atoms: C_20  and  N_21
REMARK    7  A    between atoms: C_22  and  C_24
REMARK                            x       y       z     vdW  Elec       q    Type
REMARK                         _______ _______ _______ _____ _____    ______ ____
ROOT
ATOM      1  C   UNL     1       1.315  -0.354  -0.947  0.00  0.00    +0.000 C 
ATOM      2  C   UNL     1       2.458  -0.110   0.047  0.00  0.00    +0.000 C 
ENDROOT
BRANCH   2   3
ATOM      3  C   UNL     1       2.834  -1.339   0.862  0.00  0.00    +0.000 A 
ATOM      4  C   UNL     1       3.326  -1.179   2.168  0.00  0.00    +0.000 A 
ATOM      5  C   UNL     1       3.661  -2.289   2.954  0.00  0.00    +0.000 A 
ATOM      6  C   UNL     1       3.528  -3.587   2.446  0.00  0.00    +0.000 A 
ATOM      7  C   UNL     1       3.060  -3.750   1.138  0.00  0.00    +0.000 A 
ATOM      8  C   UNL     1       2.735  -2.641   0.351  0.00  0.00    +0.000 A 
BRANCH   6   9
ATOM      9  C   UNL     1       3.841  -4.791   3.294  0.00  0.00    +0.000 C 
BRANCH   9  10
ATOM     10  N   UNL     1       2.683  -5.219   4.042  0.00  0.00    +0.000 N 
ATOM     11  C   UNL     1       2.708  -6.365   4.798  0.00  0.00    +0.000 C 
ATOM     12  O   UNL     1       3.692  -7.097   4.855  0.00  0.00    +0.000 OA
ATOM     13  H   UNL     1       1.882  -4.606   4.069  0.00  0.00    +0.000 HD
BRANCH  11  14
ATOM     14  C   UNL     1       1.500  -6.653   5.527  0.00  0.00    +0.000 A 
ATOM     15  C   UNL     1       0.268  -6.032   5.608  0.00  0.00    +0.000 A 
ATOM     16  N   UNL     1      -0.576  -6.698   6.458  0.00  0.00    +0.000 NA
ATOM     17  C   UNL     1       0.117  -7.721   6.899  0.00  0.00    +0.000 A 
ATOM     18  N   UNL     1       1.371  -7.740   6.364  0.00  0.00    +0.000 N 
ATOM     19  H   UNL     1       2.096  -8.424   6.541  0.00  0.00    +0.000 HD
ENDBRANCH  11  14
ENDBRANCH   9  10
ENDBRANCH   6   9
ENDBRANCH   2   3
BRANCH   2  20
ATOM     20  N   UNL     1       3.629   0.389  -0.646  0.00  0.00    +0.000 N 
ATOM     21  C   UNL     1       3.759   1.706  -1.010  0.00  0.00    +0.000 C 
ATOM     22  O   UNL     1       2.968   2.572  -0.646  0.00  0.00    +0.000 OA
ATOM     23  H   UNL     1       4.208  -0.307  -1.102  0.00  0.00    +0.000 HD
BRANCH  21  24
ATOM     24  C   UNL     1       4.924   2.038  -1.837  0.00  0.00    +0.000 A 
ATOM     25  C   UNL     1       5.477   3.310  -1.780  0.00  0.00    +0.000 A 
ATOM     26  S   UNL     1       6.804   3.524  -2.831  0.00  0.00    +0.000 S 
ATOM     27  C   UNL     1       6.650   1.941  -3.436  0.00  0.00    +0.000 A 
ATOM     28  N   UNL     1       7.460   1.489  -4.431  0.00  0.00    +0.000 NA
ATOM     29  C   UNL     1       7.203   0.286  -4.822  0.00  0.00    +0.000 A 
ATOM     30  N   UNL     1       6.224  -0.516  -4.293  0.00  0.00    +0.000 N 
ATOM     31  C   UNL     1       5.429  -0.127  -3.242  0.00  0.00    +0.000 A 
ATOM     32  O   UNL     1       4.641  -0.906  -2.716  0.00  0.00    +0.000 OA
ATOM     33  C   UNL     1       5.636   1.241  -2.807  0.00  0.00    +0.000 A 
ATOM     34  H   UNL     1       6.101  -1.463  -4.620  0.00  0.00    +0.000 HD
ENDBRANCH  21  24
ENDBRANCH   2  20
TORSDOF 6
