REMARK  Name = 
REMARK  6 active torsions:
REMARK  status: ('A' for Active; 'I' for Inactive)
REMARK    1  A    between atoms: C_2  and  C_18
REMARK    2  A    between atoms: N_3  and  C_4
REMARK    3  A    between atoms: C_4  and  C_5
REMARK    4  A    between atoms: C_8  and  C_9
REMARK    5  A    between atoms: C_9  and  C_10
REMARK    6  A    between atoms: C_13  and  O_14
REMARK                            x       y       z     vdW  Elec       q    Type
REMARK                         _______ _______ _______ _____ _____    ______ ____
ROOT
ATOM      1  O   UNL     1       4.381 -11.027   5.074  0.00  0.00    +0.000 OA
ATOM      2  C   UNL     1       4.912 -11.998   4.549  0.00  0.00    +0.000 C 
ATOM      3  N   UNL     1       6.264 -12.101   4.363  0.00  0.00    +0.000 N 
ATOM      4  H   UNL     1       6.630 -12.836   3.771  0.00  0.00    +0.000 HD
ENDROOT
BRANCH   2   5
ATOM      5  C   UNL     1       4.137 -13.169   4.119  0.00  0.00    +0.000 A 
ATOM      6  C   UNL     1       2.915 -13.470   4.700  0.00  0.00    +0.000 A 
ATOM      7  S   UNL     1       2.172 -14.860   4.041  0.00  0.00    +0.000 S 
ATOM      8  C   UNL     1       3.449 -15.088   2.939  0.00  0.00    +0.000 A 
ATOM      9  N   UNL     1       3.430 -16.105   2.034  0.00  0.00    +0.000 NA
ATOM     10  C   UNL     1       4.451 -16.137   1.244  0.00  0.00    +0.000 A 
ATOM     11  N   UNL     1       5.497 -15.256   1.281  0.00  0.00    +0.000 N 
ATOM     12  C   UNL     1       5.600 -14.270   2.229  0.00  0.00    +0.000 A 
ATOM     13  O   UNL     1       6.632 -13.619   2.331  0.00  0.00    +0.000 OA
ATOM     14  C   UNL     1       4.446 -14.145   3.099  0.00  0.00    +0.000 A 
ATOM     15  H   UNL     1       6.296 -15.360   0.672  0.00  0.00    +0.000 HD
ENDBRANCH   2   5
BRANCH   3  16
ATOM     16  C   UNL     1       7.211 -11.073   4.690  0.00  0.00    +0.000 C 
BRANCH  16  17
ATOM     17  C   UNL     1       7.507 -10.171   3.519  0.00  0.00    +0.000 A 
ATOM     18  C   UNL     1       6.729  -9.027   3.305  0.00  0.00    +0.000 A 
ATOM     19  C   UNL     1       7.005  -8.167   2.240  0.00  0.00    +0.000 A 
ATOM     20  C   UNL     1       8.078  -8.414   1.376  0.00  0.00    +0.000 A 
ATOM     21  C   UNL     1       8.841  -9.576   1.571  0.00  0.00    +0.000 A 
ATOM     22  C   UNL     1       8.549 -10.452   2.625  0.00  0.00    +0.000 A 
BRANCH  20  23
ATOM     23  C   UNL     1       8.396  -7.457   0.248  0.00  0.00    +0.000 C 
BRANCH  23  24
ATOM     24  C   UNL     1       8.728  -6.021   0.711  0.00  0.00    +0.000 C 
ATOM     25  C   UNL     1       9.958  -5.944   1.637  0.00  0.00    +0.000 C 
ATOM     26  C   UNL     1      10.915  -4.930   1.010  0.00  0.00    +0.000 C 
ATOM     27  C   UNL     1      10.572  -4.954  -0.471  0.00  0.00    +0.000 C 
ATOM     28  C   UNL     1       9.055  -5.091  -0.474  0.00  0.00    +0.000 C 
BRANCH  27  29
ATOM     29  O   UNL     1      11.175  -6.062  -1.125  0.00  0.00    +0.000 OA
ATOM     30  H   UNL     1      11.127  -6.836  -0.540  0.00  0.00    +0.000 HD
ENDBRANCH  27  29
ENDBRANCH  23  24
ENDBRANCH  20  23
ENDBRANCH  16  17
ENDBRANCH   3  16
TORSDOF 6
