REMARK  Name = 
REMARK  9 active torsions:
REMARK  status: ('A' for Active; 'I' for Inactive)
REMARK    1  A    between atoms: C_2  and  C_22
REMARK    2  A    between atoms: N_3  and  C_4
REMARK    3  A    between atoms: C_4  and  C_5
REMARK    4  A    between atoms: C_8  and  C_9
REMARK    5  A    between atoms: C_9  and  N_10
REMARK    6  A    between atoms: N_10  and  CA_11
REMARK    7  A    between atoms: CA_11  and  C_12
REMARK    8  A    between atoms: CA_11  and  C_14
REMARK    9  A    between atoms: C_12  and  O_13
REMARK                            x       y       z     vdW  Elec       q    Type
REMARK                         _______ _______ _______ _____ _____    ______ ____
ROOT
ATOM      1  C   UNL     1       3.304   3.514  -0.506  0.00  0.00    +0.000 A 
ATOM      2  C   UNL     1       2.841   4.829  -0.466  0.00  0.00    +0.000 A 
ATOM      3  C   UNL     1       3.735   5.883  -0.626  0.00  0.00    +0.000 A 
ATOM      4  C   UNL     1       5.079   5.594  -0.842  0.00  0.00    +0.000 A 
ATOM      5  N   UNL     1       5.549   4.324  -0.936  0.00  0.00    +0.000 NA
ATOM      6  C   UNL     1       4.654   3.320  -0.774  0.00  0.00    +0.000 A 
ENDROOT
BRANCH   1   7
ATOM      7  C   UNL     1       2.371   2.361  -0.283  0.00  0.00    +0.000 C 
BRANCH   7  10
ATOM      8  O   UNL     1      -0.106   3.123  -1.410  0.00  0.00    +0.000 OA
ATOM      9  C   UNL     1       0.614   2.338  -2.021  0.00  0.00    +0.000 C 
ATOM     10  N   UNL     1       1.805   1.885  -1.516  0.00  0.00    +0.000 N 
ATOM     11  H   UNL     1       2.433   1.373  -2.125  0.00  0.00    +0.000 HD
BRANCH   9  12
ATOM     12  C   UNL     1       0.222   1.783  -3.323  0.00  0.00    +0.000 A 
ATOM     13  C   UNL     1      -1.116   1.755  -3.694  0.00  0.00    +0.000 A 
ATOM     14  S   UNL     1      -1.384   1.045  -5.222  0.00  0.00    +0.000 S 
ATOM     15  C   UNL     1       0.282   0.797  -5.463  0.00  0.00    +0.000 A 
ATOM     16  N   UNL     1       0.750   0.239  -6.612  0.00  0.00    +0.000 NA
ATOM     17  C   UNL     1       2.037   0.162  -6.683  0.00  0.00    +0.000 A 
ATOM     18  N   UNL     1       2.900   0.575  -5.702  0.00  0.00    +0.000 N 
ATOM     19  C   UNL     1       2.470   1.059  -4.491  0.00  0.00    +0.000 A 
ATOM     20  O   UNL     1       3.260   1.275  -3.577  0.00  0.00    +0.000 OA
ATOM     21  C   UNL     1       1.032   1.223  -4.382  0.00  0.00    +0.000 A 
ATOM     22  H   UNL     1       3.898   0.462  -5.807  0.00  0.00    +0.000 HD
ENDBRANCH   9  12
ENDBRANCH   7  10
ENDBRANCH   1   7
BRANCH   4  23
ATOM     23  C   UNL     1       6.083   6.719  -0.995  0.00  0.00    +0.000 C 
BRANCH  23  24
ATOM     24  N   UNL     1       6.877   6.665  -2.235  0.00  0.00    +0.000 NA
ATOM     25  H   UNL     1       7.303   5.731  -2.232  0.00  0.00    +0.000 HD
BRANCH  24  26
ATOM     26  CA  UNL     1       6.064   6.740  -3.483  0.00  0.00    +0.000 C 
BRANCH  26  27
ATOM     27  C   UNL     1       6.939   6.562  -4.722  0.00  0.00    +0.000 A 
ATOM     28  C   UNL     1       8.271   6.967  -4.753  0.00  0.00    +0.000 A 
ATOM     29  C   UNL     1       9.013   6.762  -5.909  0.00  0.00    +0.000 A 
ATOM     30  C   UNL     1       8.380   6.175  -6.982  0.00  0.00    +0.000 A 
ATOM     31  N   UNL     1       7.088   5.794  -6.945  0.00  0.00    +0.000 NA
ATOM     32  N   UNL     1       6.361   5.989  -5.805  0.00  0.00    +0.000 NA
ENDBRANCH  26  27
BRANCH  26  33
ATOM     33  C   UNL     1       5.261   8.058  -3.610  0.00  0.00    +0.000 C 
BRANCH  33  34
ATOM     34  O   UNL     1       6.095   9.213  -3.486  0.00  0.00    +0.000 OA
ATOM     35  H   UNL     1       6.811   8.963  -2.873  0.00  0.00    +0.000 HD
ENDBRANCH  33  34
ENDBRANCH  26  33
ENDBRANCH  24  26
ENDBRANCH  23  24
ENDBRANCH   4  23
TORSDOF 9
