REMARK  Name = 
REMARK  8 active torsions:
REMARK  status: ('A' for Active; 'I' for Inactive)
REMARK    1  A    between atoms: C_1  and  O_2
REMARK    2  A    between atoms: O_2  and  C_3
REMARK    3  A    between atoms: C_10  and  C_11
REMARK    4  A    between atoms: N_13  and  C_14
REMARK    5  A    between atoms: C_14  and  C_15
REMARK    6  A    between atoms: C_18  and  N_19
REMARK    7  A    between atoms: N_19  and  C_20
REMARK    8  A    between atoms: C_20  and  C_21
REMARK                            x       y       z     vdW  Elec       q    Type
REMARK                         _______ _______ _______ _____ _____    ______ ____
ROOT
ATOM      1  C   UNL     1       2.926   0.322  -3.372  0.00  0.00    +0.000 C 
ENDROOT
BRANCH   1   2
ATOM      2  C   UNL     1       1.777  -0.624  -3.163  0.00  0.00    +0.000 A 
ATOM      3  C   UNL     1       1.988  -2.003  -3.192  0.00  0.00    +0.000 A 
ATOM      4  C   UNL     1       0.948  -2.887  -2.888  0.00  0.00    +0.000 A 
ATOM      5  C   UNL     1      -0.334  -2.430  -2.566  0.00  0.00    +0.000 A 
ATOM      6  C   UNL     1      -0.554  -1.047  -2.617  0.00  0.00    +0.000 A 
ATOM      7  C   UNL     1       0.483  -0.153  -2.920  0.00  0.00    +0.000 A 
BRANCH   5   8
ATOM      8  N   UNL     1      -1.341  -3.245  -2.048  0.00  0.00    +0.000 N 
ATOM      9  H   UNL     1      -2.279  -2.984  -2.335  0.00  0.00    +0.000 HD
BRANCH   8  10
ATOM     10  C   UNL     1      -1.124  -4.664  -1.803  0.00  0.00    +0.000 C 
BRANCH  10  11
ATOM     11  C   UNL     1      -1.950  -5.166  -0.602  0.00  0.00    +0.000 C 
ATOM     12  C   UNL     1      -1.602  -4.448   0.715  0.00  0.00    +0.000 C 
ATOM     13  C   UNL     1      -0.199  -4.800   1.217  0.00  0.00    +0.000 C 
ATOM     14  N   UNL     1       0.005  -6.246   1.348  0.00  0.00    +0.000 NA
ATOM     15  C   UNL     1      -0.293  -6.964   0.110  0.00  0.00    +0.000 C 
ATOM     16  C   UNL     1      -1.713  -6.673  -0.391  0.00  0.00    +0.000 C 
ATOM     17  H   UNL     1      -0.604  -6.597   2.088  0.00  0.00    +0.000 HD
ENDBRANCH  10  11
ENDBRANCH   8  10
ENDBRANCH   5   8
ENDBRANCH   1   2
BRANCH   1  20
ATOM     18  C   UNL     1       4.205   1.351  -5.185  0.00  0.00    +0.000 C 
ATOM     19  O   UNL     1       4.965   1.877  -4.374  0.00  0.00    +0.000 OA
ATOM     20  N   UNL     1       3.162   0.568  -4.769  0.00  0.00    +0.000 N 
ATOM     21  H   UNL     1       2.518   0.171  -5.438  0.00  0.00    +0.000 HD
BRANCH  18  29
ATOM     22  C   UNL     1       2.521   0.183  -7.957  0.00  0.00    +0.000 A 
ATOM     23  N   UNL     1       2.108  -0.173  -9.191  0.00  0.00    +0.000 NA
ATOM     24  C   UNL     1       2.794   0.283 -10.242  0.00  0.00    +0.000 A 
ATOM     25  N   UNL     1       3.858   1.078 -10.218  0.00  0.00    +0.000 NA
ATOM     26  C   UNL     1       4.245   1.402  -8.972  0.00  0.00    +0.000 A 
ATOM     27  S   UNL     1       5.585   2.420  -8.755  0.00  0.00    +0.000 S 
ATOM     28  C   UNL     1       5.440   2.330  -7.065  0.00  0.00    +0.000 A 
ATOM     29  C   UNL     1       4.391   1.527  -6.632  0.00  0.00    +0.000 A 
ATOM     30  C   UNL     1       3.655   0.996  -7.778  0.00  0.00    +0.000 A 
BRANCH  22  32
ATOM     31  C   UNL     1       0.625  -0.997  -7.216  0.00  0.00    +0.000 C 
ATOM     32  O   UNL     1       1.796  -0.262  -6.870  0.00  0.00    +0.000 OA
ENDBRANCH  22  32
ENDBRANCH  18  29
ENDBRANCH   1  20
TORSDOF 7
