REMARK  Name = 
REMARK  10 active torsions:
REMARK  status: ('A' for Active; 'I' for Inactive)
REMARK    1  A    between atoms: C_1  and  C_2
REMARK    2  A    between atoms: C_2  and  C_3
REMARK    3  A    between atoms: C_5  and  O_6
REMARK    4  A    between atoms: O_6  and  C_7
REMARK    5  A    between atoms: C_9  and  N_10
REMARK    6  A    between atoms: N_10  and  C_11
REMARK    7  A    between atoms: C_11  and  C_12
REMARK    8  A    between atoms: C_12  and  C_15
REMARK    9  A    between atoms: C_19  and  C_20
REMARK   10  A    between atoms: C_25  and  C_26
REMARK                            x       y       z     vdW  Elec       q    Type
REMARK                         _______ _______ _______ _____ _____    ______ ____
ROOT
ATOM      1  N   UNL     1       0.706   4.779   0.404  0.00  0.00    +0.000 N 
ATOM      2  H   UNL     1       0.151   5.232   1.133  0.00  0.00    +0.000 HD
ENDROOT
BRANCH   1   5
ATOM      3  C   UNL     1      -1.608   2.402  -1.223  0.00  0.00    +0.000 A 
ATOM      4  C   UNL     1      -0.729   2.980  -0.308  0.00  0.00    +0.000 A 
ATOM      5  C   UNL     1      -0.175   4.244  -0.550  0.00  0.00    +0.000 A 
ATOM      6  C   UNL     1      -0.622   4.970  -1.660  0.00  0.00    +0.000 A 
ATOM      7  C   UNL     1      -1.512   4.413  -2.589  0.00  0.00    +0.000 A 
ATOM      8  C   UNL     1      -1.985   3.110  -2.370  0.00  0.00    +0.000 A 
BRANCH   7   9
ATOM      9  C   UNL     1      -1.960   5.220  -3.783  0.00  0.00    +0.000 C 
ATOM     10  F   UNL     1      -1.454   6.489  -3.801  0.00  0.00    +0.000 F 
ATOM     11  F   UNL     1      -1.594   4.662  -4.969  0.00  0.00    +0.000 F 
ATOM     12  F   UNL     1      -3.312   5.368  -3.835  0.00  0.00    +0.000 F 
ENDBRANCH   7   9
BRANCH   3  13
ATOM     13  O   UNL     1      -2.228   1.197  -1.006  0.00  0.00    +0.000 OA
BRANCH  13  18
ATOM     14  C   UNL     1      -0.778  -1.354   1.571  0.00  0.00    +0.000 C 
ATOM     15  C   UNL     1      -1.825  -0.629   0.758  0.00  0.00    +0.000 C 
ATOM     16  C   UNL     1      -2.973  -0.085   1.571  0.00  0.00    +0.000 C 
ATOM     17  C   UNL     1      -2.119  -1.211  -0.603  0.00  0.00    +0.000 C 
ATOM     18  C   UNL     1      -1.403   0.113  -0.512  0.00  0.00    +0.000 C 
ENDBRANCH  13  18
ENDBRANCH   3  13
ENDBRANCH   1   5
BRANCH   1  19
ATOM     19  C   UNL     1       1.763   5.704  -0.086  0.00  0.00    +0.000 C 
BRANCH  19  20
ATOM     20  C   UNL     1       2.800   5.098  -1.077  0.00  0.00    +0.000 C 
ATOM     21  F   UNL     1       2.176   4.713  -2.229  0.00  0.00    +0.000 F 
ATOM     22  F   UNL     1       3.615   6.130  -1.470  0.00  0.00    +0.000 F 
BRANCH  20  23
ATOM     23  C   UNL     1       3.602   3.975  -0.461  0.00  0.00    +0.000 A 
ATOM     24  C   UNL     1       3.167   2.647  -0.526  0.00  0.00    +0.000 A 
ATOM     25  C   UNL     1       3.927   1.660   0.082  0.00  0.00    +0.000 A 
ATOM     26  N   UNL     1       5.084   1.896   0.738  0.00  0.00    +0.000 NA
ATOM     27  C   UNL     1       5.495   3.194   0.783  0.00  0.00    +0.000 A 
ATOM     28  C   UNL     1       4.800   4.249   0.207  0.00  0.00    +0.000 A 
BRANCH  27  29
ATOM     29  C   UNL     1       6.773   3.464   1.510  0.00  0.00    +0.000 C 
ATOM     30  N   UNL     1       7.397   2.362   2.026  0.00  0.00    +0.000 N 
ATOM     31  O   UNL     1       7.239   4.591   1.635  0.00  0.00    +0.000 OA
ATOM     32  H   UNL     1       6.980   1.448   1.893  0.00  0.00    +0.000 HD
ATOM     33  H   UNL     1       8.272   2.466   2.518  0.00  0.00    +0.000 HD
ENDBRANCH  27  29
ENDBRANCH  20  23
ENDBRANCH  19  20
ENDBRANCH   1  19
TORSDOF 8
