REMARK  Name = 
REMARK  5 active torsions:
REMARK  status: ('A' for Active; 'I' for Inactive)
REMARK    1  A    between atoms: C_2  and  C_4
REMARK    2  A    between atoms: N_8  and  C_9
REMARK    3  A    between atoms: C_9  and  C_10
REMARK    4  A    between atoms: C_10  and  C_11
REMARK    5  A    between atoms: C_15  and  C_16
REMARK                            x       y       z     vdW  Elec       q    Type
REMARK                         _______ _______ _______ _____ _____    ______ ____
ROOT
ATOM      1  C   UNL     1       5.039  -3.429  -4.874  0.00  0.00    +0.000 C 
ENDROOT
BRANCH   1   6
ATOM      2  C   UNL     1       3.153  -0.854  -0.921  0.00  0.00    +0.000 A 
ATOM      3  C   UNL     1       2.511  -1.355  -2.046  0.00  0.00    +0.000 A 
ATOM      4  C   UNL     1       3.220  -2.177  -2.923  0.00  0.00    +0.000 A 
ATOM      5  C   UNL     1       4.558  -2.476  -2.670  0.00  0.00    +0.000 A 
ATOM      6  N   UNL     1       5.283  -3.380  -3.439  0.00  0.00    +0.000 N 
ATOM      7  N   UNL     1       5.205  -1.960  -1.605  0.00  0.00    +0.000 NA
ATOM      8  C   UNL     1       4.498  -1.154  -0.760  0.00  0.00    +0.000 A 
ATOM      9  H   UNL     1       6.253  -3.323  -3.140  0.00  0.00    +0.000 HD
BRANCH   2  11
ATOM     10  N   UNL     1       1.116  -0.268   0.255  0.00  0.00    +0.000 N 
ATOM     11  C   UNL     1       2.456  -0.039   0.095  0.00  0.00    +0.000 C 
ATOM     12  O   UNL     1       3.053   0.765   0.790  0.00  0.00    +0.000 OA
ATOM     13  H   UNL     1       0.668   0.206   1.031  0.00  0.00    +0.000 HD
ATOM     14  H   UNL     1       0.658  -1.093  -0.109  0.00  0.00    +0.000 HD
ENDBRANCH   2  11
ENDBRANCH   1   6
BRANCH   1  15
ATOM     15  C   UNL     1       5.988  -4.413  -5.572  0.00  0.00    +0.000 C 
BRANCH  15  16
ATOM     16  C   UNL     1       5.637  -4.533  -7.039  0.00  0.00    +0.000 A 
ATOM     17  C   UNL     1       4.721  -5.497  -7.472  0.00  0.00    +0.000 A 
ATOM     18  C   UNL     1       4.327  -5.541  -8.806  0.00  0.00    +0.000 A 
ATOM     19  C   UNL     1       4.834  -4.613  -9.719  0.00  0.00    +0.000 A 
ATOM     20  C   UNL     1       5.747  -3.620  -9.323  0.00  0.00    +0.000 A 
ATOM     21  C   UNL     1       6.151  -3.614  -7.972  0.00  0.00    +0.000 A 
BRANCH  20  22
ATOM     22  C   UNL     1       6.233  -2.595 -10.272  0.00  0.00    +0.000 A 
ATOM     23  C   UNL     1       5.414  -2.064 -11.276  0.00  0.00    +0.000 A 
ATOM     24  N   UNL     1       5.781  -1.106 -12.164  0.00  0.00    +0.000 NA
ATOM     25  C   UNL     1       7.042  -0.632 -12.050  0.00  0.00    +0.000 A 
ATOM     26  C   UNL     1       7.941  -1.079 -11.098  0.00  0.00    +0.000 A 
ATOM     27 CL   UNL     1       9.525  -0.424 -11.004  0.00  0.00    +0.000 Cl
ATOM     28  C   UNL     1       7.534  -2.070 -10.207  0.00  0.00    +0.000 A 
ENDBRANCH  20  22
ENDBRANCH  15  16
ENDBRANCH   1  15
TORSDOF 5
