REMARK  Name = 
REMARK  5 active torsions:
REMARK  status: ('A' for Active; 'I' for Inactive)
REMARK    1  A    between atoms: C_2  and  C_3
REMARK    2  A    between atoms: C_6  and  C_7
REMARK    3  A    between atoms: C_11  and  C_12
REMARK    4  A    between atoms: C_12  and  N_13
REMARK    5  A    between atoms: C_17  and  C_18
REMARK                            x       y       z     vdW  Elec       q    Type
REMARK                         _______ _______ _______ _____ _____    ______ ____
ROOT
ATOM      1  C   UNL     1       6.507   1.726   2.067  0.00  0.00    +0.000 C 
ATOM      2  C   UNL     1       7.481   1.089   3.039  0.00  0.00    +0.000 C 
ATOM      3  C   UNL     1       6.131   1.493   3.527  0.00  0.00    +0.000 C 
ENDROOT
BRANCH   1   4
ATOM      4  N   UNL     1       6.626   3.136   1.640  0.00  0.00    +0.000 N 
ATOM      5  C   UNL     1       7.784   3.569   0.961  0.00  0.00    +0.000 A 
ATOM      6  C   UNL     1       7.810   4.868   0.458  0.00  0.00    +0.000 A 
ATOM      7  C   UNL     1       8.931   5.318  -0.237  0.00  0.00    +0.000 A 
ATOM      8  C   UNL     1       9.981   4.434  -0.406  0.00  0.00    +0.000 A 
ATOM      9  N   UNL     1       9.945   3.171   0.073  0.00  0.00    +0.000 NA
ATOM     10  N   UNL     1       8.831   2.741   0.747  0.00  0.00    +0.000 NA
ATOM     11  H   UNL     1       6.322   3.831   2.311  0.00  0.00    +0.000 HD
BRANCH   8  12
ATOM     12  C   UNL     1      11.218   4.832  -1.130  0.00  0.00    +0.000 C 
ATOM     13  N   UNL     1      12.195   3.875  -1.211  0.00  0.00    +0.000 N 
ATOM     14  O   UNL     1      11.360   5.944  -1.624  0.00  0.00    +0.000 OA
ATOM     15  H   UNL     1      12.058   2.959  -0.799  0.00  0.00    +0.000 HD
ATOM     16  H   UNL     1      13.054   4.084  -1.700  0.00  0.00    +0.000 HD
ENDBRANCH   8  12
ENDBRANCH   1   4
BRANCH   1  21
ATOM     17  C   UNL     1       3.771  -0.016  -0.021  0.00  0.00    +0.000 A 
ATOM     18  C   UNL     1       4.559  -0.719  -0.945  0.00  0.00    +0.000 A 
ATOM     19  C   UNL     1       5.953  -0.643  -0.911  0.00  0.00    +0.000 A 
ATOM     20  C   UNL     1       6.587   0.131   0.061  0.00  0.00    +0.000 A 
ATOM     21  C   UNL     1       5.848   0.844   1.015  0.00  0.00    +0.000 A 
ATOM     22  C   UNL     1       4.447   0.758   0.941  0.00  0.00    +0.000 A 
BRANCH  17  26
ATOM     23  C   UNL     1      -0.539  -0.055  -0.111  0.00  0.00    +0.000 A 
ATOM     24  C   UNL     1       0.135   0.044   1.105  0.00  0.00    +0.000 A 
ATOM     25  C   UNL     1       1.532   0.036   1.130  0.00  0.00    +0.000 A 
ATOM     26  C   UNL     1       2.292  -0.053  -0.053  0.00  0.00    +0.000 A 
ATOM     27  C   UNL     1       1.588  -0.149  -1.266  0.00  0.00    +0.000 A 
ATOM     28  C   UNL     1       0.189  -0.157  -1.297  0.00  0.00    +0.000 A 
BRANCH  23  30
ATOM     29  N   UNL     1      -3.130  -0.043  -0.172  0.00  0.00    +0.000 NA
ATOM     30  C   UNL     1      -1.971  -0.050  -0.142  0.00  0.00    +0.000 C 
ENDBRANCH  23  30
ENDBRANCH  17  26
ENDBRANCH   1  21
TORSDOF 5
