REMARK  Name = 
REMARK  6 active torsions:
REMARK  status: ('A' for Active; 'I' for Inactive)
REMARK    1  A    between atoms: C_1  and  C_2
REMARK    2  A    between atoms: C_2  and  N_3
REMARK    3  A    between atoms: C_2  and  C_17
REMARK    4  A    between atoms: N_3  and  C_4
REMARK    5  A    between atoms: C_7  and  C_8
REMARK    6  A    between atoms: C_8  and  N_9
REMARK                            x       y       z     vdW  Elec       q    Type
REMARK                         _______ _______ _______ _____ _____    ______ ____
ROOT
ATOM      1  N   UNL     1       1.108  -0.157  -0.270  0.00  0.00    +0.000 N 
ATOM      2  H   UNL     1       1.502  -0.932  -0.795  0.00  0.00    +0.000 HD
ENDROOT
BRANCH   1   3
ATOM      3  C   UNL     1       0.360   0.688  -1.082  0.00  0.00    +0.000 A 
ATOM      4  C   UNL     1       1.041   1.400  -2.080  0.00  0.00    +0.000 A 
ATOM      5  C   UNL     1       0.384   2.314  -2.915  0.00  0.00    +0.000 A 
ATOM      6  C   UNL     1      -0.992   2.528  -2.791  0.00  0.00    +0.000 A 
ATOM      7  C   UNL     1      -1.695   1.759  -1.854  0.00  0.00    +0.000 A 
ATOM      8  C   UNL     1      -1.024   0.859  -1.007  0.00  0.00    +0.000 A 
BRANCH   6   9
ATOM      9  C   UNL     1      -1.694   3.566  -3.639  0.00  0.00    +0.000 C 
BRANCH   9  10
ATOM     10  N   UNL     1      -2.128   2.994  -4.893  0.00  0.00    +0.000 N 
ATOM     11  C   UNL     1      -2.774   3.684  -5.856  0.00  0.00    +0.000 C 
ATOM     12  N   UNL     1      -3.648   3.148  -6.656  0.00  0.00    +0.000 NA
ATOM     13  C   UNL     1      -4.019   4.245  -7.589  0.00  0.00    +0.000 C 
ATOM     14  C   UNL     1      -3.225   5.483  -7.163  0.00  0.00    +0.000 C 
ATOM     15  N   UNL     1      -2.486   5.002  -6.011  0.00  0.00    +0.000 N 
ATOM     16  H   UNL     1      -2.527   2.066  -4.792  0.00  0.00    +0.000 HD
ATOM     17  H   UNL     1      -1.491   5.188  -6.039  0.00  0.00    +0.000 HD
ENDBRANCH   9  10
ENDBRANCH   6   9
ENDBRANCH   1   3
BRANCH   1  19
ATOM     18  C   UNL     1       0.454   0.748   1.924  0.00  0.00    +0.000 C 
ATOM     19  C   UNL     1       0.784  -0.525   1.126  0.00  0.00    +0.000 C 
BRANCH  19  20
ATOM     20  C   UNL     1      -0.213  -1.661   1.334  0.00  0.00    +0.000 A 
ATOM     21  C   UNL     1      -0.770  -2.409   0.307  0.00  0.00    +0.000 A 
ATOM     22  S   UNL     1      -1.955  -3.520   0.833  0.00  0.00    +0.000 S 
ATOM     23  C   UNL     1      -1.737  -3.071   2.456  0.00  0.00    +0.000 A 
ATOM     24  N   UNL     1      -2.506  -3.598   3.448  0.00  0.00    +0.000 NA
ATOM     25  C   UNL     1      -2.234  -3.149   4.628  0.00  0.00    +0.000 A 
ATOM     26  N   UNL     1      -1.237  -2.257   4.916  0.00  0.00    +0.000 N 
ATOM     27  C   UNL     1      -0.342  -1.813   3.968  0.00  0.00    +0.000 A 
ATOM     28  O   UNL     1       0.695  -1.242   4.283  0.00  0.00    +0.000 OA
ATOM     29  C   UNL     1      -0.715  -2.151   2.600  0.00  0.00    +0.000 A 
ATOM     30  H   UNL     1      -1.018  -2.019   5.871  0.00  0.00    +0.000 HD
ENDBRANCH  19  20
ENDBRANCH   1  19
TORSDOF 5
