REMARK  Name = 
REMARK  9 active torsions:
REMARK  status: ('A' for Active; 'I' for Inactive)
REMARK    1  A    between atoms: C_1  and  O_2
REMARK    2  A    between atoms: O_2  and  C_3
REMARK    3  A    between atoms: C_10  and  C_11
REMARK    4  A    between atoms: N_13  and  C_14
REMARK    5  A    between atoms: C_14  and  C_15
REMARK    6  A    between atoms: C_18  and  C_19
REMARK    7  A    between atoms: C_19  and  N_20
REMARK    8  A    between atoms: N_20  and  C_21
REMARK    9  A    between atoms: C_21  and  C_22
REMARK                            x       y       z     vdW  Elec       q    Type
REMARK                         _______ _______ _______ _____ _____    ______ ____
ROOT
ATOM      1  C   UNL     1       1.781   1.073  -3.013  0.00  0.00    +0.000 A 
ATOM      2  C   UNL     1       1.979  -0.311  -3.111  0.00  0.00    +0.000 A 
ATOM      3  C   UNL     1       0.912  -1.164  -3.422  0.00  0.00    +0.000 A 
ATOM      4  C   UNL     1      -0.375  -0.654  -3.649  0.00  0.00    +0.000 A 
ATOM      5  C   UNL     1      -0.562   0.733  -3.584  0.00  0.00    +0.000 A 
ATOM      6  C   UNL     1       0.504   1.587  -3.276  0.00  0.00    +0.000 A 
ENDROOT
BRANCH   1   7
ATOM      7  C   UNL     1       2.930   1.996  -2.686  0.00  0.00    +0.000 C 
BRANCH   7  10
ATOM      8  C   UNL     1       4.726   3.205  -3.872  0.00  0.00    +0.000 C 
ATOM      9  O   UNL     1       5.204   3.618  -2.816  0.00  0.00    +0.000 OA
ATOM     10  N   UNL     1       3.614   2.411  -3.883  0.00  0.00    +0.000 N 
ATOM     11  H   UNL     1       3.200   2.139  -4.763  0.00  0.00    +0.000 HD
BRANCH   8  19
ATOM     12  C   UNL     1       4.002   2.291  -7.111  0.00  0.00    +0.000 A 
ATOM     13  N   UNL     1       3.951   2.085  -8.439  0.00  0.00    +0.000 NA
ATOM     14  C   UNL     1       4.873   2.675  -9.202  0.00  0.00    +0.000 A 
ATOM     15  N   UNL     1       5.860   3.471  -8.793  0.00  0.00    +0.000 NA
ATOM     16  C   UNL     1       5.870   3.658  -7.462  0.00  0.00    +0.000 A 
ATOM     17  S   UNL     1       7.055   4.650  -6.762  0.00  0.00    +0.000 S 
ATOM     18  C   UNL     1       6.437   4.378  -5.203  0.00  0.00    +0.000 A 
ATOM     19  C   UNL     1       5.330   3.537  -5.178  0.00  0.00    +0.000 A 
ATOM     20  C   UNL     1       4.988   3.115  -6.534  0.00  0.00    +0.000 A 
BRANCH  12  22
ATOM     21  C   UNL     1       2.458   0.545  -6.925  0.00  0.00    +0.000 C 
ATOM     22  O   UNL     1       3.023   1.712  -6.333  0.00  0.00    +0.000 OA
ENDBRANCH  12  22
ENDBRANCH   8  19
ENDBRANCH   7  10
ENDBRANCH   1   7
BRANCH   4  23
ATOM     23  C   UNL     1      -1.532  -1.580  -3.965  0.00  0.00    +0.000 C 
BRANCH  23  24
ATOM     24  N   UNL     1      -1.752  -2.534  -2.880  0.00  0.00    +0.000 NA
ATOM     25  H   UNL     1      -1.928  -2.020  -2.017  0.00  0.00    +0.000 HD
BRANCH  24  26
ATOM     26  C   UNL     1      -2.885  -3.419  -3.144  0.00  0.00    +0.000 C 
BRANCH  26  27
ATOM     27  C   UNL     1      -3.067  -4.410  -2.013  0.00  0.00    +0.000 A 
ATOM     28  C   UNL     1      -4.268  -4.476  -1.292  0.00  0.00    +0.000 A 
ATOM     29  C   UNL     1      -4.428  -5.410  -0.262  0.00  0.00    +0.000 A 
ATOM     30  C   UNL     1      -3.387  -6.281   0.053  0.00  0.00    +0.000 A 
ATOM     31 CL   UNL     1      -3.589  -7.436   1.313  0.00  0.00    +0.000 Cl
ATOM     32  C   UNL     1      -2.187  -6.226  -0.648  0.00  0.00    +0.000 A 
ATOM     33  C   UNL     1      -2.029  -5.295  -1.679  0.00  0.00    +0.000 A 
ENDBRANCH  26  27
ENDBRANCH  24  26
ENDBRANCH  23  24
ENDBRANCH   4  23
TORSDOF 8
