REMARK  Name = 
REMARK  7 active torsions:
REMARK  status: ('A' for Active; 'I' for Inactive)
REMARK    1  A    between atoms: C_2  and  C_4
REMARK    2  A    between atoms: C_7  and  N_8
REMARK    3  A    between atoms: N_8  and  C_9
REMARK    4  A    between atoms: C_9  and  C_10
REMARK    5  A    between atoms: C_10  and  C_13
REMARK    6  A    between atoms: C_15  and  O_16
REMARK    7  A    between atoms: O_16  and  C_17
REMARK                            x       y       z     vdW  Elec       q    Type
REMARK                         _______ _______ _______ _____ _____    ______ ____
ROOT
ATOM      1  C   UNL     1       5.964   1.144  -7.230  0.00  0.00    +0.000 C 
ATOM      2  F   UNL     1       7.250   1.380  -6.824  0.00  0.00    +0.000 F 
ATOM      3  F   UNL     1       5.958  -0.169  -7.629  0.00  0.00    +0.000 F 
ENDROOT
BRANCH   1   4
ATOM      4  C   UNL     1       5.564   2.083  -8.367  0.00  0.00    +0.000 A 
ATOM      5  C   UNL     1       6.337   2.107  -9.533  0.00  0.00    +0.000 A 
ATOM      6  C   UNL     1       5.995   3.010 -10.536  0.00  0.00    +0.000 A 
ATOM      7  C   UNL     1       4.884   3.828 -10.375  0.00  0.00    +0.000 A 
ATOM      8  C   UNL     1       4.164   3.736  -9.202  0.00  0.00    +0.000 A 
ATOM      9  N   UNL     1       4.481   2.889  -8.200  0.00  0.00    +0.000 NA
BRANCH   6  10
ATOM     10  O   UNL     1       6.661   3.157 -11.726  0.00  0.00    +0.000 OA
BRANCH  10  11
ATOM     11  C   UNL     1       8.068   2.830 -11.786  0.00  0.00    +0.000 C 
ATOM     12  C   UNL     1       9.059   3.708 -10.993  0.00  0.00    +0.000 C 
ATOM     13  N   UNL     1       9.945   3.772 -12.172  0.00  0.00    +0.000 NA
ATOM     14  C   UNL     1       8.814   3.370 -13.031  0.00  0.00    +0.000 C 
ATOM     15  H   UNL     1      10.707   3.094 -12.154  0.00  0.00    +0.000 HD
ENDBRANCH  10  11
ENDBRANCH   6  10
ENDBRANCH   1   4
BRANCH   1  16
ATOM     16  C   UNL     1       5.019   1.278  -6.008  0.00  0.00    +0.000 C 
BRANCH  16  17
ATOM     17  N   UNL     1       5.376   0.382  -4.889  0.00  0.00    +0.000 N 
ATOM     18  H   UNL     1       5.723  -0.532  -5.176  0.00  0.00    +0.000 HD
BRANCH  17  22
ATOM     19  C   UNL     1       3.318   0.369  -1.207  0.00  0.00    +0.000 A 
ATOM     20  C   UNL     1       2.877   1.205  -2.235  0.00  0.00    +0.000 A 
ATOM     21  C   UNL     1       3.537   1.205  -3.471  0.00  0.00    +0.000 A 
ATOM     22  C   UNL     1       4.623   0.356  -3.718  0.00  0.00    +0.000 A 
ATOM     23  C   UNL     1       5.059  -0.465  -2.669  0.00  0.00    +0.000 A 
ATOM     24  C   UNL     1       4.421  -0.459  -1.423  0.00  0.00    +0.000 A 
BRANCH  19  26
ATOM     25  N   UNL     1       1.347   0.695   0.185  0.00  0.00    +0.000 N 
ATOM     26  C   UNL     1       2.674   0.369   0.131  0.00  0.00    +0.000 C 
ATOM     27  O   UNL     1       3.288   0.056   1.142  0.00  0.00    +0.000 OA
ATOM     28  H   UNL     1       0.897   0.581   1.085  0.00  0.00    +0.000 HD
ATOM     29  H   UNL     1       0.761   0.708  -0.636  0.00  0.00    +0.000 HD
ENDBRANCH  19  26
ENDBRANCH  17  22
ENDBRANCH  16  17
ENDBRANCH   1  16
TORSDOF 7
