REMARK  Name = 
REMARK  11 active torsions:
REMARK  status: ('A' for Active; 'I' for Inactive)
REMARK    1  A    between atoms: C_1  and  C_2
REMARK    2  A    between atoms: C_2  and  C_3
REMARK    3  A    between atoms: C_2  and  C_4
REMARK    4  A    between atoms: C_2  and  C_5
REMARK    5  A    between atoms: N_7  and  C_8
REMARK    6  A    between atoms: C_8  and  C_9
REMARK    7  A    between atoms: C_12  and  C_13
REMARK    8  A    between atoms: C_13  and  C_14
REMARK    9  A    between atoms: C_14  and  C_15
REMARK   10  A    between atoms: C_15  and  O_17
REMARK   11  A    between atoms: C_23  and  C_24
REMARK                            x       y       z     vdW  Elec       q    Type
REMARK                         _______ _______ _______ _____ _____    ______ ____
ROOT
ATOM      1  C   UNL     1       3.053   0.013   1.312  0.00  0.00    +0.000 A 
ATOM      2  C   UNL     1       3.393  -1.037   2.151  0.00  0.00    +0.000 A 
ATOM      3  N   UNL     1       3.810  -0.542   3.363  0.00  0.00    +0.000 N 
ATOM      4  C   UNL     1       3.831   0.838   3.311  0.00  0.00    +0.000 A 
ATOM      5  C   UNL     1       4.272   1.807   4.237  0.00  0.00    +0.000 A 
ATOM      6  C   UNL     1       4.060   3.163   3.945  0.00  0.00    +0.000 A 
ATOM      7  C   UNL     1       3.427   3.558   2.769  0.00  0.00    +0.000 A 
ATOM      8  C   UNL     1       3.015   2.587   1.850  0.00  0.00    +0.000 A 
ATOM      9  C   UNL     1       3.256   1.211   2.087  0.00  0.00    +0.000 A 
ENDROOT
BRANCH   7  10
ATOM     10  C   UNL     1       3.186   5.009   2.524  0.00  0.00    +0.000 C 
ATOM     11  N   UNL     1       3.105   5.432   1.225  0.00  0.00    +0.000 N 
ATOM     12  O   UNL     1       3.101   5.810   3.447  0.00  0.00    +0.000 OA
ATOM     13  H   UNL     1       3.383   4.860   0.441  0.00  0.00    +0.000 HD
ATOM     14  H   UNL     1       3.051   6.430   1.084  0.00  0.00    +0.000 HD
ENDBRANCH   7  10
BRANCH   1  16
ATOM     15  C   UNL     1       0.999  -0.211  -0.102  0.00  0.00    +0.000 C 
ATOM     16  C   UNL     1       2.536  -0.121  -0.124  0.00  0.00    +0.000 C 
ATOM     17  C   UNL     1       3.099  -1.394  -0.802  0.00  0.00    +0.000 C 
ATOM     18  C   UNL     1       2.958   1.055  -1.030  0.00  0.00    +0.000 C 
ENDBRANCH   1  16
BRANCH   3  19
ATOM     19  C   UNL     1       4.177  -1.403   4.491  0.00  0.00    +0.000 C 
BRANCH  19  20
ATOM     20  C   UNL     1       2.995  -1.696   5.382  0.00  0.00    +0.000 A 
ATOM     21  C   UNL     1       2.149  -2.780   5.153  0.00  0.00    +0.000 A 
ATOM     22  N   UNL     1       0.994  -2.992   5.846  0.00  0.00    +0.000 NA
ATOM     23  C   UNL     1       0.683  -2.042   6.765  0.00  0.00    +0.000 A 
ATOM     24  C   UNL     1       1.572  -1.015   7.060  0.00  0.00    +0.000 A 
ATOM     25  N   UNL     1       2.737  -0.830   6.393  0.00  0.00    +0.000 NA
BRANCH  23  26
ATOM     26  C   UNL     1      -0.710  -2.042   7.343  0.00  0.00    +0.000 C 
BRANCH  26  27
ATOM     27  C   UNL     1      -1.129  -3.351   7.993  0.00  0.00    +0.000 C 
BRANCH  27  28
ATOM     28  C   UNL     1      -0.268  -3.656   9.190  0.00  0.00    +0.000 C 
ATOM     29  O   UNL     1      -0.487  -3.234  10.310  0.00  0.00    +0.000 OA
BRANCH  28  30
ATOM     30  O   UNL     1       0.811  -4.414   8.885  0.00  0.00    +0.000 OA
ATOM     31  H   UNL     1       0.892  -4.600   7.927  0.00  0.00    +0.000 HD
ENDBRANCH  28  30
ENDBRANCH  27  28
ENDBRANCH  26  27
ENDBRANCH  23  26
ENDBRANCH  19  20
ENDBRANCH   3  19
TORSDOF 8
