REMARK  Name = 
REMARK  7 active torsions:
REMARK  status: ('A' for Active; 'I' for Inactive)
REMARK    1  A    between atoms: C_2  and  C_3
REMARK    2  A    between atoms: C_5  and  C_6
REMARK    3  A    between atoms: C_11  and  N_12
REMARK    4  A    between atoms: N_12  and  C_13
REMARK    5  A    between atoms: C_13  and  C_14
REMARK    6  A    between atoms: C_17  and  O_18
REMARK    7  A    between atoms: O_18  and  C_19
REMARK                            x       y       z     vdW  Elec       q    Type
REMARK                         _______ _______ _______ _____ _____    ______ ____
ROOT
ATOM      1  N   UNL     1       0.489  -2.042   0.260  0.00  0.00    +0.000 N 
ATOM      2  H   UNL     1      -0.042  -2.351   1.074  0.00  0.00    +0.000 HD
ENDROOT
BRANCH   1   8
ATOM      3  C   UNL     1      -0.157  -0.970  -1.909  0.00  0.00    +0.000 A 
ATOM      4  C   UNL     1      -1.204  -0.334  -2.602  0.00  0.00    +0.000 A 
ATOM      5  C   UNL     1      -2.428  -0.096  -1.986  0.00  0.00    +0.000 A 
ATOM      6  C   UNL     1      -2.572  -0.556  -0.694  0.00  0.00    +0.000 A 
ATOM      7  N   UNL     1      -1.597  -1.218  -0.022  0.00  0.00    +0.000 NA
ATOM      8  C   UNL     1      -0.385  -1.421  -0.613  0.00  0.00    +0.000 A 
BRANCH   5   9
ATOM      9  C   UNL     1      -3.459   0.653  -2.738  0.00  0.00    +0.000 C 
ATOM     10  N   UNL     1      -4.641   0.961  -2.135  0.00  0.00    +0.000 N 
ATOM     11  O   UNL     1      -3.248   1.011  -3.891  0.00  0.00    +0.000 OA
ATOM     12  H   UNL     1      -4.913   0.735  -1.190  0.00  0.00    +0.000 HD
ATOM     13  H   UNL     1      -5.293   1.505  -2.691  0.00  0.00    +0.000 HD
ENDBRANCH   5   9
BRANCH   3  15
ATOM     14  N   UNL     1       2.032  -1.084  -3.284  0.00  0.00    +0.000 NA
ATOM     15  C   UNL     1       1.074  -1.062  -2.621  0.00  0.00    +0.000 C 
ENDBRANCH   3  15
ENDBRANCH   1   8
BRANCH   1  16
ATOM     16  C   UNL     1       1.838  -2.568   0.091  0.00  0.00    +0.000 C 
ATOM     17  C   UNL     1       2.819  -2.099   1.165  0.00  0.00    +0.000 C 
ATOM     18  C   UNL     1       3.039  -1.712  -0.255  0.00  0.00    +0.000 C 
BRANCH  16  19
ATOM     19  C   UNL     1       1.895  -4.022  -0.349  0.00  0.00    +0.000 A 
ATOM     20  C   UNL     1       1.937  -4.345  -1.713  0.00  0.00    +0.000 A 
ATOM     21  C   UNL     1       2.070  -5.655  -2.165  0.00  0.00    +0.000 A 
ATOM     22  C   UNL     1       2.219  -6.687  -1.251  0.00  0.00    +0.000 A 
ATOM     23  C   UNL     1       2.111  -6.406   0.112  0.00  0.00    +0.000 A 
ATOM     24  C   UNL     1       1.946  -5.090   0.558  0.00  0.00    +0.000 A 
BRANCH  22  25
ATOM     25  O   UNL     1       2.434  -7.991  -1.565  0.00  0.00    +0.000 OA
BRANCH  25  26
ATOM     26  C   UNL     1       3.160  -8.306  -2.749  0.00  0.00    +0.000 C 
ATOM     27  F   UNL     1       3.692  -7.245  -3.390  0.00  0.00    +0.000 F 
ATOM     28  F   UNL     1       4.179  -9.131  -2.418  0.00  0.00    +0.000 F 
ATOM     29  F   UNL     1       2.347  -8.964  -3.603  0.00  0.00    +0.000 F 
ENDBRANCH  25  26
ENDBRANCH  22  25
ENDBRANCH  16  19
ENDBRANCH   1  16
TORSDOF 7
