REMARK  Name = 
REMARK  7 active torsions:
REMARK  status: ('A' for Active; 'I' for Inactive)
REMARK    1  A    between atoms: C_2  and  C_3
REMARK    2  A    between atoms: C_7  and  C_8
REMARK    3  A    between atoms: N_10  and  C_11
REMARK    4  A    between atoms: C_11  and  C_12
REMARK    5  A    between atoms: C_15  and  C_16
REMARK    6  A    between atoms: C_16  and  N_17
REMARK    7  A    between atoms: C_18  and  C_20
REMARK                            x       y       z     vdW  Elec       q    Type
REMARK                         _______ _______ _______ _____ _____    ______ ____
ROOT
ATOM      1  C   UNL     1       4.899   6.083  -1.386  0.00  0.00    +0.000 A 
ATOM      2  C   UNL     1       4.308   5.876  -0.132  0.00  0.00    +0.000 A 
ATOM      3  C   UNL     1       3.946   6.960   0.677  0.00  0.00    +0.000 A 
ATOM      4  C   UNL     1       4.154   8.276   0.242  0.00  0.00    +0.000 A 
ATOM      5  C   UNL     1       4.743   8.482  -1.013  0.00  0.00    +0.000 A 
ATOM      6  C   UNL     1       5.102   7.398  -1.822  0.00  0.00    +0.000 A 
ENDROOT
BRANCH   1   7
ATOM      7  C   UNL     1       5.339   4.919  -2.236  0.00  0.00    +0.000 C 
BRANCH   7  10
ATOM      8  C   UNL     1       4.590   3.406  -3.984  0.00  0.00    +0.000 C 
ATOM      9  O   UNL     1       5.678   2.837  -4.022  0.00  0.00    +0.000 OA
ATOM     10  N   UNL     1       4.327   4.488  -3.179  0.00  0.00    +0.000 N 
ATOM     11  H   UNL     1       3.365   4.756  -3.017  0.00  0.00    +0.000 HD
BRANCH   8  16
ATOM     12  C   UNL     1       1.469   3.476  -6.174  0.00  0.00    +0.000 C 
ATOM     13  C   UNL     1       1.420   2.072  -6.577  0.00  0.00    +0.000 C 
ATOM     14  C   UNL     1       2.389   1.224  -6.185  0.00  0.00    +0.000 C 
ATOM     15  C   UNL     1       3.463   1.691  -5.325  0.00  0.00    +0.000 C 
ATOM     16  C   UNL     1       3.417   2.943  -4.823  0.00  0.00    +0.000 C 
ATOM     17  N   UNL     1       2.366   3.818  -5.144  0.00  0.00    +0.000 N 
ATOM     18  H   UNL     1       2.674   4.791  -5.163  0.00  0.00    +0.000 HD
BRANCH  12  20
ATOM     19  N   UNL     1       1.491   5.294  -8.278  0.00  0.00    +0.000 NA
ATOM     20  C   UNL     1       1.481   4.469  -7.324  0.00  0.00    +0.000 C 
ENDBRANCH  12  20
ENDBRANCH   8  16
ENDBRANCH   7  10
ENDBRANCH   1   7
BRANCH   4  21
ATOM     21  C   UNL     1       3.802   9.452   1.119  0.00  0.00    +0.000 C 
BRANCH  21  22
ATOM     22  N   UNL     1       4.914   9.839   1.951  0.00  0.00    +0.000 N 
ATOM     23  C   UNL     1       4.786  10.829   2.894  0.00  0.00    +0.000 C 
ATOM     24  O   UNL     1       3.711  11.386   3.105  0.00  0.00    +0.000 OA
ATOM     25  H   UNL     1       5.841   9.559   1.645  0.00  0.00    +0.000 HD
BRANCH  23  26
ATOM     26  C   UNL     1       5.982  11.151   3.684  0.00  0.00    +0.000 A 
ATOM     27  C   UNL     1       5.841  11.755   4.927  0.00  0.00    +0.000 A 
ATOM     28  S   UNL     1       7.321  12.022   5.732  0.00  0.00    +0.000 S 
ATOM     29  C   UNL     1       8.207  11.386   4.427  0.00  0.00    +0.000 A 
ATOM     30  N   UNL     1       9.567  11.346   4.459  0.00  0.00    +0.000 NA
ATOM     31  C   UNL     1      10.112  10.872   3.389  0.00  0.00    +0.000 A 
ATOM     32  N   UNL     1       9.420  10.427   2.292  0.00  0.00    +0.000 N 
ATOM     33  C   UNL     1       8.045  10.416   2.227  0.00  0.00    +0.000 A 
ATOM     34  O   UNL     1       7.457   9.968   1.249  0.00  0.00    +0.000 OA
ATOM     35  C   UNL     1       7.384  10.956   3.399  0.00  0.00    +0.000 A 
ATOM     36  H   UNL     1       9.908  10.058   1.489  0.00  0.00    +0.000 HD
ENDBRANCH  23  26
ENDBRANCH  21  22
ENDBRANCH   4  21
TORSDOF 7
