REMARK  Name = 
REMARK  4 active torsions:
REMARK  status: ('A' for Active; 'I' for Inactive)
REMARK    1  A    between atoms: C_2  and  C_3
REMARK    2  A    between atoms: N_7  and  C_8
REMARK    3  A    between atoms: C_8  and  C_9
REMARK    4  A    between atoms: C_11  and  C_12
REMARK                            x       y       z     vdW  Elec       q    Type
REMARK                         _______ _______ _______ _____ _____    ______ ____
ROOT
ATOM      1  C   UNL     1      -4.347   1.190  -0.111  0.00  0.00    +0.000 C 
ATOM      2  C   UNL     1      -4.639   2.320  -1.084  0.00  0.00    +0.000 C 
ATOM      3  C   UNL     1      -4.476   2.615   0.374  0.00  0.00    +0.000 C 
ENDROOT
BRANCH   1   8
ATOM      4  C   UNL     1      -0.370  -1.262   2.249  0.00  0.00    +0.000 A 
ATOM      5  C   UNL     1      -1.307  -0.386   2.800  0.00  0.00    +0.000 A 
ATOM      6  C   UNL     1      -2.275   0.204   1.969  0.00  0.00    +0.000 A 
ATOM      7  C   UNL     1      -2.258  -0.092   0.615  0.00  0.00    +0.000 A 
ATOM      8  N   UNL     1      -3.031   0.561  -0.342  0.00  0.00    +0.000 N 
ATOM      9  N   UNL     1      -1.389  -0.982   0.084  0.00  0.00    +0.000 NA
ATOM     10  C   UNL     1      -0.466  -1.538   0.901  0.00  0.00    +0.000 A 
ATOM     11  H   UNL     1      -2.919   0.022  -1.196  0.00  0.00    +0.000 HD
BRANCH   4  13
ATOM     12  N   UNL     1       1.563  -2.273   3.639  0.00  0.00    +0.000 NA
ATOM     13  C   UNL     1       0.684  -1.824   3.024  0.00  0.00    +0.000 C 
ENDBRANCH   4  13
ENDBRANCH   1   8
BRANCH   1  14
ATOM     14  C   UNL     1      -5.433   0.180   0.262  0.00  0.00    +0.000 A 
ATOM     15  C   UNL     1      -5.745  -0.815  -0.668  0.00  0.00    +0.000 A 
ATOM     16  C   UNL     1      -6.199  -2.067  -0.240  0.00  0.00    +0.000 A 
ATOM     17  C   UNL     1      -6.519  -2.185   1.117  0.00  0.00    +0.000 A 
ATOM     18  C   UNL     1      -6.364  -1.089   1.950  0.00  0.00    +0.000 A 
ATOM     19  N   UNL     1      -5.815   0.077   1.559  0.00  0.00    +0.000 NA
BRANCH  16  20
ATOM     20  C   UNL     1      -6.193  -3.234  -1.157  0.00  0.00    +0.000 A 
ATOM     21  C   UNL     1      -5.277  -3.313  -2.228  0.00  0.00    +0.000 A 
ATOM     22  C   UNL     1      -5.217  -4.427  -3.067  0.00  0.00    +0.000 A 
ATOM     23  C   UNL     1      -6.062  -5.508  -2.844  0.00  0.00    +0.000 A 
ATOM     24  C   UNL     1      -6.968  -5.464  -1.790  0.00  0.00    +0.000 A 
ATOM     25  C   UNL     1      -7.042  -4.335  -0.958  0.00  0.00    +0.000 A 
ENDBRANCH  16  20
ENDBRANCH   1  14
TORSDOF 4
