REMARK  Name = 
REMARK  9 active torsions:
REMARK  status: ('A' for Active; 'I' for Inactive)
REMARK    1  A    between atoms: C_1  and  C_2
REMARK    2  A    between atoms: C_2  and  N_3
REMARK    3  A    between atoms: C_2  and  C_19
REMARK    4  A    between atoms: N_3  and  C_4
REMARK    5  A    between atoms: C_4  and  C_5
REMARK    6  A    between atoms: C_8  and  C_9
REMARK    7  A    between atoms: C_9  and  N_10
REMARK    8  A    between atoms: N_10  and  C_11
REMARK    9  A    between atoms: C_11  and  C_12
REMARK                            x       y       z     vdW  Elec       q    Type
REMARK                         _______ _______ _______ _____ _____    ______ ____
ROOT
ATOM      1  C   UNL     1       0.488  -0.483  -1.312  0.00  0.00    +0.000 C 
ENDROOT
BRANCH   1   2
ATOM      2  C   UNL     1      -1.010  -0.586  -1.293  0.00  0.00    +0.000 A 
ATOM      3  C   UNL     1      -1.675  -1.568  -0.549  0.00  0.00    +0.000 A 
ATOM      4  C   UNL     1      -3.068  -1.604  -0.531  0.00  0.00    +0.000 A 
ATOM      5  C   UNL     1      -3.771  -0.658  -1.270  0.00  0.00    +0.000 A 
ATOM      6  N   UNL     1      -3.139   0.312  -1.986  0.00  0.00    +0.000 NA
ATOM      7  C   UNL     1      -1.792   0.327  -1.983  0.00  0.00    +0.000 A 
BRANCH   5   8
ATOM      8  C   UNL     1      -5.293  -0.666  -1.280  0.00  0.00    +0.000 C 
BRANCH   8   9
ATOM      9  N   UNL     1      -5.815  -0.147  -2.541  0.00  0.00    +0.000 NA
ATOM     10  H   UNL     1      -5.386  -0.639  -3.319  0.00  0.00    +0.000 HD
BRANCH   9  11
ATOM     11  C   UNL     1      -7.260  -0.099  -2.631  0.00  0.00    +0.000 C 
BRANCH  11  12
ATOM     12  C   UNL     1      -7.650   0.518  -3.988  0.00  0.00    +0.000 C 
ATOM     13  C   UNL     1      -7.113   1.935  -4.180  0.00  0.00    +0.000 C 
ATOM     14  C   UNL     1      -8.173   2.783  -3.514  0.00  0.00    +0.000 C 
ATOM     15  N   UNL     1      -9.438   2.156  -3.923  0.00  0.00    +0.000 NA
ATOM     16  C   UNL     1      -9.163   0.718  -4.097  0.00  0.00    +0.000 C 
ATOM     17  H   UNL     1      -9.698   2.541  -4.832  0.00  0.00    +0.000 HD
ENDBRANCH  11  12
ENDBRANCH   9  11
ENDBRANCH   8   9
ENDBRANCH   5   8
ENDBRANCH   1   2
BRANCH   1  18
ATOM     18  N   UNL     1       1.098  -1.710  -1.818  0.00  0.00    +0.000 NA
ATOM     19  H   UNL     1       0.746  -1.886  -2.759  0.00  0.00    +0.000 HD
BRANCH  18  21
ATOM     20  C   UNL     1       3.190  -1.306  -0.518  0.00  0.00    +0.000 C 
ATOM     21  C   UNL     1       2.566  -1.648  -1.878  0.00  0.00    +0.000 C 
BRANCH  21  22
ATOM     22  C   UNL     1       3.035  -3.007  -2.364  0.00  0.00    +0.000 A 
ATOM     23  C   UNL     1       2.743  -4.199  -1.715  0.00  0.00    +0.000 A 
ATOM     24  S   UNL     1       3.418  -5.569  -2.471  0.00  0.00    +0.000 S 
ATOM     25  C   UNL     1       4.116  -4.621  -3.699  0.00  0.00    +0.000 A 
ATOM     26  N   UNL     1       4.848  -5.192  -4.693  0.00  0.00    +0.000 NA
ATOM     27  C   UNL     1       5.313  -4.355  -5.558  0.00  0.00    +0.000 A 
ATOM     28  N   UNL     1       5.114  -2.999  -5.520  0.00  0.00    +0.000 N 
ATOM     29  C   UNL     1       4.383  -2.371  -4.532  0.00  0.00    +0.000 A 
ATOM     30  O   UNL     1       4.227  -1.155  -4.530  0.00  0.00    +0.000 OA
ATOM     31  C   UNL     1       3.838  -3.275  -3.535  0.00  0.00    +0.000 A 
ATOM     32  H   UNL     1       5.505  -2.399  -6.232  0.00  0.00    +0.000 HD
ENDBRANCH  21  22
ENDBRANCH  18  21
ENDBRANCH   1  18
TORSDOF 8
