REMARK  Name = 
REMARK  10 active torsions:
REMARK  status: ('A' for Active; 'I' for Inactive)
REMARK    1  A    between atoms: C_1  and  O_2
REMARK    2  A    between atoms: O_2  and  C_3
REMARK    3  A    between atoms: C_10  and  C_11
REMARK    4  A    between atoms: N_13  and  C_14
REMARK    5  A    between atoms: C_14  and  C_15
REMARK    6  A    between atoms: C_18  and  C_19
REMARK    7  A    between atoms: C_19  and  N_20
REMARK    8  A    between atoms: N_20  and  C_21
REMARK    9  A    between atoms: N_20  and  C_22
REMARK   10  A    between atoms: C_22  and  C_23
REMARK                            x       y       z     vdW  Elec       q    Type
REMARK                         _______ _______ _______ _____ _____    ______ ____
ROOT
ATOM      1  C   UNL     1       1.984   1.439   3.132  0.00  0.00    +0.000 A 
ATOM      2  C   UNL     1       0.677   1.023   2.860  0.00  0.00    +0.000 A 
ATOM      3  C   UNL     1      -0.322   1.963   2.593  0.00  0.00    +0.000 A 
ATOM      4  C   UNL     1      -0.035   3.335   2.606  0.00  0.00    +0.000 A 
ATOM      5  C   UNL     1       1.284   3.746   2.844  0.00  0.00    +0.000 A 
ATOM      6  C   UNL     1       2.286   2.806   3.097  0.00  0.00    +0.000 A 
ENDROOT
BRANCH   1   7
ATOM      7  C   UNL     1       3.069   0.423   3.398  0.00  0.00    +0.000 C 
BRANCH   7  10
ATOM      8  C   UNL     1       4.700  -0.903   2.117  0.00  0.00    +0.000 C 
ATOM      9  O   UNL     1       5.096  -1.466   3.136  0.00  0.00    +0.000 OA
ATOM     10  N   UNL     1       3.707   0.037   2.167  0.00  0.00    +0.000 N 
ATOM     11  H   UNL     1       3.409   0.506   1.323  0.00  0.00    +0.000 HD
BRANCH   8  19
ATOM     12  C   UNL     1       4.000   0.177  -1.079  0.00  0.00    +0.000 A 
ATOM     13  N   UNL     1       3.966   0.448  -2.400  0.00  0.00    +0.000 NA
ATOM     14  C   UNL     1       4.845  -0.170  -3.193  0.00  0.00    +0.000 A 
ATOM     15  N   UNL     1       5.774  -1.046  -2.821  0.00  0.00    +0.000 NA
ATOM     16  C   UNL     1       5.782  -1.278  -1.497  0.00  0.00    +0.000 A 
ATOM     17  S   UNL     1       6.903  -2.378  -0.850  0.00  0.00    +0.000 S 
ATOM     18  C   UNL     1       6.317  -2.123   0.724  0.00  0.00    +0.000 A 
ATOM     19  C   UNL     1       5.275  -1.206   0.796  0.00  0.00    +0.000 A 
ATOM     20  C   UNL     1       4.949  -0.710  -0.540  0.00  0.00    +0.000 A 
BRANCH  12  22
ATOM     21  C   UNL     1       1.897   1.177  -0.961  0.00  0.00    +0.000 C 
ATOM     22  O   UNL     1       3.096   0.832  -0.269  0.00  0.00    +0.000 OA
ENDBRANCH  12  22
ENDBRANCH   8  19
ENDBRANCH   7  10
ENDBRANCH   1   7
BRANCH   4  23
ATOM     23  C   UNL     1      -1.130   4.359   2.382  0.00  0.00    +0.000 C 
BRANCH  23  24
ATOM     24  N   UNL     1      -2.242   4.253   3.349  0.00  0.00    +0.000 NA
ATOM     25  C   UNL     1      -1.777   4.498   4.722  0.00  0.00    +0.000 C 
BRANCH  24  26
ATOM     26  C   UNL     1      -3.308   5.222   3.031  0.00  0.00    +0.000 C 
BRANCH  26  27
ATOM     27  C   UNL     1      -3.989   4.997   1.698  0.00  0.00    +0.000 A 
ATOM     28  C   UNL     1      -4.640   3.784   1.417  0.00  0.00    +0.000 A 
ATOM     29  C   UNL     1      -5.353   3.617   0.227  0.00  0.00    +0.000 A 
ATOM     30  C   UNL     1      -5.412   4.655  -0.701  0.00  0.00    +0.000 A 
ATOM     31  C   UNL     1      -4.734   5.840  -0.444  0.00  0.00    +0.000 A 
ATOM     32  F   UNL     1      -4.775   6.832  -1.343  0.00  0.00    +0.000 F 
ATOM     33  C   UNL     1      -4.026   6.020   0.740  0.00  0.00    +0.000 A 
ENDBRANCH  26  27
ENDBRANCH  24  26
ENDBRANCH  23  24
ENDBRANCH   4  23
TORSDOF 8
