REMARK  Name = 
REMARK  5 active torsions:
REMARK  status: ('A' for Active; 'I' for Inactive)
REMARK    1  A    between atoms: N_1  and  C_2
REMARK    2  A    between atoms: C_2  and  C_3
REMARK    3  A    between atoms: C_6  and  C_7
REMARK    4  A    between atoms: C_7  and  N_8
REMARK    5  A    between atoms: C_13  and  C_14
REMARK                            x       y       z     vdW  Elec       q    Type
REMARK                         _______ _______ _______ _____ _____    ______ ____
ROOT
ATOM      1  N   UNL     1       3.973   4.780  -3.262  0.00  0.00    +0.000 N 
ATOM      2  C   UNL     1       3.545   5.391  -4.417  0.00  0.00    +0.000 A 
ATOM      3  C   UNL     1       3.888   6.719  -4.355  0.00  0.00    +0.000 A 
ATOM      4  C   UNL     1       4.607   6.919  -3.150  0.00  0.00    +0.000 A 
ATOM      5  C   UNL     1       5.192   8.048  -2.558  0.00  0.00    +0.000 A 
ATOM      6  C   UNL     1       5.860   7.843  -1.360  0.00  0.00    +0.000 A 
ATOM      7  N   UNL     1       6.010   6.630  -0.756  0.00  0.00    +0.000 NA
ATOM      8  C   UNL     1       5.442   5.538  -1.329  0.00  0.00    +0.000 A 
ATOM      9  C   UNL     1       4.708   5.679  -2.506  0.00  0.00    +0.000 A 
ENDROOT
BRANCH   6  10
ATOM     10  C   UNL     1       6.444   9.033  -0.651  0.00  0.00    +0.000 C 
ATOM     11  N   UNL     1       7.057   8.764   0.545  0.00  0.00    +0.000 N 
ATOM     12  O   UNL     1       6.371  10.172  -1.089  0.00  0.00    +0.000 OA
ATOM     13  H   UNL     1       7.072   7.814   0.895  0.00  0.00    +0.000 HD
ATOM     14  H   UNL     1       7.433   9.522   1.090  0.00  0.00    +0.000 HD
ENDBRANCH   6  10
BRANCH   1  15
ATOM     15  C   UNL     1       3.720   3.374  -2.972  0.00  0.00    +0.000 C 
BRANCH  15  19
ATOM     16  C   UNL     1       0.749   2.167  -3.733  0.00  0.00    +0.000 C 
ATOM     17  C   UNL     1       1.023   1.086  -2.691  0.00  0.00    +0.000 C 
ATOM     18  C   UNL     1       2.275   1.560  -1.951  0.00  0.00    +0.000 C 
ATOM     19  C   UNL     1       2.408   3.079  -2.210  0.00  0.00    +0.000 C 
ATOM     20  C   UNL     1       1.116   3.439  -2.967  0.00  0.00    +0.000 C 
BRANCH  16  21
ATOM     21  C   UNL     1      -0.689   2.117  -4.251  0.00  0.00    +0.000 C 
BRANCH  21  22
ATOM     22  N   UNL     1      -0.939   3.156  -5.243  0.00  0.00    +0.000 NA
ATOM     23  H   UNL     1      -1.910   3.101  -5.551  0.00  0.00    +0.000 HD
ATOM     24  H   UNL     1      -0.371   2.986  -6.071  0.00  0.00    +0.000 HD
ENDBRANCH  21  22
ENDBRANCH  16  21
ENDBRANCH  15  19
ENDBRANCH   1  15
TORSDOF 5
