REMARK  Name = 
REMARK  9 active torsions:
REMARK  status: ('A' for Active; 'I' for Inactive)
REMARK    1  A    between atoms: C_1  and  C_2
REMARK    2  A    between atoms: C_2  and  O_3
REMARK    3  A    between atoms: O_3  and  C_4
REMARK    4  A    between atoms: C_4  and  C_6
REMARK    5  A    between atoms: N_13  and  C_14
REMARK    6  A    between atoms: C_14  and  C_15
REMARK    7  A    between atoms: C_18  and  C_19
REMARK    8  A    between atoms: C_19  and  N_20
REMARK    9  A    between atoms: C_21  and  C_23
REMARK                            x       y       z     vdW  Elec       q    Type
REMARK                         _______ _______ _______ _____ _____    ______ ____
ROOT
ATOM      1  C   UNL     1       6.667   2.542  -1.922  0.00  0.00    +0.000 A 
ATOM      2  C   UNL     1       6.813   1.186  -2.245  0.00  0.00    +0.000 A 
ATOM      3  C   UNL     1       6.345   0.688  -3.467  0.00  0.00    +0.000 A 
ATOM      4  C   UNL     1       5.743   1.542  -4.401  0.00  0.00    +0.000 A 
ATOM      5  C   UNL     1       5.563   2.889  -4.061  0.00  0.00    +0.000 A 
ATOM      6  C   UNL     1       6.029   3.386  -2.840  0.00  0.00    +0.000 A 
ENDROOT
BRANCH   1   7
ATOM      7  C   UNL     1       7.199   3.094  -0.625  0.00  0.00    +0.000 C 
BRANCH   7  15
ATOM      8  C   UNL     1      11.146   5.136  -0.873  0.00  0.00    +0.000 A 
ATOM      9  C   UNL     1      12.532   5.034  -0.797  0.00  0.00    +0.000 A 
ATOM     10  C   UNL     1      12.861   4.156   0.250  0.00  0.00    +0.000 A 
ATOM     11  C   UNL     1      11.676   3.762   0.818  0.00  0.00    +0.000 A 
ATOM     12  N   UNL     1      10.611   4.270   0.085  0.00  0.00    +0.000 N 
ATOM     13  C   UNL     1       9.273   3.901   0.360  0.00  0.00    +0.000 C 
ATOM     14  O   UNL     1       8.933   3.709   1.519  0.00  0.00    +0.000 OA
ATOM     15  N   UNL     1       8.541   3.611  -0.764  0.00  0.00    +0.000 N 
ATOM     16  H   UNL     1       8.862   3.874  -1.688  0.00  0.00    +0.000 HD
BRANCH   8  17
ATOM     17  C   UNL     1      10.376   5.994  -1.742  0.00  0.00    +0.000 C 
ATOM     18  O   UNL     1       9.156   6.026  -1.828  0.00  0.00    +0.000 OA
BRANCH  17  19
ATOM     19  O   UNL     1      11.223   6.706  -2.540  0.00  0.00    +0.000 OA
BRANCH  19  21
ATOM     20  C   UNL     1      10.670   6.113  -4.780  0.00  0.00    +0.000 C 
ATOM     21  C   UNL     1      10.643   7.222  -3.744  0.00  0.00    +0.000 C 
ENDBRANCH  19  21
ENDBRANCH  17  19
ENDBRANCH   8  17
ENDBRANCH   7  15
ENDBRANCH   1   7
BRANCH   4  22
ATOM     22  C   UNL     1       5.277   1.024  -5.737  0.00  0.00    +0.000 C 
BRANCH  22  23
ATOM     23  N   UNL     1       3.890   0.642  -5.703  0.00  0.00    +0.000 N 
ATOM     24  C   UNL     1       3.243   0.223  -6.838  0.00  0.00    +0.000 C 
ATOM     25  O   UNL     1       3.768   0.273  -7.945  0.00  0.00    +0.000 OA
ATOM     26  H   UNL     1       3.507   0.401  -4.795  0.00  0.00    +0.000 HD
BRANCH  24  27
ATOM     27  C   UNL     1       1.876  -0.274  -6.664  0.00  0.00    +0.000 A 
ATOM     28  C   UNL     1       0.971  -0.208  -7.715  0.00  0.00    +0.000 A 
ATOM     29  S   UNL     1      -0.561  -0.862  -7.342  0.00  0.00    +0.000 S 
ATOM     30  C   UNL     1      -0.046  -1.323  -5.786  0.00  0.00    +0.000 A 
ATOM     31  N   UNL     1      -0.863  -2.021  -4.954  0.00  0.00    +0.000 NA
ATOM     32  C   UNL     1      -0.326  -2.344  -3.823  0.00  0.00    +0.000 A 
ATOM     33  N   UNL     1       0.945  -2.005  -3.439  0.00  0.00    +0.000 N 
ATOM     34  C   UNL     1       1.784  -1.250  -4.223  0.00  0.00    +0.000 A 
ATOM     35  O   UNL     1       2.882  -0.887  -3.811  0.00  0.00    +0.000 OA
ATOM     36  C   UNL     1       1.251  -0.922  -5.529  0.00  0.00    +0.000 A 
ATOM     37  H   UNL     1       1.292  -2.251  -2.524  0.00  0.00    +0.000 HD
ENDBRANCH  24  27
ENDBRANCH  22  23
ENDBRANCH   4  22
TORSDOF 8
