REMARK  Name = 
REMARK  9 active torsions:
REMARK  status: ('A' for Active; 'I' for Inactive)
REMARK    1  A    between atoms: C_1  and  O_2
REMARK    2  A    between atoms: O_2  and  C_3
REMARK    3  A    between atoms: C_6  and  C_7
REMARK    4  A    between atoms: N_14  and  C_15
REMARK    5  A    between atoms: C_15  and  C_16
REMARK    6  A    between atoms: C_20  and  C_21
REMARK    7  A    between atoms: C_21  and  N_22
REMARK    8  A    between atoms: N_22  and  C_23
REMARK    9  A    between atoms: N_22  and  C_24
REMARK                            x       y       z     vdW  Elec       q    Type
REMARK                         _______ _______ _______ _____ _____    ______ ____
ROOT
ATOM      1  C   UNL     1       3.939   0.120   0.316  0.00  0.00    +0.000 A 
ATOM      2  N   UNL     1       4.749   0.686  -0.616  0.00  0.00    +0.000 NA
ATOM      3  C   UNL     1       5.952   0.131  -0.841  0.00  0.00    +0.000 A 
ATOM      4  C   UNL     1       6.452  -0.996  -0.195  0.00  0.00    +0.000 A 
ATOM      5  C   UNL     1       5.688  -1.488   0.875  0.00  0.00    +0.000 A 
ATOM      6  C   UNL     1       4.407  -0.952   1.109  0.00  0.00    +0.000 A 
ATOM      7  N   UNL     1       3.771  -1.637   2.119  0.00  0.00    +0.000 NA
ATOM      8  C   UNL     1       4.631  -2.536   2.529  0.00  0.00    +0.000 A 
ATOM      9  N   UNL     1       5.822  -2.462   1.846  0.00  0.00    +0.000 N 
ENDROOT
BRANCH   4  10
ATOM     10  C   UNL     1       7.669  -1.609  -0.734  0.00  0.00    +0.000 C 
ATOM     11  N   UNL     1       7.742  -1.682  -2.101  0.00  0.00    +0.000 N 
ATOM     12  O   UNL     1       8.548  -2.052  -0.017  0.00  0.00    +0.000 OA
ATOM     13  H   UNL     1       6.955  -1.486  -2.707  0.00  0.00    +0.000 HD
ATOM     14  H   UNL     1       8.515  -2.192  -2.508  0.00  0.00    +0.000 HD
ENDBRANCH   4  10
BRANCH   1  16
ATOM     15  C   UNL     1       2.299   1.529  -0.552  0.00  0.00    +0.000 C 
ATOM     16  O   UNL     1       2.654   0.603   0.470  0.00  0.00    +0.000 OA
ENDBRANCH   1  16
BRANCH   9  17
ATOM     17  C   UNL     1       7.005  -3.189   2.294  0.00  0.00    +0.000 C 
BRANCH  17  18
ATOM     18  C   UNL     1       7.135  -4.535   1.638  0.00  0.00    +0.000 A 
ATOM     19  C   UNL     1       8.333  -4.921   1.049  0.00  0.00    +0.000 A 
ATOM     20  N   UNL     1       8.490  -6.100   0.403  0.00  0.00    +0.000 NA
ATOM     21  C   UNL     1       7.397  -6.899   0.379  0.00  0.00    +0.000 A 
ATOM     22  C   UNL     1       6.207  -6.573   1.019  0.00  0.00    +0.000 A 
ATOM     23  N   UNL     1       6.066  -5.381   1.664  0.00  0.00    +0.000 NA
BRANCH  22  24
ATOM     24  C   UNL     1       4.989  -7.470   0.918  0.00  0.00    +0.000 C 
BRANCH  24  25
ATOM     25  N   UNL     1       5.219  -8.923   1.096  0.00  0.00    +0.000 NA
ATOM     26  C   UNL     1       5.667  -9.242   2.456  0.00  0.00    +0.000 C 
ATOM     27  C   UNL     1       3.968  -9.643   0.824  0.00  0.00    +0.000 C 
ENDBRANCH  24  25
ENDBRANCH  22  24
ENDBRANCH  17  18
ENDBRANCH   9  17
TORSDOF 6
