REMARK  Name = 
REMARK  10 active torsions:
REMARK  status: ('A' for Active; 'I' for Inactive)
REMARK    1  A    between atoms: N_1  and  C_2
REMARK    2  A    between atoms: C_2  and  C_3
REMARK    3  A    between atoms: C_3  and  N_4
REMARK    4  A    between atoms: N_4  and  C_5
REMARK    5  A    between atoms: N_4  and  C_12
REMARK    6  A    between atoms: C_5  and  C_6
REMARK    7  A    between atoms: C_12  and  C_13
REMARK    8  A    between atoms: C_16  and  C_17
REMARK    9  A    between atoms: C_17  and  N_18
REMARK   10  A    between atoms: C_19  and  C_21
REMARK                            x       y       z     vdW  Elec       q    Type
REMARK                         _______ _______ _______ _____ _____    ______ ____
ROOT
ATOM      1  C   UNL     1       6.421  -1.765  -2.168  0.00  0.00    +0.000 A 
ATOM      2  C   UNL     1       7.075  -2.702  -1.370  0.00  0.00    +0.000 A 
ATOM      3  C   UNL     1       8.467  -2.705  -1.336  0.00  0.00    +0.000 A 
ATOM      4  C   UNL     1       9.180  -1.792  -2.114  0.00  0.00    +0.000 A 
ATOM      5  C   UNL     1       8.445  -0.909  -2.896  0.00  0.00    +0.000 A 
ATOM      6  N   UNL     1       7.092  -0.875  -2.942  0.00  0.00    +0.000 NA
ENDROOT
BRANCH   1   7
ATOM      7  C   UNL     1       4.903  -1.656  -2.124  0.00  0.00    +0.000 C 
BRANCH   7   8
ATOM      8  N   UNL     1       4.364  -1.347  -0.765  0.00  0.00    +0.000 NA
BRANCH   8   9
ATOM      9  C   UNL     1       4.853  -0.007  -0.347  0.00  0.00    +0.000 C 
BRANCH   9  10
ATOM     10  C   UNL     1       4.470   0.414   1.089  0.00  0.00    +0.000 C 
BRANCH  10  11
ATOM     11  N   UNL     1       5.079   1.698   1.454  0.00  0.00    +0.000 NA
ATOM     12  H   UNL     1       4.750   1.975   2.377  0.00  0.00    +0.000 HD
ATOM     13  H   UNL     1       4.760   2.420   0.807  0.00  0.00    +0.000 HD
ENDBRANCH  10  11
ENDBRANCH   9  10
ENDBRANCH   8   9
BRANCH   8  14
ATOM     14  C   UNL     1       2.880  -1.382  -0.795  0.00  0.00    +0.000 C 
BRANCH  14  15
ATOM     15  C   UNL     1       2.283  -2.715  -1.221  0.00  0.00    +0.000 A 
ATOM     16  C   UNL     1       2.560  -3.879  -0.505  0.00  0.00    +0.000 A 
ATOM     17  C   UNL     1       2.060  -5.091  -0.973  0.00  0.00    +0.000 A 
ATOM     18  C   UNL     1       1.288  -5.109  -2.128  0.00  0.00    +0.000 A 
ATOM     19  C   UNL     1       1.039  -3.907  -2.767  0.00  0.00    +0.000 A 
ATOM     20  N   UNL     1       1.518  -2.717  -2.343  0.00  0.00    +0.000 NA
ENDBRANCH  14  15
ENDBRANCH   8  14
ENDBRANCH   7   8
ENDBRANCH   1   7
BRANCH   4  21
ATOM     21  C   UNL     1      10.677  -1.736  -2.079  0.00  0.00    +0.000 C 
BRANCH  21  22
ATOM     22  N   UNL     1      11.162  -0.822  -1.072  0.00  0.00    +0.000 N 
ATOM     23  C   UNL     1      12.501  -0.532  -0.989  0.00  0.00    +0.000 C 
ATOM     24  O   UNL     1      13.309  -0.990  -1.794  0.00  0.00    +0.000 OA
ATOM     25  H   UNL     1      10.553  -0.614  -0.284  0.00  0.00    +0.000 HD
BRANCH  23  26
ATOM     26  C   UNL     1      12.928   0.391   0.070  0.00  0.00    +0.000 A 
ATOM     27  C   UNL     1      14.123   1.085  -0.074  0.00  0.00    +0.000 A 
ATOM     28  S   UNL     1      14.475   2.125   1.229  0.00  0.00    +0.000 S 
ATOM     29  C   UNL     1      13.065   1.651   2.056  0.00  0.00    +0.000 A 
ATOM     30  N   UNL     1      12.779   2.153   3.285  0.00  0.00    +0.000 NA
ATOM     31  C   UNL     1      11.692   1.691   3.808  0.00  0.00    +0.000 A 
ATOM     32  N   UNL     1      10.862   0.781   3.209  0.00  0.00    +0.000 N 
ATOM     33  C   UNL     1      11.098   0.264   1.955  0.00  0.00    +0.000 A 
ATOM     34  O   UNL     1      10.321  -0.525   1.429  0.00  0.00    +0.000 OA
ATOM     35  C   UNL     1      12.320   0.736   1.332  0.00  0.00    +0.000 A 
ATOM     36  H   UNL     1      10.016   0.475   3.667  0.00  0.00    +0.000 HD
ENDBRANCH  23  26
ENDBRANCH  21  22
ENDBRANCH   4  21
TORSDOF 10
