REMARK  Name = 
REMARK  4 active torsions:
REMARK  status: ('A' for Active; 'I' for Inactive)
REMARK    1  A    between atoms: N_1  and  C_2
REMARK    2  A    between atoms: C_2  and  C_3
REMARK    3  A    between atoms: C_6  and  C_7
REMARK    4  A    between atoms: C_7  and  N_8
REMARK                            x       y       z     vdW  Elec       q    Type
REMARK                         _______ _______ _______ _____ _____    ______ ____
ROOT
ATOM      1  C   UNL     1       0.742   1.059   4.221  0.00  0.00    +0.000 C 
ENDROOT
BRANCH   1   2
ATOM      2  N   UNL     1       0.173   0.122   5.183  0.00  0.00    +0.000 N 
ATOM      3  C   UNL     1       0.478   0.118   6.523  0.00  0.00    +0.000 A 
ATOM      4  C   UNL     1      -0.196  -0.925   7.113  0.00  0.00    +0.000 A 
ATOM      5  C   UNL     1      -0.993  -1.545   6.115  0.00  0.00    +0.000 A 
ATOM      6  C   UNL     1      -1.904  -2.621   6.134  0.00  0.00    +0.000 A 
ATOM      7  C   UNL     1      -2.566  -2.984   4.957  0.00  0.00    +0.000 A 
ATOM      8  C   UNL     1      -2.314  -2.294   3.780  0.00  0.00    +0.000 A 
ATOM      9  F   UNL     1      -2.963  -2.654   2.664  0.00  0.00    +0.000 F 
ATOM     10  C   UNL     1      -1.410  -1.234   3.724  0.00  0.00    +0.000 A 
ATOM     11  C   UNL     1      -0.755  -0.866   4.911  0.00  0.00    +0.000 A 
ENDBRANCH   1   2
BRANCH   1  15
ATOM     12  C   UNL     1       3.125   0.349   1.275  0.00  0.00    +0.000 C 
ATOM     13  C   UNL     1       2.507  -0.706   2.208  0.00  0.00    +0.000 C 
ATOM     14  C   UNL     1       2.783  -0.405   3.680  0.00  0.00    +0.000 C 
ATOM     15  C   UNL     1       2.282   0.986   4.104  0.00  0.00    +0.000 C 
ATOM     16  C   UNL     1       2.820   2.070   3.150  0.00  0.00    +0.000 C 
ATOM     17  C   UNL     1       2.613   1.746   1.668  0.00  0.00    +0.000 C 
BRANCH  12  18
ATOM     18  C   UNL     1       4.669   0.305   1.253  0.00  0.00    +0.000 C 
BRANCH  18  19
ATOM     19  N   UNL     1       5.165  -0.996   0.818  0.00  0.00    +0.000 NA
ATOM     20  H   UNL     1       6.184  -0.989   0.808  0.00  0.00    +0.000 HD
ATOM     21  H   UNL     1       4.867  -1.179  -0.138  0.00  0.00    +0.000 HD
ENDBRANCH  18  19
ENDBRANCH  12  18
ENDBRANCH   1  15
TORSDOF 4
