REMARK  Name = 
REMARK  5 active torsions:
REMARK  status: ('A' for Active; 'I' for Inactive)
REMARK    1  A    between atoms: N_1  and  C_2
REMARK    2  A    between atoms: C_2  and  C_3
REMARK    3  A    between atoms: C_6  and  C_7
REMARK    4  A    between atoms: C_7  and  O_8
REMARK    5  A    between atoms: O_8  and  C_9
REMARK                            x       y       z     vdW  Elec       q    Type
REMARK                         _______ _______ _______ _____ _____    ______ ____
ROOT
ATOM      1  C   UNL     1       2.790   1.212   0.817  0.00  0.00    +0.000 A 
ATOM      2  N   UNL     1       2.405   2.435   0.400  0.00  0.00    +0.000 NA
ATOM      3  C   UNL     1       2.739   3.472   1.192  0.00  0.00    +0.000 A 
ATOM      4  C   UNL     1       3.438   3.343   2.373  0.00  0.00    +0.000 A 
ATOM      5  C   UNL     1       3.774   2.050   2.712  0.00  0.00    +0.000 A 
ATOM      6  N   UNL     1       3.473   0.973   1.960  0.00  0.00    +0.000 NA
ENDROOT
BRANCH   1   7
ATOM      7  C   UNL     1       2.385   0.009  -0.018  0.00  0.00    +0.000 C 
BRANCH   7   8
ATOM      8  N   UNL     1       3.519  -0.780  -0.527  0.00  0.00    +0.000 NA
ATOM      9  H   UNL     1       3.166  -1.672  -0.867  0.00  0.00    +0.000 HD
ATOM     10  H   UNL     1       4.121  -0.992   0.269  0.00  0.00    +0.000 HD
ENDBRANCH   7   8
ENDBRANCH   1   7
BRANCH   4  11
ATOM     11  C   UNL     1       3.782   4.514   3.232  0.00  0.00    +0.000 C 
BRANCH  11  12
ATOM     12  O   UNL     1       2.712   4.746   4.150  0.00  0.00    +0.000 OA
BRANCH  12  13
ATOM     13  C   UNL     1       2.858   5.806   4.997  0.00  0.00    +0.000 A 
ATOM     14  C   UNL     1       3.966   6.650   5.078  0.00  0.00    +0.000 A 
ATOM     15  C   UNL     1       3.967   7.698   5.996  0.00  0.00    +0.000 A 
ATOM     16  C   UNL     1       2.856   7.863   6.804  0.00  0.00    +0.000 A 
ATOM     17 CL   UNL     1       2.787   9.134   7.953  0.00  0.00    +0.000 Cl
ATOM     18  N   UNL     1       1.767   7.073   6.765  0.00  0.00    +0.000 NA
ATOM     19  C   UNL     1       1.795   6.063   5.862  0.00  0.00    +0.000 A 
ENDBRANCH  12  13
ENDBRANCH  11  12
ENDBRANCH   4  11
TORSDOF 5
