REMARK  Name = 
REMARK  5 active torsions:
REMARK  status: ('A' for Active; 'I' for Inactive)
REMARK    1  A    between atoms: C_2  and  C_4
REMARK    2  A    between atoms: C_7  and  O_8
REMARK    3  A    between atoms: O_8  and  C_9
REMARK    4  A    between atoms: C_9  and  C_10
REMARK    5  A    between atoms: C_14  and  C_15
REMARK                            x       y       z     vdW  Elec       q    Type
REMARK                         _______ _______ _______ _____ _____    ______ ____
ROOT
ATOM      1  C   UNL     1       4.425   4.620  -3.922  0.00  0.00    +0.000 C 
ATOM      2  C   UNL     1       4.255   5.917  -3.132  0.00  0.00    +0.000 C 
ATOM      3  C   UNL     1       3.648   5.800  -4.495  0.00  0.00    +0.000 C 
ENDROOT
BRANCH   1   4
ATOM      4  C   UNL     1       5.850   4.342  -4.436  0.00  0.00    +0.000 A 
ATOM      5  N   UNL     1       6.811   4.012  -3.550  0.00  0.00    +0.000 NA
ATOM      6  C   UNL     1       8.091   4.134  -3.936  0.00  0.00    +0.000 A 
ATOM      7  C   UNL     1       8.461   4.556  -5.188  0.00  0.00    +0.000 A 
ATOM      8  C   UNL     1       7.437   4.798  -6.080  0.00  0.00    +0.000 A 
ATOM      9  N   UNL     1       6.141   4.672  -5.714  0.00  0.00    +0.000 NA
BRANCH   8  10
ATOM     10  C   UNL     1       7.652   5.285  -7.455  0.00  0.00    +0.000 A 
ATOM     11  C   UNL     1       6.644   5.983  -8.145  0.00  0.00    +0.000 A 
ATOM     12  C   UNL     1       6.861   6.456  -9.437  0.00  0.00    +0.000 A 
ATOM     13  C   UNL     1       8.093   6.221 -10.018  0.00  0.00    +0.000 A 
ATOM     14  F   UNL     1       8.312   6.678 -11.258  0.00  0.00    +0.000 F 
ATOM     15  N   UNL     1       9.094   5.555  -9.412  0.00  0.00    +0.000 NA
ATOM     16  C   UNL     1       8.844   5.104  -8.156  0.00  0.00    +0.000 A 
ENDBRANCH   8  10
ENDBRANCH   1   4
BRANCH   1  17
ATOM     17  O   UNL     1       3.533   3.516  -3.624  0.00  0.00    +0.000 OA
BRANCH  17  21
ATOM     18  C   UNL     1       4.980   1.133  -0.655  0.00  0.00    +0.000 A 
ATOM     19  C   UNL     1       4.126   0.582  -1.612  0.00  0.00    +0.000 A 
ATOM     20  C   UNL     1       3.570   1.415  -2.572  0.00  0.00    +0.000 A 
ATOM     21  C   UNL     1       3.900   2.760  -2.531  0.00  0.00    +0.000 A 
ATOM     22  N   UNL     1       4.602   3.339  -1.535  0.00  0.00    +0.000 NA
ATOM     23  C   UNL     1       5.140   2.512  -0.616  0.00  0.00    +0.000 A 
BRANCH  18  25
ATOM     24  N   UNL     1       6.242  -0.885  -0.294  0.00  0.00    +0.000 N 
ATOM     25  C   UNL     1       5.802   0.301   0.235  0.00  0.00    +0.000 C 
ATOM     26  O   UNL     1       6.145   0.680   1.346  0.00  0.00    +0.000 OA
ATOM     27  H   UNL     1       6.955  -1.369   0.239  0.00  0.00    +0.000 HD
ATOM     28  H   UNL     1       6.206  -1.065  -1.288  0.00  0.00    +0.000 HD
ENDBRANCH  18  25
ENDBRANCH  17  21
ENDBRANCH   1  17
TORSDOF 5
