REMARK  Name = 
REMARK  8 active torsions:
REMARK  status: ('A' for Active; 'I' for Inactive)
REMARK    1  A    between atoms: C_2  and  C_3
REMARK    2  A    between atoms: C_3  and  N_4
REMARK    3  A    between atoms: C_3  and  C_26
REMARK    4  A    between atoms: N_4  and  C_5
REMARK    5  A    between atoms: C_5  and  C_6
REMARK    6  A    between atoms: C_9  and  C_10
REMARK    7  A    between atoms: C_10  and  N_11
REMARK    8  A    between atoms: C_12  and  C_14
REMARK                            x       y       z     vdW  Elec       q    Type
REMARK                         _______ _______ _______ _____ _____    ______ ____
ROOT
ATOM      1  C   UNL     1       4.235  -1.042   3.684  0.00  0.00    +0.000 A 
ATOM      2  C   UNL     1       4.601  -0.441   4.895  0.00  0.00    +0.000 A 
ATOM      3  C   UNL     1       4.890  -1.224   6.014  0.00  0.00    +0.000 A 
ATOM      4  C   UNL     1       4.821  -2.620   5.940  0.00  0.00    +0.000 A 
ATOM      5  C   UNL     1       4.443  -3.220   4.731  0.00  0.00    +0.000 A 
ATOM      6  C   UNL     1       4.161  -2.438   3.612  0.00  0.00    +0.000 A 
ENDROOT
BRANCH   1   7
ATOM      7  C   UNL     1       3.829  -0.205   2.498  0.00  0.00    +0.000 C 
BRANCH   7   8
ATOM      8  N   UNL     1       4.894   0.713   2.070  0.00  0.00    +0.000 NA
ATOM      9  H   UNL     1       5.142   1.322   2.847  0.00  0.00    +0.000 HD
BRANCH   8  10
ATOM     10  C   UNL     1       4.462   1.561   0.929  0.00  0.00    +0.000 C 
BRANCH  10  11
ATOM     11  C   UNL     1       4.160   0.704  -0.303  0.00  0.00    +0.000 A 
ATOM     12  C   UNL     1       2.903   0.700  -0.930  0.00  0.00    +0.000 A 
ATOM     13  C   UNL     1       2.643  -0.148  -2.007  0.00  0.00    +0.000 A 
ATOM     14  C   UNL     1       3.632  -1.010  -2.473  0.00  0.00    +0.000 A 
ATOM     15  C   UNL     1       4.885  -1.026  -1.865  0.00  0.00    +0.000 A 
ATOM     16  C   UNL     1       5.149  -0.173  -0.792  0.00  0.00    +0.000 A 
ENDBRANCH  10  11
BRANCH  10  18
ATOM     17  N   UNL     1       2.505   3.206   1.639  0.00  0.00    +0.000 NA
ATOM     18  C   UNL     1       3.371   2.504   1.312  0.00  0.00    +0.000 C 
ENDBRANCH  10  18
ENDBRANCH   8  10
ENDBRANCH   7   8
ENDBRANCH   1   7
BRANCH   4  19
ATOM     19  C   UNL     1       5.085  -3.478   7.149  0.00  0.00    +0.000 C 
BRANCH  19  20
ATOM     20  N   UNL     1       3.870  -3.715   7.885  0.00  0.00    +0.000 N 
ATOM     21  C   UNL     1       3.879  -4.431   9.055  0.00  0.00    +0.000 C 
ATOM     22  O   UNL     1       4.918  -4.861   9.546  0.00  0.00    +0.000 OA
ATOM     23  H   UNL     1       2.996  -3.608   7.378  0.00  0.00    +0.000 HD
BRANCH  21  24
ATOM     24  C   UNL     1       2.586  -4.602   9.724  0.00  0.00    +0.000 A 
ATOM     25  C   UNL     1       2.541  -4.796  11.097  0.00  0.00    +0.000 A 
ATOM     26  S   UNL     1       0.961  -4.958  11.714  0.00  0.00    +0.000 S 
ATOM     27  C   UNL     1       0.278  -4.817  10.165  0.00  0.00    +0.000 A 
ATOM     28  N   UNL     1      -1.063  -4.909   9.973  0.00  0.00    +0.000 NA
ATOM     29  C   UNL     1      -1.439  -4.803   8.744  0.00  0.00    +0.000 A 
ATOM     30  N   UNL     1      -0.591  -4.607   7.682  0.00  0.00    +0.000 N 
ATOM     31  C   UNL     1       0.768  -4.483   7.826  0.00  0.00    +0.000 A 
ATOM     32  O   UNL     1       1.491  -4.265   6.863  0.00  0.00    +0.000 OA
ATOM     33  C   UNL     1       1.246  -4.616   9.189  0.00  0.00    +0.000 A 
ATOM     34  H   UNL     1      -0.952  -4.516   6.744  0.00  0.00    +0.000 HD
ENDBRANCH  21  24
ENDBRANCH  19  20
ENDBRANCH   4  19
TORSDOF 8
