REMARK  Name = 
REMARK  7 active torsions:
REMARK  status: ('A' for Active; 'I' for Inactive)
REMARK    1  A    between atoms: N_1  and  C_2
REMARK    2  A    between atoms: C_2  and  C_3
REMARK    3  A    between atoms: C_7  and  C_8
REMARK    4  A    between atoms: C_8  and  N_9
REMARK    5  A    between atoms: N_9  and  C_10
REMARK    6  A    between atoms: C_13  and  C_14
REMARK    7  A    between atoms: C_14  and  O_16
REMARK                            x       y       z     vdW  Elec       q    Type
REMARK                         _______ _______ _______ _____ _____    ______ ____
ROOT
ATOM      1  N   UNL     1       2.659  -3.739   5.028  0.00  0.00    +0.000 N 
ATOM      2  H   UNL     1       1.830  -3.249   5.358  0.00  0.00    +0.000 HD
ENDROOT
BRANCH   1   3
ATOM      3  C   UNL     1       3.634  -3.923   5.995  0.00  0.00    +0.000 A 
ATOM      4  C   UNL     1       5.004  -4.007   5.722  0.00  0.00    +0.000 A 
ATOM      5  C   UNL     1       5.941  -4.224   6.743  0.00  0.00    +0.000 A 
ATOM      6  C   UNL     1       5.511  -4.419   8.058  0.00  0.00    +0.000 A 
ATOM      7  C   UNL     1       4.145  -4.371   8.343  0.00  0.00    +0.000 A 
ATOM      8  C   UNL     1       3.223  -4.132   7.319  0.00  0.00    +0.000 A 
BRANCH   6   9
ATOM      9  C   UNL     1       6.450  -4.633   9.187  0.00  0.00    +0.000 C 
ATOM     10  O   UNL     1       6.192  -4.302  10.333  0.00  0.00    +0.000 OA
BRANCH   9  11
ATOM     11  O   UNL     1       7.598  -5.256   8.847  0.00  0.00    +0.000 OA
ATOM     12  H   UNL     1       7.612  -5.636   7.949  0.00  0.00    +0.000 HD
ENDBRANCH   9  11
ENDBRANCH   6   9
ENDBRANCH   1   3
BRANCH   1  13
ATOM     13  C   UNL     1       2.919  -3.533   3.611  0.00  0.00    +0.000 C 
BRANCH  13  18
ATOM     14  C   UNL     1       2.783  -0.363   1.488  0.00  0.00    +0.000 A 
ATOM     15  C   UNL     1       3.314   0.593   2.361  0.00  0.00    +0.000 A 
ATOM     16  C   UNL     1       3.742   0.221   3.633  0.00  0.00    +0.000 A 
ATOM     17  C   UNL     1       3.625  -1.105   4.053  0.00  0.00    +0.000 A 
ATOM     18  C   UNL     1       3.070  -2.080   3.214  0.00  0.00    +0.000 A 
ATOM     19  C   UNL     1       2.673  -1.693   1.922  0.00  0.00    +0.000 A 
BRANCH  14  20
ATOM     20  C   UNL     1       2.262   0.042   0.135  0.00  0.00    +0.000 C 
BRANCH  20  21
ATOM     21  N   UNL     1       0.831   0.304   0.199  0.00  0.00    +0.000 NA
ATOM     22  H   UNL     1       0.531   0.736  -0.672  0.00  0.00    +0.000 HD
ATOM     23  H   UNL     1       0.654   0.987   0.933  0.00  0.00    +0.000 HD
ENDBRANCH  20  21
ENDBRANCH  14  20
ENDBRANCH  13  18
ENDBRANCH   1  13
TORSDOF 7
