REMARK  Name = 
REMARK  4 active torsions:
REMARK  status: ('A' for Active; 'I' for Inactive)
REMARK    1  A    between atoms: C_2  and  C_4
REMARK    2  A    between atoms: N_8  and  C_9
REMARK    3  A    between atoms: C_9  and  C_10
REMARK    4  A    between atoms: C_13  and  O_14
REMARK                            x       y       z     vdW  Elec       q    Type
REMARK                         _______ _______ _______ _____ _____    ______ ____
ROOT
ATOM      1  C   UNL     1       3.304  -3.291  -1.367  0.00  0.00    +0.000 A 
ATOM      2  C   UNL     1       2.579  -2.854  -2.472  0.00  0.00    +0.000 A 
ATOM      3  C   UNL     1       3.248  -2.230  -3.528  0.00  0.00    +0.000 A 
ATOM      4  C   UNL     1       4.625  -2.047  -3.460  0.00  0.00    +0.000 A 
ATOM      5  N   UNL     1       5.363  -1.365  -4.428  0.00  0.00    +0.000 N 
ATOM      6  N   UNL     1       5.333  -2.451  -2.383  0.00  0.00    +0.000 NA
ATOM      7  C   UNL     1       4.669  -3.055  -1.365  0.00  0.00    +0.000 A 
ATOM      8  H   UNL     1       6.340  -1.446  -4.152  0.00  0.00    +0.000 HD
ENDROOT
BRANCH   1  10
ATOM      9  N   UNL     1       1.515  -4.633  -0.426  0.00  0.00    +0.000 N 
ATOM     10  C   UNL     1       2.686  -3.963  -0.205  0.00  0.00    +0.000 C 
ATOM     11  O   UNL     1       3.215  -3.954   0.897  0.00  0.00    +0.000 OA
ATOM     12  H   UNL     1       1.152  -5.175   0.352  0.00  0.00    +0.000 HD
ATOM     13  H   UNL     1       1.189  -4.874  -1.349  0.00  0.00    +0.000 HD
ENDBRANCH   1  10
BRANCH   5  14
ATOM     14  C   UNL     1       5.086  -1.350  -5.871  0.00  0.00    +0.000 C 
ATOM     15  C   UNL     1       5.169   0.035  -6.512  0.00  0.00    +0.000 C 
ATOM     16  C   UNL     1       3.866  -0.686  -6.486  0.00  0.00    +0.000 C 
BRANCH  14  17
ATOM     17  C   UNL     1       5.686  -2.523  -6.648  0.00  0.00    +0.000 A 
ATOM     18  C   UNL     1       4.962  -3.715  -6.840  0.00  0.00    +0.000 A 
ATOM     19  C   UNL     1       5.452  -4.749  -7.645  0.00  0.00    +0.000 A 
ATOM     20  C   UNL     1       6.687  -4.605  -8.263  0.00  0.00    +0.000 A 
ATOM     21  C   UNL     1       7.452  -3.466  -8.056  0.00  0.00    +0.000 A 
ATOM     22  C   UNL     1       6.957  -2.441  -7.248  0.00  0.00    +0.000 A 
BRANCH  20  23
ATOM     23  O   UNL     1       7.183  -5.562  -9.097  0.00  0.00    +0.000 OA
ATOM     24  H   UNL     1       6.508  -6.251  -9.214  0.00  0.00    +0.000 HD
ENDBRANCH  20  23
ENDBRANCH  14  17
ENDBRANCH   5  14
TORSDOF 4
