REMARK  Name = 
REMARK  7 active torsions:
REMARK  status: ('A' for Active; 'I' for Inactive)
REMARK    1  A    between atoms: C_1  and  N_2
REMARK    2  A    between atoms: C_6  and  C_7
REMARK    3  A    between atoms: N_9  and  C_10
REMARK    4  A    between atoms: C_10  and  C_11
REMARK    5  A    between atoms: C_14  and  C_15
REMARK    6  A    between atoms: C_15  and  N_16
REMARK    7  A    between atoms: C_17  and  C_19
REMARK                            x       y       z     vdW  Elec       q    Type
REMARK                         _______ _______ _______ _____ _____    ______ ____
ROOT
ATOM      1  C   UNL     1       3.671   4.271   0.122  0.00  0.00    +0.000 A 
ATOM      2  C   UNL     1       4.289   5.529   0.159  0.00  0.00    +0.000 A 
ATOM      3  C   UNL     1       5.682   5.640   0.255  0.00  0.00    +0.000 A 
ATOM      4  C   UNL     1       6.487   4.494   0.295  0.00  0.00    +0.000 A 
ATOM      5  C   UNL     1       5.870   3.237   0.265  0.00  0.00    +0.000 A 
ATOM      6  C   UNL     1       4.479   3.126   0.170  0.00  0.00    +0.000 A 
ENDROOT
BRANCH   1   7
ATOM      7  C   UNL     1       2.170   4.150   0.044  0.00  0.00    +0.000 C 
BRANCH   7  10
ATOM      8  C   UNL     1       0.335   4.098  -1.608  0.00  0.00    +0.000 C 
ATOM      9  O   UNL     1      -0.533   4.101  -0.739  0.00  0.00    +0.000 OA
ATOM     10  N   UNL     1       1.683   4.128  -1.311  0.00  0.00    +0.000 N 
ATOM     11  H   UNL     1       2.325   4.073  -2.097  0.00  0.00    +0.000 HD
BRANCH   8  17
ATOM     12  C   UNL     1      -2.463   3.945  -3.004  0.00  0.00    +0.000 C 
ATOM     13  N   UNL     1      -1.175   4.006  -3.651  0.00  0.00    +0.000 N 
ATOM     14  C   UNL     1      -0.978   4.015  -5.006  0.00  0.00    +0.000 A 
ATOM     15  C   UNL     1       0.384   4.071  -5.170  0.00  0.00    +0.000 A 
ATOM     16  N   UNL     1       1.019   4.095  -3.957  0.00  0.00    +0.000 NA
ATOM     17  C   UNL     1       0.060   4.063  -3.038  0.00  0.00    +0.000 A 
ENDBRANCH   8  17
ENDBRANCH   7  10
ENDBRANCH   1   7
BRANCH   4  18
ATOM     18  C   UNL     1       7.987   4.600   0.385  0.00  0.00    +0.000 C 
BRANCH  18  19
ATOM     19  N   UNL     1       8.442   4.642   1.752  0.00  0.00    +0.000 N 
ATOM     20  C   UNL     1       8.901   3.535   2.416  0.00  0.00    +0.000 C 
ATOM     21  O   UNL     1       8.951   2.427   1.887  0.00  0.00    +0.000 OA
ATOM     22  H   UNL     1       8.244   5.492   2.270  0.00  0.00    +0.000 HD
BRANCH  20  23
ATOM     23  C   UNL     1       9.405   3.751   3.780  0.00  0.00    +0.000 A 
ATOM     24  C   UNL     1      10.266   2.817   4.345  0.00  0.00    +0.000 A 
ATOM     25  S   UNL     1      10.798   3.232   5.910  0.00  0.00    +0.000 S 
ATOM     26  C   UNL     1       9.859   4.651   5.912  0.00  0.00    +0.000 A 
ATOM     27  N   UNL     1       9.840   5.471   6.996  0.00  0.00    +0.000 NA
ATOM     28  C   UNL     1       9.057   6.493   6.879  0.00  0.00    +0.000 A 
ATOM     29  N   UNL     1       8.300   6.772   5.772  0.00  0.00    +0.000 N 
ATOM     30  C   UNL     1       8.340   6.006   4.629  0.00  0.00    +0.000 A 
ATOM     31  O   UNL     1       7.738   6.348   3.617  0.00  0.00    +0.000 OA
ATOM     32  C   UNL     1       9.170   4.821   4.724  0.00  0.00    +0.000 A 
ATOM     33  H   UNL     1       7.726   7.601   5.732  0.00  0.00    +0.000 HD
ENDBRANCH  20  23
ENDBRANCH  18  19
ENDBRANCH   4  18
TORSDOF 6
