REMARK  Name = 
REMARK  11 active torsions:
REMARK  status: ('A' for Active; 'I' for Inactive)
REMARK    1  A    between atoms: C_1  and  O_2
REMARK    2  A    between atoms: O_2  and  C_3
REMARK    3  A    between atoms: C_10  and  C_11
REMARK    4  A    between atoms: N_13  and  C_14
REMARK    5  A    between atoms: C_14  and  C_15
REMARK    6  A    between atoms: C_18  and  C_19
REMARK    7  A    between atoms: C_19  and  N_20
REMARK    8  A    between atoms: N_20  and  CA_21
REMARK    9  A    between atoms: CA_21  and  C_22
REMARK   10  A    between atoms: CA_21  and  C_24
REMARK   11  A    between atoms: C_22  and  O_23
REMARK                            x       y       z     vdW  Elec       q    Type
REMARK                         _______ _______ _______ _____ _____    ______ ____
ROOT
ATOM      1  C   UNL     1       1.505   2.778  -1.618  0.00  0.00    +0.000 A 
ATOM      2  C   UNL     1       1.398   1.468  -2.105  0.00  0.00    +0.000 A 
ATOM      3  C   UNL     1       0.218   1.026  -2.718  0.00  0.00    +0.000 A 
ATOM      4  C   UNL     1      -0.882   1.884  -2.872  0.00  0.00    +0.000 A 
ATOM      5  C   UNL     1      -0.752   3.209  -2.434  0.00  0.00    +0.000 A 
ATOM      6  C   UNL     1       0.428   3.652  -1.820  0.00  0.00    +0.000 A 
ENDROOT
BRANCH   1   7
ATOM      7  C   UNL     1       2.754   3.241  -0.906  0.00  0.00    +0.000 C 
BRANCH   7  10
ATOM      8  C   UNL     1       4.913   4.321  -1.411  0.00  0.00    +0.000 C 
ATOM      9  O   UNL     1       5.257   4.276  -0.232  0.00  0.00    +0.000 OA
ATOM     10  N   UNL     1       3.699   3.834  -1.818  0.00  0.00    +0.000 N 
ATOM     11  H   UNL     1       3.431   3.890  -2.788  0.00  0.00    +0.000 HD
BRANCH   8  19
ATOM     12  C   UNL     1       4.635   4.660  -4.823  0.00  0.00    +0.000 A 
ATOM     13  N   UNL     1       4.756   4.961  -6.130  0.00  0.00    +0.000 NA
ATOM     14  C   UNL     1       5.852   5.614  -6.522  0.00  0.00    +0.000 A 
ATOM     15  N   UNL     1       6.869   6.007  -5.760  0.00  0.00    +0.000 NA
ATOM     16  C   UNL     1       6.701   5.698  -4.461  0.00  0.00    +0.000 A 
ATOM     17  S   UNL     1       7.904   6.116  -3.339  0.00  0.00    +0.000 S 
ATOM     18  C   UNL     1       7.007   5.451  -2.056  0.00  0.00    +0.000 A 
ATOM     19  C   UNL     1       5.786   4.909  -2.443  0.00  0.00    +0.000 A 
ATOM     20  C   UNL     1       5.618   5.043  -3.889  0.00  0.00    +0.000 A 
BRANCH  12  22
ATOM     21  C   UNL     1       2.907   3.208  -5.436  0.00  0.00    +0.000 C 
ATOM     22  O   UNL     1       3.501   3.997  -4.410  0.00  0.00    +0.000 OA
ENDBRANCH  12  22
ENDBRANCH   8  19
ENDBRANCH   7  10
ENDBRANCH   1   7
BRANCH   4  23
ATOM     23  C   UNL     1      -2.163   1.400  -3.529  0.00  0.00    +0.000 C 
BRANCH  23  24
ATOM     24  N   UNL     1      -2.702   0.224  -2.842  0.00  0.00    +0.000 NA
ATOM     25  H   UNL     1      -2.846   0.481  -1.862  0.00  0.00    +0.000 HD
BRANCH  24  26
ATOM     26  CA  UNL     1      -4.007  -0.249  -3.362  0.00  0.00    +0.000 C 
BRANCH  26  27
ATOM     27  C   UNL     1      -4.544  -1.388  -2.487  0.00  0.00    +0.000 A 
ATOM     28  C   UNL     1      -5.923  -1.634  -2.408  0.00  0.00    +0.000 A 
ATOM     29  C   UNL     1      -6.421  -2.692  -1.636  0.00  0.00    +0.000 A 
ATOM     30  C   UNL     1      -5.544  -3.518  -0.935  0.00  0.00    +0.000 A 
ATOM     31  C   UNL     1      -4.175  -3.293  -1.005  0.00  0.00    +0.000 A 
ATOM     32  C   UNL     1      -3.679  -2.244  -1.780  0.00  0.00    +0.000 A 
ENDBRANCH  26  27
BRANCH  26  33
ATOM     33  C   UNL     1      -3.944  -0.715  -4.844  0.00  0.00    +0.000 C 
BRANCH  33  34
ATOM     34  O   UNL     1      -2.958  -1.726  -5.055  0.00  0.00    +0.000 OA
ATOM     35  H   UNL     1      -2.288  -1.591  -4.359  0.00  0.00    +0.000 HD
ENDBRANCH  33  34
ENDBRANCH  26  33
ENDBRANCH  24  26
ENDBRANCH  23  24
ENDBRANCH   4  23
TORSDOF 10
