REMARK  Name = 
REMARK  5 active torsions:
REMARK  status: ('A' for Active; 'I' for Inactive)
REMARK    1  A    between atoms: N_1  and  C_2
REMARK    2  A    between atoms: C_2  and  C_3
REMARK    3  A    between atoms: C_3  and  C_4
REMARK    4  A    between atoms: N_6  and  C_7
REMARK    5  A    between atoms: C_7  and  C_8
REMARK                            x       y       z     vdW  Elec       q    Type
REMARK                         _______ _______ _______ _____ _____    ______ ____
ROOT
ATOM      1  C   UNL     1       4.421  -1.363   0.482  0.00  0.00    +0.000 A 
ATOM      2  C   UNL     1       5.220  -0.239   0.466  0.00  0.00    +0.000 A 
ATOM      3  N   UNL     1       6.534  -0.634   0.495  0.00  0.00    +0.000 N 
ATOM      4  C   UNL     1       6.614  -2.013   0.516  0.00  0.00    +0.000 A 
ATOM      5  C   UNL     1       7.720  -2.877   0.531  0.00  0.00    +0.000 A 
ATOM      6  C   UNL     1       7.482  -4.254   0.553  0.00  0.00    +0.000 A 
ATOM      7  C   UNL     1       6.186  -4.756   0.557  0.00  0.00    +0.000 A 
ATOM      8  C   UNL     1       5.091  -3.888   0.537  0.00  0.00    +0.000 A 
ATOM      9  C   UNL     1       5.299  -2.493   0.511  0.00  0.00    +0.000 A 
ENDROOT
BRANCH   1  10
ATOM     10  C   UNL     1       2.923  -1.385   0.471  0.00  0.00    +0.000 C 
BRANCH  10  11
ATOM     11  C   UNL     1       2.338  -1.322   1.887  0.00  0.00    +0.000 C 
BRANCH  11  12
ATOM     12  N   UNL     1       0.874  -1.328   1.871  0.00  0.00    +0.000 NA
ATOM     13  H   UNL     1       0.532  -1.294   2.831  0.00  0.00    +0.000 HD
ATOM     14  H   UNL     1       0.541  -2.209   1.483  0.00  0.00    +0.000 HD
ENDBRANCH  11  12
ENDBRANCH  10  11
ENDBRANCH   1  10
BRANCH   3  15
ATOM     15  C   UNL     1       7.667   0.291   0.531  0.00  0.00    +0.000 C 
BRANCH  15  16
ATOM     16  C   UNL     1       8.195   0.571  -0.857  0.00  0.00    +0.000 A 
ATOM     17  C   UNL     1       7.396   1.218  -1.812  0.00  0.00    +0.000 A 
ATOM     18  C   UNL     1       7.841   1.374  -3.126  0.00  0.00    +0.000 A 
ATOM     19  C   UNL     1       9.102   0.907  -3.500  0.00  0.00    +0.000 A 
ATOM     20 CL   UNL     1       9.561   1.073  -5.157  0.00  0.00    +0.000 Cl
ATOM     21  C   UNL     1       9.934   0.315  -2.544  0.00  0.00    +0.000 A 
ATOM     22 CL   UNL     1      11.520  -0.256  -2.923  0.00  0.00    +0.000 Cl
ATOM     23  C   UNL     1       9.482   0.153  -1.228  0.00  0.00    +0.000 A 
ENDBRANCH  15  16
ENDBRANCH   3  15
TORSDOF 5
