REMARK  Name = 
REMARK  4 active torsions:
REMARK  status: ('A' for Active; 'I' for Inactive)
REMARK    1  A    between atoms: C_2  and  C_4
REMARK    2  A    between atoms: N_8  and  C_9
REMARK    3  A    between atoms: C_9  and  C_10
REMARK    4  A    between atoms: C_14  and  C_15
REMARK                            x       y       z     vdW  Elec       q    Type
REMARK                         _______ _______ _______ _____ _____    ______ ____
ROOT
ATOM      1  C   UNL     1       5.114  -5.656  -1.532  0.00  0.00    +0.000 C 
ENDROOT
BRANCH   1   6
ATOM      2  C   UNL     1       3.922  -5.236  -6.545  0.00  0.00    +0.000 A 
ATOM      3  C   UNL     1       3.537  -6.187  -5.607  0.00  0.00    +0.000 A 
ATOM      4  C   UNL     1       4.020  -6.086  -4.301  0.00  0.00    +0.000 A 
ATOM      5  C   UNL     1       4.878  -5.048  -3.956  0.00  0.00    +0.000 A 
ATOM      6  N   UNL     1       5.345  -4.834  -2.693  0.00  0.00    +0.000 N 
ATOM      7  N   UNL     1       5.279  -4.141  -4.870  0.00  0.00    +0.000 NA
ATOM      8  C   UNL     1       4.804  -4.251  -6.138  0.00  0.00    +0.000 A 
ATOM      9  H   UNL     1       6.029  -4.090  -2.643  0.00  0.00    +0.000 HD
BRANCH   2  11
ATOM     10  N   UNL     1       2.226  -5.841  -8.173  0.00  0.00    +0.000 N 
ATOM     11  C   UNL     1       3.432  -5.245  -7.939  0.00  0.00    +0.000 C 
ATOM     12  O   UNL     1       4.060  -4.710  -8.841  0.00  0.00    +0.000 OA
ATOM     13  H   UNL     1       1.849  -5.748  -9.106  0.00  0.00    +0.000 HD
ATOM     14  H   UNL     1       1.575  -6.069  -7.430  0.00  0.00    +0.000 HD
ENDBRANCH   2  11
ENDBRANCH   1   6
BRANCH   1  15
ATOM     15  C   UNL     1       6.095  -6.799  -1.443  0.00  0.00    +0.000 A 
ATOM     16  C   UNL     1       7.464  -6.555  -1.292  0.00  0.00    +0.000 A 
ATOM     17  C   UNL     1       8.355  -7.616  -1.157  0.00  0.00    +0.000 A 
ATOM     18  C   UNL     1       7.884  -8.932  -1.153  0.00  0.00    +0.000 A 
ATOM     19  C   UNL     1       6.513  -9.220  -1.269  0.00  0.00    +0.000 A 
ATOM     20  C   UNL     1       5.638  -8.130  -1.439  0.00  0.00    +0.000 A 
BRANCH  19  21
ATOM     21  C   UNL     1       5.992 -10.601  -1.124  0.00  0.00    +0.000 A 
ATOM     22  C   UNL     1       6.577 -11.498  -0.206  0.00  0.00    +0.000 A 
ATOM     23  C   UNL     1       6.046 -12.772   0.022  0.00  0.00    +0.000 A 
ATOM     24  C   UNL     1       4.908 -13.178  -0.663  0.00  0.00    +0.000 A 
ATOM     25  C   UNL     1       4.329 -12.316  -1.584  0.00  0.00    +0.000 A 
ATOM     26  F   UNL     1       3.225 -12.701  -2.239  0.00  0.00    +0.000 F 
ATOM     27  C   UNL     1       4.861 -11.051  -1.827  0.00  0.00    +0.000 A 
ENDBRANCH  19  21
ENDBRANCH   1  15
TORSDOF 4
