REMARK  Name = 
REMARK  3 active torsions:
REMARK  status: ('A' for Active; 'I' for Inactive)
REMARK    1  A    between atoms: C_2  and  C_4
REMARK    2  A    between atoms: N_8  and  C_9
REMARK    3  A    between atoms: C_9  and  C_10
REMARK                            x       y       z     vdW  Elec       q    Type
REMARK                         _______ _______ _______ _____ _____    ______ ____
ROOT
ATOM      1  C   UNL     1       8.293   2.644  -0.949  0.00  0.00    +0.000 A 
ATOM      2  C   UNL     1       8.445   3.477  -2.051  0.00  0.00    +0.000 A 
ATOM      3  C   UNL     1       7.427   3.537  -2.999  0.00  0.00    +0.000 A 
ATOM      4  C   UNL     1       6.275   2.770  -2.845  0.00  0.00    +0.000 A 
ATOM      5  N   UNL     1       5.228   2.783  -3.772  0.00  0.00    +0.000 N 
ATOM      6  N   UNL     1       6.126   1.944  -1.787  0.00  0.00    +0.000 NA
ATOM      7  C   UNL     1       7.133   1.889  -0.873  0.00  0.00    +0.000 A 
ATOM      8  H   UNL     1       4.463   2.221  -3.413  0.00  0.00    +0.000 HD
ENDROOT
BRANCH   1  10
ATOM      9  N   UNL     1      10.137   3.596   0.309  0.00  0.00    +0.000 N 
ATOM     10  C   UNL     1       9.314   2.521   0.108  0.00  0.00    +0.000 C 
ATOM     11  O   UNL     1       9.402   1.517   0.801  0.00  0.00    +0.000 OA
ATOM     12  H   UNL     1      10.769   3.538   1.098  0.00  0.00    +0.000 HD
ATOM     13  H   UNL     1       9.941   4.513  -0.066  0.00  0.00    +0.000 HD
ENDBRANCH   1  10
BRANCH   5  14
ATOM     14  C   UNL     1       4.967   3.873  -4.723  0.00  0.00    +0.000 C 
ATOM     15  C   UNL     1       4.699   5.276  -4.203  0.00  0.00    +0.000 C 
ATOM     16  C   UNL     1       3.563   4.472  -4.739  0.00  0.00    +0.000 C 
BRANCH  14  17
ATOM     17  C   UNL     1       5.625   3.704  -6.095  0.00  0.00    +0.000 A 
ATOM     18  C   UNL     1       5.101   2.810  -7.049  0.00  0.00    +0.000 A 
ATOM     19  C   UNL     1       5.647   2.712  -8.333  0.00  0.00    +0.000 A 
ATOM     20  C   UNL     1       6.743   3.492  -8.672  0.00  0.00    +0.000 A 
ATOM     21  F   UNL     1       7.254   3.419  -9.908  0.00  0.00    +0.000 F 
ATOM     22  C   UNL     1       7.309   4.358  -7.751  0.00  0.00    +0.000 A 
ATOM     23  C   UNL     1       6.748   4.465  -6.478  0.00  0.00    +0.000 A 
ENDBRANCH  14  17
ENDBRANCH   5  14
TORSDOF 3
