REMARK  Name = 
REMARK  7 active torsions:
REMARK  status: ('A' for Active; 'I' for Inactive)
REMARK    1  A    between atoms: C_2  and  C_20
REMARK    2  A    between atoms: N_3  and  C_4
REMARK    3  A    between atoms: C_4  and  C_5
REMARK    4  A    between atoms: C_8  and  C_9
REMARK    5  A    between atoms: C_9  and  O_10
REMARK    6  A    between atoms: O_10  and  C_11
REMARK    7  A    between atoms: C_11  and  C_12
REMARK                            x       y       z     vdW  Elec       q    Type
REMARK                         _______ _______ _______ _____ _____    ______ ____
ROOT
ATOM      1  C   UNL     1       2.295  -0.891  -2.427  0.00  0.00    +0.000 C 
ENDROOT
BRANCH   1   2
ATOM      2  C   UNL     1       3.256  -1.148  -3.554  0.00  0.00    +0.000 A 
ATOM      3  C   UNL     1       3.905  -0.104  -4.212  0.00  0.00    +0.000 A 
ATOM      4  C   UNL     1       4.796  -0.387  -5.246  0.00  0.00    +0.000 A 
ATOM      5  C   UNL     1       5.000  -1.714  -5.621  0.00  0.00    +0.000 A 
ATOM      6  N   UNL     1       4.332  -2.740  -5.036  0.00  0.00    +0.000 NA
ATOM      7  C   UNL     1       3.489  -2.437  -4.022  0.00  0.00    +0.000 A 
BRANCH   5   8
ATOM      8  C   UNL     1       5.998  -2.057  -6.703  0.00  0.00    +0.000 C 
BRANCH   8   9
ATOM      9  O   UNL     1       7.288  -1.573  -6.323  0.00  0.00    +0.000 OA
BRANCH   9  10
ATOM     10  C   UNL     1       8.292  -1.944  -7.268  0.00  0.00    +0.000 C 
BRANCH  10  11
ATOM     11  C   UNL     1       9.648  -1.450  -6.817  0.00  0.00    +0.000 A 
ATOM     12  C   UNL     1       9.975  -1.409  -5.474  0.00  0.00    +0.000 A 
ATOM     13  C   UNL     1      11.242  -0.956  -5.161  0.00  0.00    +0.000 A 
ATOM     14  N   UNL     1      12.142  -0.584  -6.088  0.00  0.00    +0.000 NA
ATOM     15  C   UNL     1      11.735  -0.677  -7.363  0.00  0.00    +0.000 A 
ATOM     16  N   UNL     1      10.530  -1.097  -7.781  0.00  0.00    +0.000 NA
ENDBRANCH  10  11
ENDBRANCH   9  10
ENDBRANCH   8   9
ENDBRANCH   5   8
ENDBRANCH   1   2
BRANCH   1  19
ATOM     17  O   UNL     1      -0.027  -0.122  -0.956  0.00  0.00    +0.000 OA
ATOM     18  C   UNL     1      -0.111  -0.440  -2.130  0.00  0.00    +0.000 C 
ATOM     19  N   UNL     1       0.969  -0.718  -2.947  0.00  0.00    +0.000 N 
ATOM     20  H   UNL     1       0.777  -1.195  -3.817  0.00  0.00    +0.000 HD
BRANCH  18  21
ATOM     21  C   UNL     1      -1.356  -0.815  -2.790  0.00  0.00    +0.000 A 
ATOM     22  C   UNL     1      -2.345  -1.549  -2.160  0.00  0.00    +0.000 A 
ATOM     23  S   UNL     1      -3.290  -2.417  -3.304  0.00  0.00    +0.000 S 
ATOM     24  C   UNL     1      -2.502  -1.663  -4.614  0.00  0.00    +0.000 A 
ATOM     25  N   UNL     1      -2.690  -2.043  -5.906  0.00  0.00    +0.000 NA
ATOM     26  C   UNL     1      -2.068  -1.308  -6.770  0.00  0.00    +0.000 A 
ATOM     27  N   UNL     1      -1.317  -0.197  -6.466  0.00  0.00    +0.000 N 
ATOM     28  C   UNL     1      -1.081   0.215  -5.176  0.00  0.00    +0.000 A 
ATOM     29  O   UNL     1      -0.447   1.232  -4.919  0.00  0.00    +0.000 OA
ATOM     30  C   UNL     1      -1.664  -0.659  -4.179  0.00  0.00    +0.000 A 
ATOM     31  H   UNL     1      -0.932   0.385  -7.196  0.00  0.00    +0.000 HD
ENDBRANCH  18  21
ENDBRANCH   1  19
TORSDOF 7
