REMARK  Name = 
REMARK  7 active torsions:
REMARK  status: ('A' for Active; 'I' for Inactive)
REMARK    1  A    between atoms: C_2  and  C_19
REMARK    2  A    between atoms: N_3  and  C_4
REMARK    3  A    between atoms: C_4  and  C_5
REMARK    4  A    between atoms: C_8  and  C_9
REMARK    5  A    between atoms: C_9  and  N_10
REMARK    6  A    between atoms: N_10  and  C_11
REMARK    7  A    between atoms: C_11  and  C_12
REMARK                            x       y       z     vdW  Elec       q    Type
REMARK                         _______ _______ _______ _____ _____    ______ ____
ROOT
ATOM      1  C   UNL     1       2.408  -0.058  -2.333  0.00  0.00    +0.000 C 
ENDROOT
BRANCH   1   2
ATOM      2  C   UNL     1       3.340  -0.111  -3.505  0.00  0.00    +0.000 A 
ATOM      3  C   UNL     1       3.811   1.049  -4.120  0.00  0.00    +0.000 A 
ATOM      4  C   UNL     1       4.678   0.955  -5.209  0.00  0.00    +0.000 A 
ATOM      5  C   UNL     1       5.042  -0.306  -5.679  0.00  0.00    +0.000 A 
ATOM      6  N   UNL     1       4.579  -1.445  -5.101  0.00  0.00    +0.000 NA
ATOM      7  C   UNL     1       3.742  -1.325  -4.047  0.00  0.00    +0.000 A 
BRANCH   5   8
ATOM      8  C   UNL     1       6.023  -0.435  -6.841  0.00  0.00    +0.000 C 
BRANCH   8   9
ATOM      9  N   UNL     1       5.812  -1.658  -7.620  0.00  0.00    +0.000 NA
ATOM     10  H   UNL     1       4.841  -1.698  -7.921  0.00  0.00    +0.000 HD
BRANCH   9  11
ATOM     11  C   UNL     1       6.739  -1.822  -8.731  0.00  0.00    +0.000 C 
BRANCH  11  12
ATOM     12  C   UNL     1       6.422  -3.131  -9.481  0.00  0.00    +0.000 C 
ATOM     13  C   UNL     1       6.586  -4.380  -8.616  0.00  0.00    +0.000 C 
ATOM     14  C   UNL     1       7.972  -4.878  -8.961  0.00  0.00    +0.000 C 
ATOM     15  N   UNL     1       8.086  -4.633 -10.401  0.00  0.00    +0.000 NA
ATOM     16  C   UNL     1       7.386  -3.364 -10.651  0.00  0.00    +0.000 C 
ATOM     17  H   UNL     1       7.589  -5.378 -10.891  0.00  0.00    +0.000 HD
ENDBRANCH  11  12
ENDBRANCH   9  11
ENDBRANCH   8   9
ENDBRANCH   5   8
ENDBRANCH   1   2
BRANCH   1  20
ATOM     18  O   UNL     1       0.813   2.234  -2.677  0.00  0.00    +0.000 OA
ATOM     19  C   UNL     1       0.341   1.134  -2.955  0.00  0.00    +0.000 C 
ATOM     20  N   UNL     1       1.031  -0.032  -2.757  0.00  0.00    +0.000 N 
ATOM     21  H   UNL     1       0.671  -0.891  -3.160  0.00  0.00    +0.000 HD
BRANCH  19  22
ATOM     22  C   UNL     1      -1.023   0.999  -3.482  0.00  0.00    +0.000 A 
ATOM     23  C   UNL     1      -1.954   2.003  -3.252  0.00  0.00    +0.000 A 
ATOM     24  S   UNL     1      -3.484   1.684  -3.935  0.00  0.00    +0.000 S 
ATOM     25  C   UNL     1      -2.943   0.214  -4.600  0.00  0.00    +0.000 A 
ATOM     26  N   UNL     1      -3.768  -0.557  -5.357  0.00  0.00    +0.000 NA
ATOM     27  C   UNL     1      -3.215  -1.622  -5.834  0.00  0.00    +0.000 A 
ATOM     28  N   UNL     1      -1.915  -1.994  -5.610  0.00  0.00    +0.000 N 
ATOM     29  C   UNL     1      -1.071  -1.289  -4.785  0.00  0.00    +0.000 A 
ATOM     30  O   UNL     1       0.036  -1.724  -4.486  0.00  0.00    +0.000 OA
ATOM     31  C   UNL     1      -1.625  -0.049  -4.273  0.00  0.00    +0.000 A 
ATOM     32  H   UNL     1      -1.553  -2.859  -5.983  0.00  0.00    +0.000 HD
ENDBRANCH  19  22
ENDBRANCH   1  20
TORSDOF 7
