REMARK  Name = 
REMARK  4 active torsions:
REMARK  status: ('A' for Active; 'I' for Inactive)
REMARK    1  A    between atoms: C_1  and  O_2
REMARK    2  A    between atoms: O_2  and  C_3
REMARK    3  A    between atoms: C_6  and  C_7
REMARK    4  A    between atoms: C_7  and  N_8
REMARK                            x       y       z     vdW  Elec       q    Type
REMARK                         _______ _______ _______ _____ _____    ______ ____
ROOT
ATOM      1  C   UNL     1       5.374  -3.615  -3.175  0.00  0.00    +0.000 C 
ENDROOT
BRANCH   1   2
ATOM      2  N   UNL     1       4.899  -3.740  -4.549  0.00  0.00    +0.000 N 
ATOM      3  C   UNL     1       5.320  -2.937  -5.585  0.00  0.00    +0.000 A 
ATOM      4  C   UNL     1       4.775  -3.427  -6.752  0.00  0.00    +0.000 A 
ATOM      5  C   UNL     1       4.006  -4.563  -6.417  0.00  0.00    +0.000 A 
ATOM      6  N   UNL     1       3.310  -5.384  -7.240  0.00  0.00    +0.000 NA
ATOM      7  C   UNL     1       2.677  -6.401  -6.623  0.00  0.00    +0.000 A 
ATOM      8  C   UNL     1       2.684  -6.646  -5.257  0.00  0.00    +0.000 A 
ATOM      9  C   UNL     1       3.404  -5.800  -4.418  0.00  0.00    +0.000 A 
ATOM     10  C   UNL     1       4.081  -4.741  -5.034  0.00  0.00    +0.000 A 
ENDBRANCH   1   2
BRANCH   1  14
ATOM     11  C   UNL     1       3.008  -0.858  -0.824  0.00  0.00    +0.000 A 
ATOM     12  C   UNL     1       2.668  -2.209  -0.879  0.00  0.00    +0.000 A 
ATOM     13  C   UNL     1       3.432  -3.097  -1.643  0.00  0.00    +0.000 A 
ATOM     14  C   UNL     1       4.546  -2.651  -2.365  0.00  0.00    +0.000 A 
ATOM     15  C   UNL     1       4.877  -1.291  -2.313  0.00  0.00    +0.000 A 
ATOM     16  C   UNL     1       4.115  -0.405  -1.545  0.00  0.00    +0.000 A 
BRANCH  11  18
ATOM     17  C   UNL     1       1.192  -0.303   0.603  0.00  0.00    +0.000 C 
ATOM     18  O   UNL     1       2.352   0.107  -0.109  0.00  0.00    +0.000 OA
ENDBRANCH  11  18
ENDBRANCH   1  14
TORSDOF 3
