REMARK  Name = 
REMARK  7 active torsions:
REMARK  status: ('A' for Active; 'I' for Inactive)
REMARK    1  A    between atoms: C_1  and  C_2
REMARK    2  A    between atoms: C_2  and  N_3
REMARK    3  A    between atoms: C_2  and  C_16
REMARK    4  A    between atoms: C_4  and  C_6
REMARK    5  A    between atoms: C_19  and  C_20
REMARK    6  A    between atoms: C_20  and  N_21
REMARK    7  A    between atoms: C_22  and  C_24
REMARK                            x       y       z     vdW  Elec       q    Type
REMARK                         _______ _______ _______ _____ _____    ______ ____
ROOT
ATOM      1  C   UNL     1       3.524  -0.057  -1.261  0.00  0.00    +0.000 C 
ATOM      2  C   UNL     1       2.538  -0.005  -0.087  0.00  0.00    +0.000 C 
ENDROOT
BRANCH   2   3
ATOM      3  C   UNL     1       2.924  -1.031   0.973  0.00  0.00    +0.000 A 
ATOM      4  C   UNL     1       3.306  -0.631   2.260  0.00  0.00    +0.000 A 
ATOM      5  C   UNL     1       3.614  -1.583   3.242  0.00  0.00    +0.000 A 
ATOM      6  C   UNL     1       3.553  -2.954   2.957  0.00  0.00    +0.000 A 
ATOM      7  C   UNL     1       3.170  -3.356   1.672  0.00  0.00    +0.000 A 
ATOM      8  C   UNL     1       2.866  -2.407   0.692  0.00  0.00    +0.000 A 
BRANCH   6   9
ATOM      9  C   UNL     1       3.846  -3.983   4.018  0.00  0.00    +0.000 C 
BRANCH   9  10
ATOM     10  N   UNL     1       2.656  -4.334   4.754  0.00  0.00    +0.000 N 
ATOM     11  C   UNL     1       2.672  -5.310   5.718  0.00  0.00    +0.000 C 
ATOM     12  O   UNL     1       3.689  -5.939   6.003  0.00  0.00    +0.000 OA
ATOM     13  H   UNL     1       1.813  -3.808   4.582  0.00  0.00    +0.000 HD
BRANCH  11  14
ATOM     14  C   UNL     1       1.405  -5.556   6.379  0.00  0.00    +0.000 A 
ATOM     15  C   UNL     1       0.145  -5.002   6.216  0.00  0.00    +0.000 A 
ATOM     16  C   UNL     1      -0.736  -5.629   7.131  0.00  0.00    +0.000 A 
ATOM     17  C   UNL     1      -0.003  -6.551   7.839  0.00  0.00    +0.000 A 
ATOM     18  N   UNL     1       1.287  -6.498   7.382  0.00  0.00    +0.000 N 
ATOM     19  H   UNL     1       2.059  -7.064   7.713  0.00  0.00    +0.000 HD
ENDBRANCH  11  14
ENDBRANCH   9  10
ENDBRANCH   6   9
ENDBRANCH   2   3
BRANCH   2  20
ATOM     20  N   UNL     1       1.160  -0.247  -0.493  0.00  0.00    +0.000 N 
ATOM     21  C   UNL     1       0.483   0.524  -1.403  0.00  0.00    +0.000 C 
ATOM     22  O   UNL     1       1.003   1.462  -1.998  0.00  0.00    +0.000 OA
ATOM     23  H   UNL     1       0.605  -0.789   0.163  0.00  0.00    +0.000 HD
BRANCH  21  24
ATOM     24  C   UNL     1      -0.901   0.122  -1.688  0.00  0.00    +0.000 A 
ATOM     25  C   UNL     1      -1.457   0.403  -2.928  0.00  0.00    +0.000 A 
ATOM     26  S   UNL     1      -3.066  -0.136  -3.096  0.00  0.00    +0.000 S 
ATOM     27  C   UNL     1      -3.090  -0.728  -1.501  0.00  0.00    +0.000 A 
ATOM     28  N   UNL     1      -4.214  -1.292  -0.981  0.00  0.00    +0.000 NA
ATOM     29  C   UNL     1      -4.102  -1.667   0.250  0.00  0.00    +0.000 A 
ATOM     30  N   UNL     1      -2.963  -1.542   1.003  0.00  0.00    +0.000 N 
ATOM     31  C   UNL     1      -1.793  -1.020   0.506  0.00  0.00    +0.000 A 
ATOM     32  O   UNL     1      -0.769  -0.990   1.182  0.00  0.00    +0.000 OA
ATOM     33  C   UNL     1      -1.876  -0.549  -0.862  0.00  0.00    +0.000 A 
ATOM     34  H   UNL     1      -2.935  -1.876   1.955  0.00  0.00    +0.000 HD
ENDBRANCH  21  24
ENDBRANCH   2  20
TORSDOF 6
