REMARK  Name = 
REMARK  5 active torsions:
REMARK  status: ('A' for Active; 'I' for Inactive)
REMARK    1  A    between atoms: C_8  and  C_9
REMARK    2  A    between atoms: N_11  and  C_12
REMARK    3  A    between atoms: C_12  and  C_13
REMARK    4  A    between atoms: C_16  and  O_17
REMARK    5  A    between atoms: O_17  and  C_18
REMARK                            x       y       z     vdW  Elec       q    Type
REMARK                         _______ _______ _______ _____ _____    ______ ____
ROOT
ATOM      1  C   UNL     1       7.994  -3.953  -1.608  0.00  0.00    +0.000 C 
ATOM      2  O   UNL     1       7.328  -4.482  -0.715  0.00  0.00    +0.000 OA
ATOM      3  N   UNL     1       8.743  -2.829  -1.361  0.00  0.00    +0.000 N 
ATOM      4  H   UNL     1       9.239  -2.367  -2.120  0.00  0.00    +0.000 HD
ENDROOT
BRANCH   1  12
ATOM      5  N   UNL     1       8.834  -5.552  -7.616  0.00  0.00    +0.000 N 
ATOM      6  C   UNL     1       9.107  -4.765  -6.532  0.00  0.00    +0.000 A 
ATOM      7  N   UNL     1       9.984  -3.806  -6.698  0.00  0.00    +0.000 NA
ATOM      8  N   UNL     1      10.259  -2.971  -5.637  0.00  0.00    +0.000 N 
ATOM      9  C   UNL     1       9.664  -2.994  -4.390  0.00  0.00    +0.000 A 
ATOM     10  O   UNL     1       9.912  -2.133  -3.552  0.00  0.00    +0.000 OA
ATOM     11  C   UNL     1       8.744  -4.097  -4.159  0.00  0.00    +0.000 A 
ATOM     12  C   UNL     1       8.021  -4.508  -2.971  0.00  0.00    +0.000 A 
ATOM     13  C   UNL     1       7.263  -5.640  -3.260  0.00  0.00    +0.000 A 
ATOM     14  S   UNL     1       7.421  -6.189  -4.869  0.00  0.00    +0.000 S 
ATOM     15  C   UNL     1       8.496  -4.935  -5.229  0.00  0.00    +0.000 A 
ATOM     16  H   UNL     1       9.540  -5.505  -8.341  0.00  0.00    +0.000 HD
ATOM     17  H   UNL     1       8.473  -6.479  -7.427  0.00  0.00    +0.000 HD
ATOM     18  H   UNL     1      10.908  -2.213  -5.822  0.00  0.00    +0.000 HD
ENDBRANCH   1  12
BRANCH   3  19
ATOM     19  C   UNL     1       8.791  -2.219  -0.055  0.00  0.00    +0.000 C 
BRANCH  19  20
ATOM     20  C   UNL     1       9.784  -1.092   0.022  0.00  0.00    +0.000 A 
ATOM     21  C   UNL     1      11.119  -1.321   0.365  0.00  0.00    +0.000 A 
ATOM     22  C   UNL     1      12.004  -0.247   0.477  0.00  0.00    +0.000 A 
ATOM     23  C   UNL     1      11.534   1.032   0.226  0.00  0.00    +0.000 A 
ATOM     24  N   UNL     1      10.258   1.291  -0.136  0.00  0.00    +0.000 NA
ATOM     25  C   UNL     1       9.420   0.226  -0.235  0.00  0.00    +0.000 A 
BRANCH  23  26
ATOM     26  O   UNL     1      12.444   2.072   0.373  0.00  0.00    +0.000 OA
BRANCH  26  27
ATOM     27  C   UNL     1      11.828   3.367   0.444  0.00  0.00    +0.000 C 
ATOM     28  C   UNL     1      12.892   4.460   0.400  0.00  0.00    +0.000 C 
ATOM     29  C   UNL     1      13.269   4.683   1.851  0.00  0.00    +0.000 C 
ATOM     30  N   UNL     1      12.060   4.432   2.635  0.00  0.00    +0.000 NA
ATOM     31  C   UNL     1      11.164   3.600   1.806  0.00  0.00    +0.000 C 
ATOM     32  H   UNL     1      11.592   5.313   2.844  0.00  0.00    +0.000 HD
ENDBRANCH  26  27
ENDBRANCH  23  26
ENDBRANCH  19  20
ENDBRANCH   3  19
TORSDOF 5
