REMARK  Name = 
REMARK  7 active torsions:
REMARK  status: ('A' for Active; 'I' for Inactive)
REMARK    1  A    between atoms: C_2  and  C_19
REMARK    2  A    between atoms: N_3  and  C_4
REMARK    3  A    between atoms: C_4  and  C_5
REMARK    4  A    between atoms: C_8  and  C_9
REMARK    5  A    between atoms: C_9  and  C_10
REMARK    6  A    between atoms: C_10  and  O_11
REMARK    7  A    between atoms: O_11  and  C_12
REMARK                            x       y       z     vdW  Elec       q    Type
REMARK                         _______ _______ _______ _____ _____    ______ ____
ROOT
ATOM      1  C   UNL     1       2.348   0.164  -2.386  0.00  0.00    +0.000 C 
ENDROOT
BRANCH   1   2
ATOM      2  C   UNL     1       3.336   0.344  -3.507  0.00  0.00    +0.000 A 
ATOM      3  C   UNL     1       3.636   1.628  -3.966  0.00  0.00    +0.000 A 
ATOM      4  C   UNL     1       4.551   1.819  -5.003  0.00  0.00    +0.000 A 
ATOM      5  C   UNL     1       5.184   0.730  -5.618  0.00  0.00    +0.000 A 
ATOM      6  C   UNL     1       4.861  -0.560  -5.171  0.00  0.00    +0.000 A 
ATOM      7  C   UNL     1       3.943  -0.753  -4.132  0.00  0.00    +0.000 A 
BRANCH   5   8
ATOM      8  C   UNL     1       6.196   0.889  -6.737  0.00  0.00    +0.000 C 
BRANCH   8   9
ATOM      9  C   UNL     1       6.472   2.331  -7.168  0.00  0.00    +0.000 C 
BRANCH   9  10
ATOM     10  O   UNL     1       7.413   2.363  -8.251  0.00  0.00    +0.000 OA
BRANCH  10  11
ATOM     11  C   UNL     1       7.725   3.612  -8.656  0.00  0.00    +0.000 C 
ATOM     12  N   UNL     1       7.204   4.705  -8.186  0.00  0.00    +0.000 NA
ATOM     13  C   UNL     1       7.806   5.767  -9.038  0.00  0.00    +0.000 C 
ATOM     14  C   UNL     1       8.743   5.073 -10.041  0.00  0.00    +0.000 C 
ATOM     15  N   UNL     1       8.643   3.689  -9.649  0.00  0.00    +0.000 N 
ATOM     16  H   UNL     1       8.559   2.979 -10.364  0.00  0.00    +0.000 HD
ENDBRANCH  10  11
ENDBRANCH   9  10
ENDBRANCH   8   9
ENDBRANCH   5   8
ENDBRANCH   1   2
BRANCH   1  19
ATOM     17  O   UNL     1       0.465   2.255  -2.629  0.00  0.00    +0.000 OA
ATOM     18  C   UNL     1       0.172   1.133  -3.034  0.00  0.00    +0.000 C 
ATOM     19  N   UNL     1       1.002   0.054  -2.892  0.00  0.00    +0.000 N 
ATOM     20  H   UNL     1       0.799  -0.798  -3.403  0.00  0.00    +0.000 HD
BRANCH  18  21
ATOM     21  C   UNL     1      -1.127   0.864  -3.663  0.00  0.00    +0.000 A 
ATOM     22  C   UNL     1      -2.202   1.706  -3.417  0.00  0.00    +0.000 A 
ATOM     23  S   UNL     1      -3.636   1.236  -4.212  0.00  0.00    +0.000 S 
ATOM     24  C   UNL     1      -2.858  -0.084  -4.951  0.00  0.00    +0.000 A 
ATOM     25  N   UNL     1      -3.528  -0.900  -5.808  0.00  0.00    +0.000 NA
ATOM     26  C   UNL     1      -2.805  -1.833  -6.331  0.00  0.00    +0.000 A 
ATOM     27  N   UNL     1      -1.477  -2.035  -6.063  0.00  0.00    +0.000 N 
ATOM     28  C   UNL     1      -0.782  -1.289  -5.142  0.00  0.00    +0.000 A 
ATOM     29  O   UNL     1       0.362  -1.592  -4.818  0.00  0.00    +0.000 OA
ATOM     30  C   UNL     1      -1.532  -0.187  -4.568  0.00  0.00    +0.000 A 
ATOM     31  H   UNL     1      -0.976  -2.806  -6.477  0.00  0.00    +0.000 HD
ENDBRANCH  18  21
ENDBRANCH   1  19
TORSDOF 7
