REMARK  Name = 
REMARK  7 active torsions:
REMARK  status: ('A' for Active; 'I' for Inactive)
REMARK    1  A    between atoms: C_1  and  O_2
REMARK    2  A    between atoms: O_2  and  C_3
REMARK    3  A    between atoms: C_5  and  C_6
REMARK    4  A    between atoms: C_6  and  O_7
REMARK    5  A    between atoms: O_7  and  C_8
REMARK    6  A    between atoms: C_11  and  C_12
REMARK    7  A    between atoms: C_18  and  N_19
REMARK                            x       y       z     vdW  Elec       q    Type
REMARK                         _______ _______ _______ _____ _____    ______ ____
ROOT
ATOM      1  C   UNL     1       3.158  -0.862   0.683  0.00  0.00    +0.000 A 
ATOM      2  C   UNL     1       2.748  -2.187   0.549  0.00  0.00    +0.000 A 
ATOM      3  C   UNL     1       3.585  -3.226   0.973  0.00  0.00    +0.000 A 
ATOM      4  C   UNL     1       4.844  -2.914   1.513  0.00  0.00    +0.000 A 
ATOM      5  C   UNL     1       5.286  -1.593   1.664  0.00  0.00    +0.000 A 
ATOM      6  C   UNL     1       4.411  -0.582   1.246  0.00  0.00    +0.000 A 
ENDROOT
BRANCH   5   7
ATOM      7  N   UNL     1       6.554  -1.330   2.153  0.00  0.00    +0.000 N 
ATOM      8  C   UNL     1       7.289  -0.125   1.771  0.00  0.00    +0.000 C 
ATOM      9  C   UNL     1       8.718  -0.535   1.444  0.00  0.00    +0.000 C 
ATOM     10  C   UNL     1       9.311  -1.312   2.600  0.00  0.00    +0.000 C 
ATOM     11  F   UNL     1      10.550  -1.753   2.253  0.00  0.00    +0.000 F 
ATOM     12  F   UNL     1       9.498  -0.470   3.654  0.00  0.00    +0.000 F 
ATOM     13  C   UNL     1       8.473  -2.492   3.050  0.00  0.00    +0.000 C 
ATOM     14  C   UNL     1       7.056  -2.027   3.338  0.00  0.00    +0.000 C 
ENDBRANCH   5   7
BRANCH   1  16
ATOM     15  C   UNL     1       1.202   0.023  -0.344  0.00  0.00    +0.000 C 
ATOM     16  O   UNL     1       2.447   0.244   0.304  0.00  0.00    +0.000 OA
ENDBRANCH   1  16
BRANCH   3  17
ATOM     17  C   UNL     1       3.168  -4.668   0.822  0.00  0.00    +0.000 C 
BRANCH  17  18
ATOM     18  O   UNL     1       3.564  -5.137  -0.465  0.00  0.00    +0.000 OA
BRANCH  18  19
ATOM     19  C   UNL     1       3.267  -6.440  -0.763  0.00  0.00    +0.000 A 
ATOM     20  C   UNL     1       2.654  -7.352   0.097  0.00  0.00    +0.000 A 
ATOM     21  C   UNL     1       2.402  -8.661  -0.331  0.00  0.00    +0.000 A 
ATOM     22  C   UNL     1       2.751  -9.068  -1.623  0.00  0.00    +0.000 A 
ATOM     23  C   UNL     1       3.378  -8.160  -2.483  0.00  0.00    +0.000 A 
ATOM     24  C   UNL     1       3.632  -6.852  -2.048  0.00  0.00    +0.000 A 
BRANCH  22  25
ATOM     25  C   UNL     1       2.455 -10.470  -2.015  0.00  0.00    +0.000 C 
ATOM     26  N   UNL     1       2.312 -10.736  -3.349  0.00  0.00    +0.000 N 
ATOM     27  O   UNL     1       2.307 -11.354  -1.181  0.00  0.00    +0.000 OA
ATOM     28  H   UNL     1       2.189 -10.011  -4.042  0.00  0.00    +0.000 HD
ATOM     29  H   UNL     1       2.000 -11.670  -3.586  0.00  0.00    +0.000 HD
ENDBRANCH  22  25
ENDBRANCH  18  19
ENDBRANCH  17  18
ENDBRANCH   3  17
TORSDOF 6
