REMARK  Name = 
REMARK  6 active torsions:
REMARK  status: ('A' for Active; 'I' for Inactive)
REMARK    1  A    between atoms: C_1  and  O_2
REMARK    2  A    between atoms: O_2  and  C_3
REMARK    3  A    between atoms: C_5  and  C_6
REMARK    4  A    between atoms: C_11  and  N_12
REMARK    5  A    between atoms: N_12  and  C_13
REMARK    6  A    between atoms: C_13  and  C_14
REMARK                            x       y       z     vdW  Elec       q    Type
REMARK                         _______ _______ _______ _____ _____    ______ ____
ROOT
ATOM      1  C   UNL     1       3.413  -0.839   1.144  0.00  0.00    +0.000 A 
ATOM      2  C   UNL     1       3.116  -1.795   2.131  0.00  0.00    +0.000 A 
ATOM      3  C   UNL     1       3.464  -1.581   3.466  0.00  0.00    +0.000 A 
ATOM      4  C   UNL     1       4.101  -0.395   3.764  0.00  0.00    +0.000 A 
ATOM      5  N   UNL     1       4.427   0.541   2.838  0.00  0.00    +0.000 NA
ATOM      6  C   UNL     1       4.088   0.328   1.540  0.00  0.00    +0.000 A 
ENDROOT
BRANCH   3   7
ATOM      7  C   UNL     1       3.164  -2.644   4.460  0.00  0.00    +0.000 C 
ATOM      8  N   UNL     1       3.477  -2.436   5.778  0.00  0.00    +0.000 N 
ATOM      9  O   UNL     1       2.647  -3.698   4.122  0.00  0.00    +0.000 OA
ATOM     10  H   UNL     1       3.897  -1.607   6.168  0.00  0.00    +0.000 HD
ATOM     11  H   UNL     1       3.262  -3.193   6.412  0.00  0.00    +0.000 HD
ENDBRANCH   3   7
BRANCH   1  13
ATOM     12  C   UNL     1       2.246  -2.076  -0.531  0.00  0.00    +0.000 C 
ATOM     13  O   UNL     1       3.157  -1.041  -0.184  0.00  0.00    +0.000 OA
ENDBRANCH   1  13
BRANCH   6  14
ATOM     14  N   UNL     1       4.524   1.359   0.713  0.00  0.00    +0.000 N 
ATOM     15  H   UNL     1       5.092   1.993   1.263  0.00  0.00    +0.000 HD
BRANCH  14  16
ATOM     16  C   UNL     1       4.031   1.805  -0.592  0.00  0.00    +0.000 C 
ATOM     17  C   UNL     1       3.782   3.316  -0.657  0.00  0.00    +0.000 C 
ATOM     18  C   UNL     1       2.642   2.376  -0.835  0.00  0.00    +0.000 C 
BRANCH  16  19
ATOM     19  C   UNL     1       4.716   1.124  -1.765  0.00  0.00    +0.000 A 
ATOM     20  C   UNL     1       6.112   1.142  -1.915  0.00  0.00    +0.000 A 
ATOM     21  C   UNL     1       6.742   0.398  -2.921  0.00  0.00    +0.000 A 
ATOM     22  C   UNL     1       5.980  -0.369  -3.806  0.00  0.00    +0.000 A 
ATOM     23 CL   UNL     1       6.816  -1.310  -4.987  0.00  0.00    +0.000 Cl
ATOM     24  C   UNL     1       4.590  -0.373  -3.703  0.00  0.00    +0.000 A 
ATOM     25 CL   UNL     1       3.568  -1.290  -4.749  0.00  0.00    +0.000 Cl
ATOM     26  C   UNL     1       3.977   0.370  -2.697  0.00  0.00    +0.000 A 
ENDBRANCH  16  19
ENDBRANCH  14  16
ENDBRANCH   6  14
TORSDOF 5
