REMARK  Name = 
REMARK  6 active torsions:
REMARK  status: ('A' for Active; 'I' for Inactive)
REMARK    1  A    between atoms: C_2  and  C_25
REMARK    2  A    between atoms: N_3  and  C_4
REMARK    3  A    between atoms: C_4  and  C_5
REMARK    4  A    between atoms: C_8  and  C_9
REMARK    5  A    between atoms: C_9  and  N_10
REMARK    6  A    between atoms: C_11  and  C_13
REMARK                            x       y       z     vdW  Elec       q    Type
REMARK                         _______ _______ _______ _____ _____    ______ ____
ROOT
ATOM      1  C   UNL     1       3.123  -2.896   2.359  0.00  0.00    +0.000 A 
ATOM      2  C   UNL     1       4.103  -2.346   3.197  0.00  0.00    +0.000 A 
ATOM      3  C   UNL     1       4.936  -3.174   3.960  0.00  0.00    +0.000 A 
ATOM      4  C   UNL     1       4.819  -4.568   3.886  0.00  0.00    +0.000 A 
ATOM      5  C   UNL     1       3.835  -5.116   3.052  0.00  0.00    +0.000 A 
ATOM      6  C   UNL     1       3.004  -4.290   2.289  0.00  0.00    +0.000 A 
ENDROOT
BRANCH   1   7
ATOM      7  C   UNL     1       2.199  -2.009   1.569  0.00  0.00    +0.000 C 
BRANCH   7  10
ATOM      8  O   UNL     1       0.885  -0.420  -0.255  0.00  0.00    +0.000 OA
ATOM      9  C   UNL     1       2.002  -0.831  -0.573  0.00  0.00    +0.000 C 
ATOM     10  N   UNL     1       2.730  -1.643   0.281  0.00  0.00    +0.000 N 
ATOM     11  H   UNL     1       3.652  -1.949  -0.017  0.00  0.00    +0.000 HD
BRANCH   9  12
ATOM     12  C   UNL     1       2.672  -0.521  -1.834  0.00  0.00    +0.000 A 
ATOM     13  N   UNL     1       3.861  -0.993  -2.168  0.00  0.00    +0.000 NA
ATOM     14  C   UNL     1       4.206  -0.510  -3.419  0.00  0.00    +0.000 A 
ATOM     15  C   UNL     1       3.286   0.325  -4.016  0.00  0.00    +0.000 A 
ATOM     16  S   UNL     1       1.928   0.513  -2.988  0.00  0.00    +0.000 S 
ENDBRANCH   9  12
ENDBRANCH   7  10
ENDBRANCH   1   7
BRANCH   4  17
ATOM     17  C   UNL     1       5.701  -5.467   4.713  0.00  0.00    +0.000 C 
BRANCH  17  18
ATOM     18  N   UNL     1       5.095  -5.768   5.987  0.00  0.00    +0.000 N 
ATOM     19  C   UNL     1       5.760  -6.505   6.934  0.00  0.00    +0.000 C 
ATOM     20  O   UNL     1       6.912  -6.896   6.763  0.00  0.00    +0.000 OA
ATOM     21  H   UNL     1       4.088  -5.661   6.055  0.00  0.00    +0.000 HD
BRANCH  19  22
ATOM     22  C   UNL     1       5.048  -6.753   8.195  0.00  0.00    +0.000 A 
ATOM     23  C   UNL     1       5.768  -7.046   9.346  0.00  0.00    +0.000 A 
ATOM     24  S   UNL     1       4.794  -7.250  10.730  0.00  0.00    +0.000 S 
ATOM     25  C   UNL     1       3.371  -7.009   9.831  0.00  0.00    +0.000 A 
ATOM     26  N   UNL     1       2.149  -7.079  10.425  0.00  0.00    +0.000 NA
ATOM     27  C   UNL     1       1.153  -6.909   9.620  0.00  0.00    +0.000 A 
ATOM     28  N   UNL     1       1.269  -6.670   8.274  0.00  0.00    +0.000 N 
ATOM     29  C   UNL     1       2.482  -6.568   7.636  0.00  0.00    +0.000 A 
ATOM     30  O   UNL     1       2.552  -6.322   6.436  0.00  0.00    +0.000 OA
ATOM     31  C   UNL     1       3.635  -6.760   8.496  0.00  0.00    +0.000 A 
ATOM     32  H   UNL     1       0.449  -6.543   7.700  0.00  0.00    +0.000 HD
ENDBRANCH  19  22
ENDBRANCH  17  18
ENDBRANCH   4  17
TORSDOF 6
