REMARK  Name = 
REMARK  11 active torsions:
REMARK  status: ('A' for Active; 'I' for Inactive)
REMARK    1  A    between atoms: N_1  and  C_2
REMARK    2  A    between atoms: C_2  and  C_3
REMARK    3  A    between atoms: C_3  and  N_4
REMARK    4  A    between atoms: N_4  and  C_5
REMARK    5  A    between atoms: C_5  and  C_6
REMARK    6  A    between atoms: C_9  and  C_10
REMARK    7  A    between atoms: C_10  and  O_11
REMARK    8  A    between atoms: O_11  and  C_12
REMARK    9  A    between atoms: C_15  and  C_16
REMARK   10  A    between atoms: C_16  and  N_17
REMARK   11  A    between atoms: C_18  and  C_20
REMARK                            x       y       z     vdW  Elec       q    Type
REMARK                         _______ _______ _______ _____ _____    ______ ____
ROOT
ATOM      1  C   UNL     1      12.588  -3.106   0.299  0.00  0.00    +0.000 A 
ATOM      2  C   UNL     1      13.305  -1.962  -0.009  0.00  0.00    +0.000 A 
ATOM      3  C   UNL     1      14.685  -1.974   0.185  0.00  0.00    +0.000 A 
ATOM      4  C   UNL     1      15.300  -3.110   0.720  0.00  0.00    +0.000 A 
ATOM      5  C   UNL     1      14.487  -4.203   0.998  0.00  0.00    +0.000 A 
ATOM      6  N   UNL     1      13.150  -4.227   0.796  0.00  0.00    +0.000 NA
ENDROOT
BRANCH   1   7
ATOM      7  O   UNL     1      11.221  -3.057   0.111  0.00  0.00    +0.000 OA
BRANCH   7   8
ATOM      8  C   UNL     1      10.658  -4.361  -0.053  0.00  0.00    +0.000 C 
BRANCH   8  12
ATOM      9  C   UNL     1       6.417  -4.048  -0.339  0.00  0.00    +0.000 A 
ATOM     10  C   UNL     1       6.957  -4.914   0.607  0.00  0.00    +0.000 A 
ATOM     11  C   UNL     1       8.341  -5.019   0.709  0.00  0.00    +0.000 A 
ATOM     12  C   UNL     1       9.159  -4.259  -0.128  0.00  0.00    +0.000 A 
ATOM     13  C   UNL     1       8.533  -3.430  -1.051  0.00  0.00    +0.000 A 
ATOM     14  N   UNL     1       7.190  -3.306  -1.175  0.00  0.00    +0.000 NA
BRANCH   9  15
ATOM     15  C   UNL     1       4.916  -3.833  -0.391  0.00  0.00    +0.000 C 
BRANCH  15  16
ATOM     16  N   UNL     1       4.346  -3.235   0.836  0.00  0.00    +0.000 NA
ATOM     17  H   UNL     1       3.363  -3.037   0.629  0.00  0.00    +0.000 HD
BRANCH  16  18
ATOM     18  C   UNL     1       4.959  -1.930   1.153  0.00  0.00    +0.000 C 
BRANCH  18  19
ATOM     19  C   UNL     1       4.681  -0.838   0.101  0.00  0.00    +0.000 C 
BRANCH  19  20
ATOM     20  N   UNL     1       3.240  -0.686  -0.137  0.00  0.00    +0.000 NA
ATOM     21  H   UNL     1       3.102   0.034  -0.844  0.00  0.00    +0.000 HD
ATOM     22  H   UNL     1       2.804  -0.334   0.715  0.00  0.00    +0.000 HD
ENDBRANCH  19  20
ENDBRANCH  18  19
ENDBRANCH  16  18
ENDBRANCH  15  16
ENDBRANCH   9  15
ENDBRANCH   8  12
ENDBRANCH   7   8
ENDBRANCH   1   7
BRANCH   4  23
ATOM     23  C   UNL     1      16.784  -3.183   0.932  0.00  0.00    +0.000 C 
BRANCH  23  24
ATOM     24  N   UNL     1      17.437  -3.714  -0.236  0.00  0.00    +0.000 N 
ATOM     25  C   UNL     1      18.770  -4.036  -0.235  0.00  0.00    +0.000 C 
ATOM     26  O   UNL     1      19.461  -3.939   0.776  0.00  0.00    +0.000 OA
ATOM     27  H   UNL     1      16.966  -3.579  -1.125  0.00  0.00    +0.000 HD
BRANCH  25  28
ATOM     28  C   UNL     1      19.311  -4.565  -1.493  0.00  0.00    +0.000 A 
ATOM     29  C   UNL     1      20.467  -5.336  -1.477  0.00  0.00    +0.000 A 
ATOM     30  S   UNL     1      20.914  -5.929  -3.013  0.00  0.00    +0.000 S 
ATOM     31  C   UNL     1      19.611  -5.130  -3.762  0.00  0.00    +0.000 A 
ATOM     32  N   UNL     1      19.418  -5.213  -5.103  0.00  0.00    +0.000 NA
ATOM     33  C   UNL     1      18.408  -4.535  -5.542  0.00  0.00    +0.000 A 
ATOM     34  N   UNL     1      17.574  -3.785  -4.757  0.00  0.00    +0.000 N 
ATOM     35  C   UNL     1      17.715  -3.692  -3.393  0.00  0.00    +0.000 A 
ATOM     36  O   UNL     1      16.929  -3.039  -2.717  0.00  0.00    +0.000 OA
ATOM     37  C   UNL     1      18.839  -4.432  -2.851  0.00  0.00    +0.000 A 
ATOM     38  H   UNL     1      16.798  -3.281  -5.162  0.00  0.00    +0.000 HD
ENDBRANCH  25  28
ENDBRANCH  23  24
ENDBRANCH   4  23
TORSDOF 11
