REMARK  Name = 
REMARK  10 active torsions:
REMARK  status: ('A' for Active; 'I' for Inactive)
REMARK    1  A    between atoms: C_1  and  C_2
REMARK    2  A    between atoms: C_2  and  N_3
REMARK    3  A    between atoms: C_2  and  C_20
REMARK    4  A    between atoms: N_3  and  C_4
REMARK    5  A    between atoms: C_4  and  C_5
REMARK    6  A    between atoms: C_8  and  C_9
REMARK    7  A    between atoms: C_9  and  N_10
REMARK    8  A    between atoms: N_10  and  C_11
REMARK    9  A    between atoms: C_11  and  C_12
REMARK   10  A    between atoms: N_15  and  C_16
REMARK                            x       y       z     vdW  Elec       q    Type
REMARK                         _______ _______ _______ _____ _____    ______ ____
ROOT
ATOM      1  C   UNL     1       2.580  -2.436  -0.675  0.00  0.00    +0.000 C 
ENDROOT
BRANCH   1   2
ATOM      2  C   UNL     1       3.060  -3.428  -1.700  0.00  0.00    +0.000 A 
ATOM      3  C   UNL     1       3.915  -3.086  -2.748  0.00  0.00    +0.000 A 
ATOM      4  C   UNL     1       4.280  -4.048  -3.687  0.00  0.00    +0.000 A 
ATOM      5  C   UNL     1       3.829  -5.376  -3.580  0.00  0.00    +0.000 A 
ATOM      6  C   UNL     1       2.978  -5.716  -2.526  0.00  0.00    +0.000 A 
ATOM      7  C   UNL     1       2.606  -4.755  -1.594  0.00  0.00    +0.000 A 
BRANCH   5   8
ATOM      8  C   UNL     1       4.172  -6.428  -4.609  0.00  0.00    +0.000 C 
BRANCH   8   9
ATOM      9  N   UNL     1       5.463  -6.157  -5.230  0.00  0.00    +0.000 NA
ATOM     10  H   UNL     1       6.178  -6.046  -4.512  0.00  0.00    +0.000 HD
BRANCH   9  11
ATOM     11  C   UNL     1       5.838  -7.163  -6.213  0.00  0.00    +0.000 C 
BRANCH  11  12
ATOM     12  C   UNL     1       7.213  -6.828  -6.815  0.00  0.00    +0.000 C 
ATOM     13  C   UNL     1       7.284  -5.457  -7.517  0.00  0.00    +0.000 C 
ATOM     14  C   UNL     1       7.724  -5.758  -8.940  0.00  0.00    +0.000 C 
ATOM     15  N   UNL     1       7.228  -7.118  -9.139  0.00  0.00    +0.000 NA
ATOM     16  C   UNL     1       7.767  -7.731 -10.339  0.00  0.00    +0.000 C 
ATOM     17  C   UNL     1       7.589  -7.829  -7.912  0.00  0.00    +0.000 C 
ENDBRANCH  11  12
ENDBRANCH   9  11
ENDBRANCH   8   9
ENDBRANCH   5   8
ENDBRANCH   1   2
BRANCH   1  18
ATOM     18  N   UNL     1       1.784  -1.342  -1.243  0.00  0.00    +0.000 NA
ATOM     19  H   UNL     1       2.382  -0.834  -1.891  0.00  0.00    +0.000 HD
BRANCH  18  21
ATOM     20  C   UNL     1       0.419  -1.119   0.812  0.00  0.00    +0.000 C 
ATOM     21  C   UNL     1       1.310  -0.389  -0.214  0.00  0.00    +0.000 C 
BRANCH  21  22
ATOM     22  C   UNL     1       0.573   0.768  -0.915  0.00  0.00    +0.000 A 
ATOM     23  C   UNL     1      -0.162   0.648  -2.090  0.00  0.00    +0.000 A 
ATOM     24  S   UNL     1      -0.922   2.093  -2.593  0.00  0.00    +0.000 S 
ATOM     25  C   UNL     1      -0.312   2.947  -1.257  0.00  0.00    +0.000 A 
ATOM     26  N   UNL     1      -0.640   4.249  -1.053  0.00  0.00    +0.000 NA
ATOM     27  C   UNL     1      -0.173   4.750   0.045  0.00  0.00    +0.000 A 
ATOM     28  N   UNL     1       0.621   4.068   0.931  0.00  0.00    +0.000 N 
ATOM     29  C   UNL     1       1.164   2.852   0.623  0.00  0.00    +0.000 A 
ATOM     30  O   UNL     1       2.175   2.443   1.215  0.00  0.00    +0.000 OA
ATOM     31  C   UNL     1       0.524   2.159  -0.477  0.00  0.00    +0.000 A 
ATOM     32  H   UNL     1       1.037   4.555   1.715  0.00  0.00    +0.000 HD
ENDBRANCH  21  22
ENDBRANCH  18  21
ENDBRANCH   1  18
TORSDOF 8
