REMARK  Name = 
REMARK  6 active torsions:
REMARK  status: ('A' for Active; 'I' for Inactive)
REMARK    1  A    between atoms: N_1  and  C_2
REMARK    2  A    between atoms: C_2  and  C_3
REMARK    3  A    between atoms: C_6  and  C_7
REMARK    4  A    between atoms: C_7  and  N_8
REMARK    5  A    between atoms: N_8  and  C_9
REMARK    6  A    between atoms: C_13  and  C_14
REMARK                            x       y       z     vdW  Elec       q    Type
REMARK                         _______ _______ _______ _____ _____    ______ ____
ROOT
ATOM      1  N   UNL     1       3.611   5.626   2.882  0.00  0.00    +0.000 N 
ATOM      2  H   UNL     1       2.718   5.722   2.398  0.00  0.00    +0.000 HD
ENDROOT
BRANCH   1   3
ATOM      3  C   UNL     1       3.832   6.757   3.687  0.00  0.00    +0.000 A 
ATOM      4  C   UNL     1       4.686   6.751   4.790  0.00  0.00    +0.000 A 
ATOM      5  C   UNL     1       4.899   7.931   5.492  0.00  0.00    +0.000 A 
ATOM      6  N   UNL     1       4.336   9.114   5.170  0.00  0.00    +0.000 NA
ATOM      7  C   UNL     1       3.534   9.107   4.071  0.00  0.00    +0.000 A 
ATOM      8  C   UNL     1       3.276   7.979   3.304  0.00  0.00    +0.000 A 
BRANCH   7   9
ATOM      9  C   UNL     1       2.888  10.405   3.688  0.00  0.00    +0.000 C 
ATOM     10  N   UNL     1       3.188  11.468   4.501  0.00  0.00    +0.000 N 
ATOM     11  O   UNL     1       2.145  10.516   2.732  0.00  0.00    +0.000 OA
ATOM     12  H   UNL     1       3.808  11.335   5.291  0.00  0.00    +0.000 HD
ATOM     13  H   UNL     1       2.782  12.370   4.306  0.00  0.00    +0.000 HD
ENDBRANCH   7   9
ENDBRANCH   1   3
BRANCH   1  14
ATOM     14  C   UNL     1       3.701   4.315   3.527  0.00  0.00    +0.000 C 
BRANCH  14  18
ATOM     15  C   UNL     1       2.845   1.159   0.666  0.00  0.00    +0.000 A 
ATOM     16  C   UNL     1       4.165   1.569   0.889  0.00  0.00    +0.000 A 
ATOM     17  C   UNL     1       4.456   2.571   1.819  0.00  0.00    +0.000 A 
ATOM     18  C   UNL     1       3.432   3.195   2.546  0.00  0.00    +0.000 A 
ATOM     19  C   UNL     1       2.113   2.759   2.343  0.00  0.00    +0.000 A 
ATOM     20  C   UNL     1       1.824   1.750   1.417  0.00  0.00    +0.000 A 
BRANCH  15  21
ATOM     21  C   UNL     1       2.544   0.135  -0.398  0.00  0.00    +0.000 C 
BRANCH  21  22
ATOM     22  N   UNL     1       3.254  -1.111  -0.137  0.00  0.00    +0.000 NA
ATOM     23  H   UNL     1       2.912  -1.832  -0.767  0.00  0.00    +0.000 HD
ATOM     24  H   UNL     1       3.038  -1.420   0.810  0.00  0.00    +0.000 HD
ENDBRANCH  21  22
ENDBRANCH  15  21
ENDBRANCH  14  18
ENDBRANCH   1  14
TORSDOF 6
