REMARK  Name = 
REMARK  5 active torsions:
REMARK  status: ('A' for Active; 'I' for Inactive)
REMARK    1  A    between atoms: C_2  and  C_19
REMARK    2  A    between atoms: N_3  and  C_4
REMARK    3  A    between atoms: C_4  and  C_5
REMARK    4  A    between atoms: C_8  and  C_9
REMARK    5  A    between atoms: C_10  and  C_11
REMARK                            x       y       z     vdW  Elec       q    Type
REMARK                         _______ _______ _______ _____ _____    ______ ____
ROOT
ATOM      1  O   UNL     1       1.580   1.426  -3.190  0.00  0.00    +0.000 OA
ATOM      2  C   UNL     1       0.777   0.494  -3.227  0.00  0.00    +0.000 C 
ATOM      3  N   UNL     1       1.074  -0.752  -2.738  0.00  0.00    +0.000 N 
ATOM      4  H   UNL     1       0.534  -1.551  -3.058  0.00  0.00    +0.000 HD
ENDROOT
BRANCH   2   5
ATOM      5  C   UNL     1      -0.569   0.673  -3.755  0.00  0.00    +0.000 A 
ATOM      6  C   UNL     1      -1.212   1.900  -3.706  0.00  0.00    +0.000 A 
ATOM      7  S   UNL     1      -2.784   1.862  -4.381  0.00  0.00    +0.000 S 
ATOM      8  C   UNL     1      -2.631   0.213  -4.779  0.00  0.00    +0.000 A 
ATOM      9  N   UNL     1      -3.636  -0.465  -5.400  0.00  0.00    +0.000 NA
ATOM     10  C   UNL     1      -3.362  -1.699  -5.656  0.00  0.00    +0.000 A 
ATOM     11  N   UNL     1      -2.185  -2.325  -5.356  0.00  0.00    +0.000 N 
ATOM     12  C   UNL     1      -1.169  -1.702  -4.686  0.00  0.00    +0.000 A 
ATOM     13  O   UNL     1      -0.177  -2.326  -4.339  0.00  0.00    +0.000 OA
ATOM     14  C   UNL     1      -1.411  -0.301  -4.393  0.00  0.00    +0.000 A 
ATOM     15  H   UNL     1      -2.037  -3.303  -5.549  0.00  0.00    +0.000 HD
ENDBRANCH   2   5
BRANCH   3  16
ATOM     16  C   UNL     1       2.387  -1.069  -2.223  0.00  0.00    +0.000 C 
BRANCH  16  17
ATOM     17  C   UNL     1       3.320  -1.582  -3.294  0.00  0.00    +0.000 A 
ATOM     18  C   UNL     1       4.096  -0.685  -4.023  0.00  0.00    +0.000 A 
ATOM     19  C   UNL     1       4.952  -1.172  -5.008  0.00  0.00    +0.000 A 
ATOM     20  C   UNL     1       5.026  -2.541  -5.260  0.00  0.00    +0.000 A 
ATOM     21  C   UNL     1       4.196  -3.358  -4.495  0.00  0.00    +0.000 A 
ATOM     22  N   UNL     1       3.356  -2.919  -3.523  0.00  0.00    +0.000 NA
BRANCH  20  23
ATOM     23  C   UNL     1       5.873  -3.122  -6.312  0.00  0.00    +0.000 C 
ATOM     24  C   UNL     1       7.041  -2.599  -6.722  0.00  0.00    +0.000 C 
BRANCH  24  25
ATOM     25  C   UNL     1       7.885  -3.174  -7.781  0.00  0.00    +0.000 A 
ATOM     26  C   UNL     1       7.356  -3.907  -8.851  0.00  0.00    +0.000 A 
ATOM     27  C   UNL     1       8.185  -4.379  -9.870  0.00  0.00    +0.000 A 
ATOM     28  C   UNL     1       9.552  -4.115  -9.836  0.00  0.00    +0.000 A 
ATOM     29  C   UNL     1      10.092  -3.381  -8.782  0.00  0.00    +0.000 A 
ATOM     30  C   UNL     1       9.263  -2.912  -7.761  0.00  0.00    +0.000 A 
ENDBRANCH  24  25
ENDBRANCH  20  23
ENDBRANCH  16  17
ENDBRANCH   3  16
TORSDOF 5
