REMARK  Name = 
REMARK  7 active torsions:
REMARK  status: ('A' for Active; 'I' for Inactive)
REMARK    1  A    between atoms: N_1  and  C_2
REMARK    2  A    between atoms: C_2  and  C_3
REMARK    3  A    between atoms: C_6  and  O_7
REMARK    4  A    between atoms: O_7  and  C_8
REMARK    5  A    between atoms: C_8  and  C_9
REMARK    6  A    between atoms: C_9  and  O_10
REMARK    7  A    between atoms: C_9  and  C_11
REMARK                            x       y       z     vdW  Elec       q    Type
REMARK                         _______ _______ _______ _____ _____    ______ ____
ROOT
ATOM      1  C   UNL     1       2.889   1.116   1.029  0.00  0.00    +0.000 A 
ATOM      2  C   UNL     1       3.610   0.775   2.186  0.00  0.00    +0.000 A 
ATOM      3  C   UNL     1       3.944   1.746   3.134  0.00  0.00    +0.000 A 
ATOM      4  C   UNL     1       3.560   3.075   2.956  0.00  0.00    +0.000 A 
ATOM      5  C   UNL     1       2.852   3.428   1.808  0.00  0.00    +0.000 A 
ATOM      6  C   UNL     1       2.516   2.457   0.856  0.00  0.00    +0.000 A 
ATOM      7 CL   UNL     1       1.602   2.980  -0.517  0.00  0.00    +0.000 Cl
ENDROOT
BRANCH   1   8
ATOM      8  C   UNL     1       2.492   0.029   0.064  0.00  0.00    +0.000 C 
BRANCH   8   9
ATOM      9  N   UNL     1       1.191  -0.528   0.415  0.00  0.00    +0.000 NA
ATOM     10  H   UNL     1       0.903  -1.181  -0.311  0.00  0.00    +0.000 HD
ATOM     11  H   UNL     1       0.499   0.222   0.403  0.00  0.00    +0.000 HD
ENDBRANCH   8   9
ENDBRANCH   1   8
BRANCH   4  12
ATOM     12  O   UNL     1       3.909   3.925   3.970  0.00  0.00    +0.000 OA
BRANCH  12  13
ATOM     13  C   UNL     1       3.595   5.313   3.784  0.00  0.00    +0.000 C 
BRANCH  13  14
ATOM     14  C   UNL     1       4.088   6.146   4.984  0.00  0.00    +0.000 C 
BRANCH  14  15
ATOM     15  C   UNL     1       5.592   6.214   5.128  0.00  0.00    +0.000 A 
ATOM     16  C   UNL     1       6.254   7.442   5.029  0.00  0.00    +0.000 A 
ATOM     17  C   UNL     1       7.634   7.473   5.168  0.00  0.00    +0.000 A 
ATOM     18  N   UNL     1       8.392   6.381   5.394  0.00  0.00    +0.000 NA
ATOM     19  C   UNL     1       7.739   5.206   5.497  0.00  0.00    +0.000 A 
ATOM     20  C   UNL     1       6.364   5.075   5.378  0.00  0.00    +0.000 A 
ENDBRANCH  14  15
BRANCH  14  21
ATOM     21  O   UNL     1       3.523   5.667   6.205  0.00  0.00    +0.000 OA
ATOM     22  H   UNL     1       3.662   4.703   6.211  0.00  0.00    +0.000 HD
ENDBRANCH  14  21
ENDBRANCH  13  14
ENDBRANCH  12  13
ENDBRANCH   4  12
TORSDOF 7
