REMARK  Name = 
REMARK  8 active torsions:
REMARK  status: ('A' for Active; 'I' for Inactive)
REMARK    1  A    between atoms: C_1  and  O_2
REMARK    2  A    between atoms: O_2  and  C_3
REMARK    3  A    between atoms: C_9  and  C_10
REMARK    4  A    between atoms: C_10  and  C_11
REMARK    5  A    between atoms: C_11  and  N_12
REMARK    6  A    between atoms: C_13  and  C_14
REMARK    7  A    between atoms: N_15  and  C_16
REMARK    8  A    between atoms: C_16  and  C_17
REMARK                            x       y       z     vdW  Elec       q    Type
REMARK                         _______ _______ _______ _____ _____    ______ ____
ROOT
ATOM      1  C   UNL     1       3.139  -0.618   0.975  0.00  0.00    +0.000 A 
ATOM      2  C   UNL     1       2.703  -1.902   1.285  0.00  0.00    +0.000 A 
ATOM      3  C   UNL     1       3.462  -2.744   2.108  0.00  0.00    +0.000 A 
ATOM      4  C   UNL     1       4.674  -2.259   2.628  0.00  0.00    +0.000 A 
ATOM      5  C   UNL     1       5.119  -0.965   2.362  0.00  0.00    +0.000 A 
ATOM      6  C   UNL     1       4.340  -0.144   1.517  0.00  0.00    +0.000 A 
ATOM      7  C   UNL     1       6.353  -0.775   3.061  0.00  0.00    +0.000 A 
ATOM      8  C   UNL     1       6.646  -1.966   3.716  0.00  0.00    +0.000 A 
ATOM      9  C   UNL     1       7.813  -2.324   4.570  0.00  0.00    +0.000 C 
ATOM     10  N   UNL     1       5.633  -2.862   3.422  0.00  0.00    +0.000 N 
ENDROOT
BRANCH   1  12
ATOM     11  C   UNL     1       1.286  -0.165  -0.445  0.00  0.00    +0.000 C 
ATOM     12  O   UNL     1       2.493   0.275   0.161  0.00  0.00    +0.000 OA
ENDBRANCH   1  12
BRANCH   7  13
ATOM     13  C   UNL     1       7.162   0.491   3.056  0.00  0.00    +0.000 C 
BRANCH  13  14
ATOM     14  C   UNL     1       6.724   1.464   4.157  0.00  0.00    +0.000 C 
BRANCH  14  15
ATOM     15  N   UNL     1       7.473   2.720   4.097  0.00  0.00    +0.000 NA
ATOM     16  H   UNL     1       8.461   2.539   4.268  0.00  0.00    +0.000 HD
ATOM     17  H   UNL     1       7.159   3.332   4.849  0.00  0.00    +0.000 HD
ENDBRANCH  14  15
ENDBRANCH  13  14
ENDBRANCH   7  13
BRANCH  10  18
ATOM     18  C   UNL     1       5.646  -4.289   3.754  0.00  0.00    +0.000 C 
BRANCH  18  19
ATOM     19  C   UNL     1       5.017  -4.646   5.083  0.00  0.00    +0.000 A 
ATOM     20  C   UNL     1       5.529  -5.742   5.797  0.00  0.00    +0.000 A 
ATOM     21  C   UNL     1       4.889  -6.213   6.947  0.00  0.00    +0.000 A 
ATOM     22  C   UNL     1       3.719  -5.601   7.400  0.00  0.00    +0.000 A 
ATOM     23 CL   UNL     1       2.940  -6.279   8.785  0.00  0.00    +0.000 Cl
ATOM     24  C   UNL     1       3.208  -4.495   6.716  0.00  0.00    +0.000 A 
ATOM     25 CL   UNL     1       1.763  -3.687   7.213  0.00  0.00    +0.000 Cl
ATOM     26  C   UNL     1       3.856  -4.022   5.567  0.00  0.00    +0.000 A 
ENDBRANCH  18  19
ENDBRANCH  10  18
TORSDOF 6
