REMARK  Name = 
REMARK  5 active torsions:
REMARK  status: ('A' for Active; 'I' for Inactive)
REMARK    1  A    between atoms: N_1  and  C_2
REMARK    2  A    between atoms: C_2  and  C_3
REMARK    3  A    between atoms: C_6  and  C_7
REMARK    4  A    between atoms: C_7  and  N_8
REMARK    5  A    between atoms: C_14  and  O_15
REMARK                            x       y       z     vdW  Elec       q    Type
REMARK                         _______ _______ _______ _____ _____    ______ ____
ROOT
ATOM      1  C   UNL     1       4.520   3.783  -4.281  0.00  0.00    +0.000 C 
ENDROOT
BRANCH   1   2
ATOM      2  N   UNL     1       3.691   4.570  -5.194  0.00  0.00    +0.000 N 
ATOM      3  C   UNL     1       2.854   4.014  -6.136  0.00  0.00    +0.000 A 
ATOM      4  C   UNL     1       2.303   5.034  -6.873  0.00  0.00    +0.000 A 
ATOM      5  C   UNL     1       3.085   6.184  -6.610  0.00  0.00    +0.000 A 
ATOM      6  C   UNL     1       3.239   7.418  -7.272  0.00  0.00    +0.000 A 
ATOM      7  C   UNL     1       4.103   8.378  -6.742  0.00  0.00    +0.000 A 
ATOM      8  C   UNL     1       4.720   8.148  -5.518  0.00  0.00    +0.000 A 
ATOM      9  C   UNL     1       4.597   6.932  -4.842  0.00  0.00    +0.000 A 
ATOM     10  C   UNL     1       3.836   5.924  -5.458  0.00  0.00    +0.000 A 
BRANCH   8  11
ATOM     11  O   UNL     1       5.506   9.109  -4.946  0.00  0.00    +0.000 OA
ATOM     12  H   UNL     1       5.486   9.896  -5.515  0.00  0.00    +0.000 HD
ENDBRANCH   8  11
ENDBRANCH   1   2
BRANCH   1  16
ATOM     13  C   UNL     1       2.392   1.453  -1.299  0.00  0.00    +0.000 A 
ATOM     14  C   UNL     1       2.698   0.904  -2.547  0.00  0.00    +0.000 A 
ATOM     15  C   UNL     1       3.360   1.657  -3.520  0.00  0.00    +0.000 A 
ATOM     16  C   UNL     1       3.737   2.987  -3.268  0.00  0.00    +0.000 A 
ATOM     17  C   UNL     1       3.407   3.543  -2.026  0.00  0.00    +0.000 A 
ATOM     18  C   UNL     1       2.751   2.783  -1.052  0.00  0.00    +0.000 A 
BRANCH  13  19
ATOM     19  C   UNL     1       1.678   0.634  -0.244  0.00  0.00    +0.000 C 
BRANCH  19  20
ATOM     20  N   UNL     1       2.426  -0.552   0.139  0.00  0.00    +0.000 NA
ATOM     21  H   UNL     1       1.943  -1.003   0.908  0.00  0.00    +0.000 HD
ATOM     22  H   UNL     1       3.337  -0.267   0.492  0.00  0.00    +0.000 HD
ENDBRANCH  19  20
ENDBRANCH  13  19
ENDBRANCH   1  16
TORSDOF 5
