REMARK  Name = 
REMARK  3 active torsions:
REMARK  status: ('A' for Active; 'I' for Inactive)
REMARK    1  A    between atoms: C_2  and  C_4
REMARK    2  A    between atoms: C_7  and  C_8
REMARK    3  A    between atoms: C_8  and  N_9
REMARK                            x       y       z     vdW  Elec       q    Type
REMARK                         _______ _______ _______ _____ _____    ______ ____
ROOT
ATOM      1  C   UNL     1       2.972   0.938  -0.885  0.00  0.00    +0.000 A 
ATOM      2  C   UNL     1       2.656   0.901  -2.248  0.00  0.00    +0.000 A 
ATOM      3  C   UNL     1       3.329   1.731  -3.149  0.00  0.00    +0.000 A 
ATOM      4  C   UNL     1       4.322   2.613  -2.699  0.00  0.00    +0.000 A 
ATOM      5  C   UNL     1       4.622   2.657  -1.329  0.00  0.00    +0.000 A 
ATOM      6  C   UNL     1       3.947   1.829  -0.426  0.00  0.00    +0.000 A 
ENDROOT
BRANCH   1   8
ATOM      7  N   UNL     1       1.808  -1.134  -0.365  0.00  0.00    +0.000 N 
ATOM      8  C   UNL     1       2.277   0.064   0.096  0.00  0.00    +0.000 C 
ATOM      9  O   UNL     1       2.163   0.379   1.274  0.00  0.00    +0.000 OA
ATOM     10  H   UNL     1       1.420  -1.765   0.320  0.00  0.00    +0.000 HD
ATOM     11  H   UNL     1       2.104  -1.523  -1.251  0.00  0.00    +0.000 HD
ENDBRANCH   1   8
BRANCH   4  12
ATOM     12  C   UNL     1       5.052   3.503  -3.675  0.00  0.00    +0.000 C 
BRANCH  12  13
ATOM     13  N   UNL     1       4.414   4.801  -3.839  0.00  0.00    +0.000 N 
ATOM     14  C   UNL     1       4.689   5.922  -3.089  0.00  0.00    +0.000 A 
ATOM     15  C   UNL     1       4.012   6.985  -3.648  0.00  0.00    +0.000 A 
ATOM     16  C   UNL     1       3.317   6.501  -4.788  0.00  0.00    +0.000 A 
ATOM     17  C   UNL     1       2.511   7.073  -5.783  0.00  0.00    +0.000 A 
ATOM     18  C   UNL     1       2.024   6.236  -6.785  0.00  0.00    +0.000 A 
ATOM     19  C   UNL     1       2.343   4.885  -6.746  0.00  0.00    +0.000 A 
ATOM     20  N   UNL     1       3.114   4.280  -5.814  0.00  0.00    +0.000 NA
ATOM     21  C   UNL     1       3.572   5.132  -4.873  0.00  0.00    +0.000 A 
ENDBRANCH  12  13
ENDBRANCH   4  12
TORSDOF 3
