REMARK  Name = 
REMARK  7 active torsions:
REMARK  status: ('A' for Active; 'I' for Inactive)
REMARK    1  A    between atoms: C_1  and  O_2
REMARK    2  A    between atoms: O_2  and  C_3
REMARK    3  A    between atoms: C_5  and  C_6
REMARK    4  A    between atoms: C_6  and  N_7
REMARK    5  A    between atoms: N_7  and  C_8
REMARK    6  A    between atoms: C_11  and  C_12
REMARK    7  A    between atoms: C_21  and  C_22
REMARK                            x       y       z     vdW  Elec       q    Type
REMARK                         _______ _______ _______ _____ _____    ______ ____
ROOT
ATOM      1  C   UNL     1       5.827  -1.777   2.907  0.00  0.00    +0.000 C 
ATOM      2  C   UNL     1       7.255  -2.220   2.673  0.00  0.00    +0.000 C 
ATOM      3  C   UNL     1       6.406  -3.003   3.617  0.00  0.00    +0.000 C 
ENDROOT
BRANCH   1   6
ATOM      4  C   UNL     1       3.862  -1.531  -0.420  0.00  0.00    +0.000 A 
ATOM      5  C   UNL     1       4.873  -1.408   0.551  0.00  0.00    +0.000 A 
ATOM      6  C   UNL     1       4.784  -2.015   1.818  0.00  0.00    +0.000 A 
ATOM      7  C   UNL     1       3.653  -2.807   2.064  0.00  0.00    +0.000 A 
ATOM      8  C   UNL     1       2.656  -2.970   1.098  0.00  0.00    +0.000 A 
ATOM      9  C   UNL     1       2.749  -2.335  -0.145  0.00  0.00    +0.000 A 
BRANCH   4  11
ATOM     10  C   UNL     1       3.060  -0.194  -2.223  0.00  0.00    +0.000 C 
ATOM     11  O   UNL     1       4.141  -0.872  -1.590  0.00  0.00    +0.000 OA
ENDBRANCH   4  11
BRANCH   9  12
ATOM     12  C   UNL     1       1.686  -2.574  -1.077  0.00  0.00    +0.000 C 
ATOM     13  N   UNL     1       0.798  -2.765  -1.795  0.00  0.00    +0.000 NA
ENDBRANCH   9  12
ENDBRANCH   1   6
BRANCH   1  14
ATOM     14  N   UNL     1       5.464  -0.703   3.844  0.00  0.00    +0.000 N 
ATOM     15  H   UNL     1       4.641  -0.902   4.406  0.00  0.00    +0.000 HD
BRANCH  14  16
ATOM     16  C   UNL     1       5.644   0.681   3.659  0.00  0.00    +0.000 A 
ATOM     17  C   UNL     1       6.423   1.256   2.655  0.00  0.00    +0.000 A 
ATOM     18  C   UNL     1       6.637   2.645   2.621  0.00  0.00    +0.000 A 
ATOM     19  C   UNL     1       6.088   3.478   3.607  0.00  0.00    +0.000 A 
ATOM     20  C   UNL     1       5.327   2.908   4.631  0.00  0.00    +0.000 A 
ATOM     21  C   UNL     1       5.115   1.528   4.648  0.00  0.00    +0.000 A 
BRANCH  19  22
ATOM     22  C   UNL     1       6.386   4.933   3.583  0.00  0.00    +0.000 C 
ATOM     23  N   UNL     1       5.511   5.769   4.224  0.00  0.00    +0.000 N 
ATOM     24  O   UNL     1       7.365   5.381   3.000  0.00  0.00    +0.000 OA
ATOM     25  H   UNL     1       4.594   5.478   4.531  0.00  0.00    +0.000 HD
ATOM     26  H   UNL     1       5.690   6.761   4.145  0.00  0.00    +0.000 HD
ENDBRANCH  19  22
ENDBRANCH  14  16
ENDBRANCH   1  14
TORSDOF 6
