REMARK  Name = 
REMARK  10 active torsions:
REMARK  status: ('A' for Active; 'I' for Inactive)
REMARK    1  A    between atoms: C_1  and  O_2
REMARK    2  A    between atoms: O_2  and  C_3
REMARK    3  A    between atoms: C_5  and  O_6
REMARK    4  A    between atoms: O_6  and  C_7
REMARK    5  A    between atoms: C_7  and  C_8
REMARK    6  A    between atoms: N_11  and  C_12
REMARK    7  A    between atoms: C_12  and  C_13
REMARK    8  A    between atoms: C_22  and  C_23
REMARK    9  A    between atoms: C_23  and  N_24
REMARK   10  A    between atoms: C_25  and  C_27
REMARK                            x       y       z     vdW  Elec       q    Type
REMARK                         _______ _______ _______ _____ _____    ______ ____
ROOT
ATOM      1  C   UNL     1       2.967   0.455  -1.200  0.00  0.00    +0.000 A 
ATOM      2  C   UNL     1       2.655   1.681  -1.807  0.00  0.00    +0.000 A 
ATOM      3  C   UNL     1       3.405   2.144  -2.891  0.00  0.00    +0.000 A 
ATOM      4  C   UNL     1       4.525   1.426  -3.310  0.00  0.00    +0.000 A 
ATOM      5  C   UNL     1       4.836   0.205  -2.725  0.00  0.00    +0.000 A 
ATOM      6  C   UNL     1       4.059  -0.298  -1.671  0.00  0.00    +0.000 A 
ENDROOT
BRANCH   1   8
ATOM      7  C   UNL     1       0.963   0.412   0.078  0.00  0.00    +0.000 C 
ATOM      8  O   UNL     1       2.284  -0.072  -0.133  0.00  0.00    +0.000 OA
ENDBRANCH   1   8
BRANCH   3   9
ATOM      9  O   UNL     1       2.959   3.294  -3.502  0.00  0.00    +0.000 OA
BRANCH   9  10
ATOM     10  C   UNL     1       3.359   3.387  -4.875  0.00  0.00    +0.000 C 
BRANCH  10  11
ATOM     11  C   UNL     1       2.430   4.296  -5.691  0.00  0.00    +0.000 C 
ATOM     12  C   UNL     1       0.957   3.887  -5.594  0.00  0.00    +0.000 C 
ATOM     13  C   UNL     1       0.682   2.550  -6.286  0.00  0.00    +0.000 C 
ATOM     14  N   UNL     1       1.097   2.564  -7.702  0.00  0.00    +0.000 NA
ATOM     15  C   UNL     1       2.516   2.931  -7.846  0.00  0.00    +0.000 C 
ATOM     16  C   UNL     1       2.848   4.270  -7.170  0.00  0.00    +0.000 C 
BRANCH  14  17
ATOM     17  C   UNL     1       0.878   1.242  -8.322  0.00  0.00    +0.000 C 
BRANCH  17  18
ATOM     18  C   UNL     1      -0.567   0.871  -8.370  0.00  0.00    +0.000 A 
ATOM     19  C   UNL     1      -1.238  -0.226  -7.863  0.00  0.00    +0.000 A 
ATOM     20  C   UNL     1      -2.605  -0.085  -8.196  0.00  0.00    +0.000 A 
ATOM     21  C   UNL     1      -2.738   1.095  -8.893  0.00  0.00    +0.000 A 
ATOM     22  N   UNL     1      -1.498   1.671  -8.987  0.00  0.00    +0.000 N 
ATOM     23  H   UNL     1      -1.288   2.566  -9.414  0.00  0.00    +0.000 HD
ENDBRANCH  17  18
ENDBRANCH  14  17
ENDBRANCH  10  11
ENDBRANCH   9  10
ENDBRANCH   3   9
BRANCH   6  24
ATOM     24  C   UNL     1       4.410  -1.660  -1.127  0.00  0.00    +0.000 C 
BRANCH  24  25
ATOM     25  N   UNL     1       3.681  -2.713  -1.798  0.00  0.00    +0.000 N 
ATOM     26  C   UNL     1       4.164  -3.386  -2.892  0.00  0.00    +0.000 C 
ATOM     27  O   UNL     1       5.262  -3.145  -3.387  0.00  0.00    +0.000 OA
ATOM     28  H   UNL     1       2.697  -2.781  -1.566  0.00  0.00    +0.000 HD
BRANCH  26  29
ATOM     29  C   UNL     1       3.329  -4.491  -3.389  0.00  0.00    +0.000 A 
ATOM     30  C   UNL     1       3.913  -5.533  -4.098  0.00  0.00    +0.000 A 
ATOM     31  S   UNL     1       2.823  -6.782  -4.500  0.00  0.00    +0.000 S 
ATOM     32  C   UNL     1       1.520  -5.948  -3.793  0.00  0.00    +0.000 A 
ATOM     33  N   UNL     1       0.269  -6.482  -3.785  0.00  0.00    +0.000 NA
ATOM     34  C   UNL     1      -0.630  -5.726  -3.249  0.00  0.00    +0.000 A 
ATOM     35  N   UNL     1      -0.392  -4.482  -2.726  0.00  0.00    +0.000 N 
ATOM     36  C   UNL     1       0.861  -3.917  -2.680  0.00  0.00    +0.000 A 
ATOM     37  O   UNL     1       1.046  -2.825  -2.155  0.00  0.00    +0.000 OA
ATOM     38  C   UNL     1       1.910  -4.730  -3.265  0.00  0.00    +0.000 A 
ATOM     39  H   UNL     1      -1.139  -3.939  -2.319  0.00  0.00    +0.000 HD
ENDBRANCH  26  29
ENDBRANCH  24  25
ENDBRANCH   6  24
TORSDOF 9
