REMARK  Name = 
REMARK  6 active torsions:
REMARK  status: ('A' for Active; 'I' for Inactive)
REMARK    1  A    between atoms: C_2  and  C_20
REMARK    2  A    between atoms: N_3  and  C_4
REMARK    3  A    between atoms: C_4  and  C_5
REMARK    4  A    between atoms: C_8  and  C_9
REMARK    5  A    between atoms: C_9  and  C_10
REMARK    6  A    between atoms: C_10  and  N_11
REMARK                            x       y       z     vdW  Elec       q    Type
REMARK                         _______ _______ _______ _____ _____    ______ ____
ROOT
ATOM      1  C   UNL     1       2.330  -2.200   1.245  0.00  0.00    +0.000 C 
ENDROOT
BRANCH   1   2
ATOM      2  C   UNL     1       3.269  -3.215   1.826  0.00  0.00    +0.000 A 
ATOM      3  C   UNL     1       4.435  -2.842   2.498  0.00  0.00    +0.000 A 
ATOM      4  C   UNL     1       5.256  -3.817   3.066  0.00  0.00    +0.000 A 
ATOM      5  C   UNL     1       4.895  -5.155   2.940  0.00  0.00    +0.000 A 
ATOM      6  N   UNL     1       3.789  -5.536   2.255  0.00  0.00    +0.000 NA
ATOM      7  C   UNL     1       3.014  -4.572   1.711  0.00  0.00    +0.000 A 
BRANCH   5   8
ATOM      8  C   UNL     1       5.734  -6.238   3.586  0.00  0.00    +0.000 C 
BRANCH   8   9
ATOM      9  C   UNL     1       5.157  -7.630   3.307  0.00  0.00    +0.000 C 
BRANCH   9  10
ATOM     10  N   UNL     1       5.985  -8.699   3.860  0.00  0.00    +0.000 N 
ATOM     11  C   UNL     1       5.511  -9.999   3.670  0.00  0.00    +0.000 A 
ATOM     12  C   UNL     1       4.856 -10.436   2.511  0.00  0.00    +0.000 A 
ATOM     13  N   UNL     1       4.419 -11.706   2.313  0.00  0.00    +0.000 NA
ATOM     14  C   UNL     1       4.688 -12.555   3.323  0.00  0.00    +0.000 A 
ATOM     15  C   UNL     1       5.349 -12.148   4.468  0.00  0.00    +0.000 A 
ATOM     16  N   UNL     1       5.764 -10.872   4.666  0.00  0.00    +0.000 NA
ATOM     17  H   UNL     1       6.223  -8.619   4.847  0.00  0.00    +0.000 HD
ENDBRANCH   9  10
ENDBRANCH   8   9
ENDBRANCH   5   8
ENDBRANCH   1   2
BRANCH   1  20
ATOM     18  O   UNL     1       3.817   0.068   0.517  0.00  0.00    +0.000 OA
ATOM     19  C   UNL     1       3.472  -0.720  -0.360  0.00  0.00    +0.000 C 
ATOM     20  N   UNL     1       2.708  -1.825  -0.092  0.00  0.00    +0.000 N 
ATOM     21  H   UNL     1       2.569  -2.521  -0.817  0.00  0.00    +0.000 HD
BRANCH  19  22
ATOM     22  C   UNL     1       3.826  -0.499  -1.767  0.00  0.00    +0.000 A 
ATOM     23  C   UNL     1       4.154   0.778  -2.203  0.00  0.00    +0.000 A 
ATOM     24  S   UNL     1       4.560   0.852  -3.858  0.00  0.00    +0.000 S 
ATOM     25  C   UNL     1       4.348  -0.827  -4.041  0.00  0.00    +0.000 A 
ATOM     26  N   UNL     1       4.586  -1.435  -5.234  0.00  0.00    +0.000 NA
ATOM     27  C   UNL     1       4.429  -2.717  -5.220  0.00  0.00    +0.000 A 
ATOM     28  N   UNL     1       4.032  -3.445  -4.126  0.00  0.00    +0.000 N 
ATOM     29  C   UNL     1       3.695  -2.860  -2.929  0.00  0.00    +0.000 A 
ATOM     30  O   UNL     1       3.195  -3.516  -2.018  0.00  0.00    +0.000 OA
ATOM     31  C   UNL     1       3.928  -1.430  -2.868  0.00  0.00    +0.000 A 
ATOM     32  H   UNL     1       3.889  -4.440  -4.195  0.00  0.00    +0.000 HD
ENDBRANCH  19  22
ENDBRANCH   1  20
TORSDOF 6
