REMARK  Name = 
REMARK  6 active torsions:
REMARK  status: ('A' for Active; 'I' for Inactive)
REMARK    1  A    between atoms: C_2  and  C_4
REMARK    2  A    between atoms: C_7  and  N_8
REMARK    3  A    between atoms: N_8  and  C_9
REMARK    4  A    between atoms: C_9  and  C_10
REMARK    5  A    between atoms: C_14  and  N_15
REMARK    6  A    between atoms: C_18  and  O_19
REMARK                            x       y       z     vdW  Elec       q    Type
REMARK                         _______ _______ _______ _____ _____    ______ ____
ROOT
ATOM      1  C   UNL     1       5.401  -4.329   4.102  0.00  0.00    +0.000 C 
ENDROOT
BRANCH   1   2
ATOM      2  C   UNL     1       6.415  -4.923   5.038  0.00  0.00    +0.000 A 
ATOM      3  C   UNL     1       6.495  -6.292   5.230  0.00  0.00    +0.000 A 
ATOM      4  N   UNL     1       7.344  -6.876   6.099  0.00  0.00    +0.000 NA
ATOM      5  C   UNL     1       8.165  -6.048   6.797  0.00  0.00    +0.000 A 
ATOM      6  C   UNL     1       8.218  -4.655   6.680  0.00  0.00    +0.000 A 
ATOM      7  C   UNL     1       7.296  -4.115   5.772  0.00  0.00    +0.000 A 
BRANCH   6   8
ATOM      8  N   UNL     1       9.080  -3.849   7.406  0.00  0.00    +0.000 N 
ATOM      9  C   UNL     1       9.643  -4.264   8.694  0.00  0.00    +0.000 C 
ATOM     10  C   UNL     1      11.153  -4.455   8.579  0.00  0.00    +0.000 C 
ATOM     11  C   UNL     1      11.835  -3.233   7.966  0.00  0.00    +0.000 C 
ATOM     12  C   UNL     1      11.169  -2.806   6.660  0.00  0.00    +0.000 C 
ATOM     13  C   UNL     1       9.658  -2.641   6.809  0.00  0.00    +0.000 C 
BRANCH  11  14
ATOM     14  O   UNL     1      11.861  -2.149   8.894  0.00  0.00    +0.000 OA
ATOM     15  H   UNL     1      10.951  -1.882   9.101  0.00  0.00    +0.000 HD
ENDBRANCH  11  14
ENDBRANCH   6   8
ENDBRANCH   1   2
BRANCH   1  16
ATOM     16  N   UNL     1       5.907  -4.296   2.741  0.00  0.00    +0.000 N 
ATOM     17  H   UNL     1       6.899  -4.111   2.651  0.00  0.00    +0.000 HD
BRANCH  16  21
ATOM     18  C   UNL     1       3.537  -3.060  -0.532  0.00  0.00    +0.000 A 
ATOM     19  C   UNL     1       3.009  -3.010   0.759  0.00  0.00    +0.000 A 
ATOM     20  C   UNL     1       3.798  -3.383   1.856  0.00  0.00    +0.000 A 
ATOM     21  C   UNL     1       5.131  -3.785   1.701  0.00  0.00    +0.000 A 
ATOM     22  C   UNL     1       5.647  -3.819   0.397  0.00  0.00    +0.000 A 
ATOM     23  C   UNL     1       4.862  -3.465  -0.709  0.00  0.00    +0.000 A 
BRANCH  18  25
ATOM     24  N   UNL     1       1.629  -1.945  -1.570  0.00  0.00    +0.000 N 
ATOM     25  C   UNL     1       2.708  -2.769  -1.731  0.00  0.00    +0.000 C 
ATOM     26  O   UNL     1       2.982  -3.234  -2.830  0.00  0.00    +0.000 OA
ATOM     27  H   UNL     1       1.118  -1.706  -2.410  0.00  0.00    +0.000 HD
ATOM     28  H   UNL     1       1.502  -1.360  -0.758  0.00  0.00    +0.000 HD
ENDBRANCH  18  25
ENDBRANCH  16  21
ENDBRANCH   1  16
TORSDOF 6
