REMARK  Name = 
REMARK  7 active torsions:
REMARK  status: ('A' for Active; 'I' for Inactive)
REMARK    1  A    between atoms: C_1  and  N_2
REMARK    2  A    between atoms: N_2  and  C_3
REMARK    3  A    between atoms: C_5  and  C_6
REMARK    4  A    between atoms: C_11  and  O_12
REMARK    5  A    between atoms: O_12  and  C_13
REMARK    6  A    between atoms: C_13  and  C_14
REMARK    7  A    between atoms: C_14  and  C_15
REMARK                            x       y       z     vdW  Elec       q    Type
REMARK                         _______ _______ _______ _____ _____    ______ ____
ROOT
ATOM      1  C   UNL     1       3.060   1.256   0.316  0.00  0.00    +0.000 A 
ATOM      2  C   UNL     1       2.753   2.086   1.408  0.00  0.00    +0.000 A 
ATOM      3  C   UNL     1       3.556   3.182   1.766  0.00  0.00    +0.000 A 
ATOM      4  C   UNL     1       4.702   3.454   1.018  0.00  0.00    +0.000 A 
ATOM      5  C   UNL     1       5.032   2.638  -0.070  0.00  0.00    +0.000 A 
ATOM      6  C   UNL     1       4.221   1.552  -0.432  0.00  0.00    +0.000 A 
ENDROOT
BRANCH   3   7
ATOM      7  C   UNL     1       3.135   3.968   2.965  0.00  0.00    +0.000 C 
ATOM      8  N   UNL     1       3.889   5.038   3.351  0.00  0.00    +0.000 N 
ATOM      9  O   UNL     1       2.134   3.673   3.609  0.00  0.00    +0.000 OA
ATOM     10  H   UNL     1       4.723   5.365   2.890  0.00  0.00    +0.000 HD
ATOM     11  H   UNL     1       3.570   5.542   4.171  0.00  0.00    +0.000 HD
ENDBRANCH   3   7
BRANCH   1  13
ATOM     12  C   UNL     1       0.948  -0.021   0.484  0.00  0.00    +0.000 C 
ATOM     13  N   UNL     1       2.338   0.077   0.077  0.00  0.00    +0.000 N 
ATOM     14  H   UNL     1       2.889  -0.717   0.407  0.00  0.00    +0.000 HD
ENDBRANCH   1  13
BRANCH   6  15
ATOM     15  O   UNL     1       4.701   0.825  -1.502  0.00  0.00    +0.000 OA
BRANCH  15  16
ATOM     16  C   UNL     1       3.705   0.309  -2.395  0.00  0.00    +0.000 C 
BRANCH  16  17
ATOM     17  C   UNL     1       4.379  -0.280  -3.636  0.00  0.00    +0.000 C 
BRANCH  17  18
ATOM     18  C   UNL     1       3.362  -0.921  -4.555  0.00  0.00    +0.000 A 
ATOM     19  C   UNL     1       2.735  -0.165  -5.554  0.00  0.00    +0.000 A 
ATOM     20  C   UNL     1       1.768  -0.745  -6.379  0.00  0.00    +0.000 A 
ATOM     21  C   UNL     1       1.419  -2.083  -6.204  0.00  0.00    +0.000 A 
ATOM     22 CL   UNL     1       0.231  -2.797  -7.225  0.00  0.00    +0.000 Cl
ATOM     23  C   UNL     1       2.023  -2.844  -5.207  0.00  0.00    +0.000 A 
ATOM     24  C   UNL     1       2.991  -2.264  -4.382  0.00  0.00    +0.000 A 
ENDBRANCH  17  18
ENDBRANCH  16  17
ENDBRANCH  15  16
ENDBRANCH   6  15
TORSDOF 6
