REMARK  Name = 
REMARK  7 active torsions:
REMARK  status: ('A' for Active; 'I' for Inactive)
REMARK    1  A    between atoms: C_1  and  O_2
REMARK    2  A    between atoms: O_2  and  C_3
REMARK    3  A    between atoms: C_6  and  C_7
REMARK    4  A    between atoms: C_7  and  C_8
REMARK    5  A    between atoms: C_7  and  N_9
REMARK    6  A    between atoms: N_9  and  C_10
REMARK    7  A    between atoms: C_13  and  C_14
REMARK                            x       y       z     vdW  Elec       q    Type
REMARK                         _______ _______ _______ _____ _____    ______ ____
ROOT
ATOM      1  N   UNL     1       4.558  -2.856  -5.240  0.00  0.00    +0.000 N 
ATOM      2  H   UNL     1       4.097  -1.950  -5.332  0.00  0.00    +0.000 HD
ENDROOT
BRANCH   1   3
ATOM      3  C   UNL     1       5.391  -3.064  -6.352  0.00  0.00    +0.000 A 
ATOM      4  C   UNL     1       6.491  -3.923  -6.355  0.00  0.00    +0.000 A 
ATOM      5  C   UNL     1       7.254  -4.135  -7.512  0.00  0.00    +0.000 A 
ATOM      6  C   UNL     1       6.913  -3.509  -8.711  0.00  0.00    +0.000 A 
ATOM      7  C   UNL     1       5.790  -2.678  -8.745  0.00  0.00    +0.000 A 
ATOM      8  C   UNL     1       5.030  -2.479  -7.580  0.00  0.00    +0.000 A 
BRANCH   6   9
ATOM      9  C   UNL     1       7.786  -3.743  -9.891  0.00  0.00    +0.000 C 
ATOM     10  N   UNL     1       7.232  -3.582 -11.133  0.00  0.00    +0.000 N 
ATOM     11  O   UNL     1       8.951  -4.102  -9.770  0.00  0.00    +0.000 OA
ATOM     12  H   UNL     1       6.237  -3.525 -11.284  0.00  0.00    +0.000 HD
ATOM     13  H   UNL     1       7.815  -3.855 -11.915  0.00  0.00    +0.000 HD
ENDBRANCH   6   9
ENDBRANCH   1   3
BRANCH   1  14
ATOM     14  C   UNL     1       5.098  -3.006  -3.870  0.00  0.00    +0.000 C 
ATOM     15  C   UNL     1       4.965  -4.449  -3.366  0.00  0.00    +0.000 C 
BRANCH  14  19
ATOM     16  C   UNL     1       3.132  -0.481  -0.996  0.00  0.00    +0.000 A 
ATOM     17  C   UNL     1       2.386  -1.447  -1.659  0.00  0.00    +0.000 A 
ATOM     18  C   UNL     1       3.000  -2.249  -2.623  0.00  0.00    +0.000 A 
ATOM     19  C   UNL     1       4.359  -2.076  -2.899  0.00  0.00    +0.000 A 
ATOM     20  N   UNL     1       5.089  -1.108  -2.290  0.00  0.00    +0.000 NA
ATOM     21  C   UNL     1       4.462  -0.337  -1.368  0.00  0.00    +0.000 A 
BRANCH  16  23
ATOM     22  C   UNL     1       1.586  -0.139   0.750  0.00  0.00    +0.000 C 
ATOM     23  O   UNL     1       2.665   0.365  -0.032  0.00  0.00    +0.000 OA
ENDBRANCH  16  23
ENDBRANCH  14  19
ENDBRANCH   1  14
TORSDOF 5
