REMARK  Name = 
REMARK  7 active torsions:
REMARK  status: ('A' for Active; 'I' for Inactive)
REMARK    1  A    between atoms: C_1  and  N_2
REMARK    2  A    between atoms: N_2  and  C_3
REMARK    3  A    between atoms: C_3  and  C_4
REMARK    4  A    between atoms: C_7  and  C_8
REMARK    5  A    between atoms: C_8  and  N_9
REMARK    6  A    between atoms: C_10  and  C_12
REMARK    7  A    between atoms: C_19  and  C_21
REMARK                            x       y       z     vdW  Elec       q    Type
REMARK                         _______ _______ _______ _____ _____    ______ ____
ROOT
ATOM      1  C   UNL     1       3.140  -0.301  -1.326  0.00  0.00    +0.000 C 
ENDROOT
BRANCH   1   2
ATOM      2  C   UNL     1       2.231  -0.524  -2.487  0.00  0.00    +0.000 A 
ATOM      3  C   UNL     1       1.924  -1.798  -2.910  0.00  0.00    +0.000 A 
ATOM      4  C   UNL     1       1.016  -1.951  -3.926  0.00  0.00    +0.000 A 
ATOM      5  C   UNL     1       0.392  -0.850  -4.493  0.00  0.00    +0.000 A 
ATOM      6  N   UNL     1       0.663   0.410  -4.080  0.00  0.00    +0.000 NA
ATOM      7  C   UNL     1       1.577   0.540  -3.096  0.00  0.00    +0.000 A 
BRANCH   5   8
ATOM      8  C   UNL     1      -0.622  -1.061  -5.598  0.00  0.00    +0.000 C 
BRANCH   8   9
ATOM      9  N   UNL     1      -2.009  -1.230  -5.116  0.00  0.00    +0.000 N 
ATOM     10  C   UNL     1      -2.563  -2.465  -4.797  0.00  0.00    +0.000 C 
ATOM     11  O   UNL     1      -1.886  -3.482  -4.913  0.00  0.00    +0.000 OA
ATOM     12  H   UNL     1      -2.563  -0.404  -4.982  0.00  0.00    +0.000 HD
BRANCH  10  13
ATOM     13  C   UNL     1      -3.976  -2.479  -4.374  0.00  0.00    +0.000 A 
ATOM     14  C   UNL     1      -4.721  -3.581  -4.013  0.00  0.00    +0.000 A 
ATOM     15  C   UNL     1      -6.060  -3.293  -3.672  0.00  0.00    +0.000 A 
ATOM     16  C   UNL     1      -6.337  -1.954  -3.759  0.00  0.00    +0.000 A 
ATOM     17  S   UNL     1      -4.947  -1.052  -4.224  0.00  0.00    +0.000 S 
ENDBRANCH  10  13
ENDBRANCH   8   9
ENDBRANCH   5   8
ENDBRANCH   1   2
BRANCH   1  19
ATOM     18  C   UNL     1       4.936  -0.308  -3.082  0.00  0.00    +0.000 C 
ATOM     19  N   UNL     1       4.558  -0.189  -1.660  0.00  0.00    +0.000 N 
ATOM     20  C   UNL     1       5.579   0.079  -0.694  0.00  0.00    +0.000 C 
ATOM     21  O   UNL     1       6.749   0.209  -1.049  0.00  0.00    +0.000 OA
BRANCH  20  22
ATOM     22  C   UNL     1       5.233   0.189   0.772  0.00  0.00    +0.000 A 
ATOM     23  C   UNL     1       4.164  -0.525   1.326  0.00  0.00    +0.000 A 
ATOM     24  S   UNL     1       3.973  -0.240   3.010  0.00  0.00    +0.000 S 
ATOM     25  C   UNL     1       5.329   0.792   3.126  0.00  0.00    +0.000 A 
ATOM     26  N   UNL     1       5.767   1.390   4.291  0.00  0.00    +0.000 NA
ATOM     27  C   UNL     1       6.742   2.066   3.990  0.00  0.00    +0.000 A 
ATOM     28  N   UNL     1       7.757   2.784   3.721  0.00  0.00    +0.000 N 
ATOM     29  C   UNL     1       7.215   2.010   2.015  0.00  0.00    +0.000 A 
ATOM     30  O   UNL     1       7.687   2.082   0.897  0.00  0.00    +0.000 OA
ATOM     31  C   UNL     1       5.948   0.982   1.916  0.00  0.00    +0.000 A 
ATOM     32  H   UNL     1       7.707   2.995   4.867  0.00  0.00    +0.000 HD
ENDBRANCH  20  22
ENDBRANCH   1  19
TORSDOF 6
