REMARK  Name = 
REMARK  4 active torsions:
REMARK  status: ('A' for Active; 'I' for Inactive)
REMARK    1  A    between atoms: N_1  and  C_2
REMARK    2  A    between atoms: C_2  and  C_3
REMARK    3  A    between atoms: C_7  and  C_8
REMARK    4  A    between atoms: C_8  and  N_9
REMARK                            x       y       z     vdW  Elec       q    Type
REMARK                         _______ _______ _______ _____ _____    ______ ____
ROOT
ATOM      1  C   UNL     1       4.628   1.846   1.964  0.00  0.00    +0.000 A 
ATOM      2  C   UNL     1       3.858   0.891   1.310  0.00  0.00    +0.000 A 
ATOM      3  N   UNL     1       2.651   1.142   0.748  0.00  0.00    +0.000 NA
ATOM      4  C   UNL     1       2.191   2.407   0.840  0.00  0.00    +0.000 A 
ATOM      5  C   UNL     1       2.865   3.444   1.476  0.00  0.00    +0.000 A 
ATOM      6  C   UNL     1       4.109   3.141   2.047  0.00  0.00    +0.000 A 
ENDROOT
BRANCH   1   7
ATOM      7  C   UNL     1       5.975   1.499   2.533  0.00  0.00    +0.000 C 
BRANCH   7   8
ATOM      8  N   UNL     1       6.020   1.671   3.980  0.00  0.00    +0.000 NA
ATOM      9  H   UNL     1       6.940   1.387   4.318  0.00  0.00    +0.000 HD
ATOM     10  H   UNL     1       5.353   1.034   4.414  0.00  0.00    +0.000 HD
ENDBRANCH   7   8
ENDBRANCH   1   7
BRANCH   5  11
ATOM     11  C   UNL     1       2.244   4.799   1.600  0.00  0.00    +0.000 C 
BRANCH  11  12
ATOM     12  N   UNL     1       2.718   5.777   0.623  0.00  0.00    +0.000 N 
ATOM     13  C   UNL     1       3.845   6.545   0.812  0.00  0.00    +0.000 A 
ATOM     14  C   UNL     1       3.692   7.703   0.082  0.00  0.00    +0.000 A 
ATOM     15  C   UNL     1       2.484   7.590  -0.659  0.00  0.00    +0.000 A 
ATOM     16  C   UNL     1       1.796   8.443  -1.531  0.00  0.00    +0.000 A 
ATOM     17  N   UNL     1       0.677   8.021  -2.169  0.00  0.00    +0.000 NA
ATOM     18  C   UNL     1       0.243   6.763  -1.951  0.00  0.00    +0.000 A 
ATOM     19  C   UNL     1       0.819   5.860  -1.065  0.00  0.00    +0.000 A 
ATOM     20  C   UNL     1       1.955   6.323  -0.393  0.00  0.00    +0.000 A 
ENDBRANCH  11  12
ENDBRANCH   5  11
TORSDOF 4
