REMARK  Name = 
REMARK  4 active torsions:
REMARK  status: ('A' for Active; 'I' for Inactive)
REMARK    1  A    between atoms: N_1  and  C_2
REMARK    2  A    between atoms: C_2  and  C_3
REMARK    3  A    between atoms: C_6  and  C_7
REMARK    4  A    between atoms: C_7  and  N_8
REMARK                            x       y       z     vdW  Elec       q    Type
REMARK                         _______ _______ _______ _____ _____    ______ ____
ROOT
ATOM      1  C   UNL     1       4.233  -5.767  -0.619  0.00  0.00    +0.000 C 
ENDROOT
BRANCH   1   2
ATOM      2  N   UNL     1       4.916  -6.343  -1.777  0.00  0.00    +0.000 N 
ATOM      3  C   UNL     1       4.251  -6.978  -2.808  0.00  0.00    +0.000 A 
ATOM      4  C   UNL     1       5.197  -7.445  -3.689  0.00  0.00    +0.000 A 
ATOM      5  C   UNL     1       6.384  -7.565  -2.928  0.00  0.00    +0.000 A 
ATOM      6  C   UNL     1       7.542  -8.354  -3.050  0.00  0.00    +0.000 A 
ATOM      7  C   UNL     1       8.579  -8.185  -2.129  0.00  0.00    +0.000 A 
ATOM      8  C   UNL     1       8.509  -7.166  -1.183  0.00  0.00    +0.000 A 
ATOM      9 CL   UNL     1       9.866  -6.876  -0.161  0.00  0.00    +0.000 Cl
ATOM     10  C   UNL     1       7.354  -6.394  -1.018  0.00  0.00    +0.000 A 
ATOM     11  C   UNL     1       6.257  -6.693  -1.841  0.00  0.00    +0.000 A 
ENDBRANCH   1   2
BRANCH   1  15
ATOM     12  C   UNL     1       3.582  -1.476  -0.664  0.00  0.00    +0.000 A 
ATOM     13  C   UNL     1       2.618  -2.347  -1.191  0.00  0.00    +0.000 A 
ATOM     14  C   UNL     1       2.843  -3.729  -1.213  0.00  0.00    +0.000 A 
ATOM     15  C   UNL     1       4.028  -4.271  -0.703  0.00  0.00    +0.000 A 
ATOM     16  C   UNL     1       4.997  -3.394  -0.192  0.00  0.00    +0.000 A 
ATOM     17  C   UNL     1       4.775  -1.999  -0.166  0.00  0.00    +0.000 A 
BRANCH  12  18
ATOM     18  C   UNL     1       3.348   0.015  -0.658  0.00  0.00    +0.000 C 
BRANCH  18  19
ATOM     19  N   UNL     1       2.164   0.402   0.118  0.00  0.00    +0.000 NA
ATOM     20  H   UNL     1       2.084   1.420   0.122  0.00  0.00    +0.000 HD
ATOM     21  H   UNL     1       2.288   0.112   1.086  0.00  0.00    +0.000 HD
ENDBRANCH  18  19
ENDBRANCH  12  18
ENDBRANCH   1  15
TORSDOF 4
