REMARK  Name = 
REMARK  7 active torsions:
REMARK  status: ('A' for Active; 'I' for Inactive)
REMARK    1  A    between atoms: C_1  and  C_2
REMARK    2  A    between atoms: C_2  and  N_3
REMARK    3  A    between atoms: C_2  and  C_17
REMARK    4  A    between atoms: C_4  and  C_6
REMARK    5  A    between atoms: N_12  and  C_13
REMARK    6  A    between atoms: C_20  and  O_21
REMARK    7  A    between atoms: O_21  and  C_22
REMARK                            x       y       z     vdW  Elec       q    Type
REMARK                         _______ _______ _______ _____ _____    ______ ____
ROOT
ATOM      1  C   UNL     1       3.137  -0.462   1.300  0.00  0.00    +0.000 C 
ATOM      2  C   UNL     1       2.442   0.043   0.029  0.00  0.00    +0.000 C 
ENDROOT
BRANCH   2   3
ATOM      3  C   UNL     1       2.833  -0.763  -1.192  0.00  0.00    +0.000 A 
ATOM      4  C   UNL     1       2.930  -0.163  -2.454  0.00  0.00    +0.000 A 
ATOM      5  C   UNL     1       3.304  -0.921  -3.565  0.00  0.00    +0.000 A 
ATOM      6  C   UNL     1       3.562  -2.269  -3.379  0.00  0.00    +0.000 A 
ATOM      7  N   UNL     1       3.488  -2.876  -2.176  0.00  0.00    +0.000 NA
ATOM      8  C   UNL     1       3.100  -2.126  -1.127  0.00  0.00    +0.000 A 
BRANCH   6   9
ATOM      9  O   UNL     1       3.879  -3.030  -4.493  0.00  0.00    +0.000 OA
BRANCH   9  10
ATOM     10  C   UNL     1       3.618  -4.384  -4.409  0.00  0.00    +0.000 A 
ATOM     11  C   UNL     1       2.473  -4.905  -3.806  0.00  0.00    +0.000 A 
ATOM     12  N   UNL     1       2.205  -6.234  -3.730  0.00  0.00    +0.000 NA
ATOM     13  C   UNL     1       3.133  -7.026  -4.304  0.00  0.00    +0.000 A 
ATOM     14  C   UNL     1       4.252  -6.516  -4.947  0.00  0.00    +0.000 A 
ATOM     15  N   UNL     1       4.515  -5.190  -5.028  0.00  0.00    +0.000 NA
ENDBRANCH   9  10
ENDBRANCH   6   9
ENDBRANCH   2   3
BRANCH   2  16
ATOM     16  N   UNL     1       1.005   0.004   0.225  0.00  0.00    +0.000 N 
ATOM     17  C   UNL     1       0.126   0.885  -0.355  0.00  0.00    +0.000 C 
ATOM     18  O   UNL     1       0.493   1.884  -0.965  0.00  0.00    +0.000 OA
ATOM     19  H   UNL     1       0.639  -0.901   0.494  0.00  0.00    +0.000 HD
BRANCH  17  20
ATOM     20  C   UNL     1      -1.298   0.581  -0.150  0.00  0.00    +0.000 A 
ATOM     21  C   UNL     1      -2.245   1.599  -0.127  0.00  0.00    +0.000 A 
ATOM     22  S   UNL     1      -3.835   1.038   0.160  0.00  0.00    +0.000 S 
ATOM     23  C   UNL     1      -3.318  -0.584   0.208  0.00  0.00    +0.000 A 
ATOM     24  N   UNL     1      -4.199  -1.601   0.395  0.00  0.00    +0.000 NA
ATOM     25  C   UNL     1      -3.666  -2.781   0.377  0.00  0.00    +0.000 A 
ATOM     26  N   UNL     1      -2.327  -3.055   0.199  0.00  0.00    +0.000 N 
ATOM     27  C   UNL     1      -1.823  -4.409   0.207  0.00  0.00    +0.000 C 
ATOM     28  C   UNL     1      -1.400  -2.035   0.056  0.00  0.00    +0.000 A 
ATOM     29  O   UNL     1      -0.188  -2.250  -0.008  0.00  0.00    +0.000 OA
ATOM     30  C   UNL     1      -1.953  -0.693   0.037  0.00  0.00    +0.000 A 
ENDBRANCH  17  20
ENDBRANCH   2  16
TORSDOF 5
