REMARK  Name = 
REMARK  4 active torsions:
REMARK  status: ('A' for Active; 'I' for Inactive)
REMARK    1  A    between atoms: C_2  and  C_4
REMARK    2  A    between atoms: C_7  and  O_8
REMARK    3  A    between atoms: O_8  and  C_9
REMARK    4  A    between atoms: C_9  and  C_10
REMARK                            x       y       z     vdW  Elec       q    Type
REMARK                         _______ _______ _______ _____ _____    ______ ____
ROOT
ATOM      1  C   UNL     1       3.261   0.311   1.334  0.00  0.00    +0.000 A 
ATOM      2  C   UNL     1       2.869  -0.258   2.549  0.00  0.00    +0.000 A 
ATOM      3  C   UNL     1       3.636  -0.018   3.692  0.00  0.00    +0.000 A 
ATOM      4  C   UNL     1       4.778   0.760   3.571  0.00  0.00    +0.000 A 
ATOM      5  N   UNL     1       5.176   1.327   2.412  0.00  0.00    +0.000 NA
ATOM      6  C   UNL     1       4.412   1.086   1.319  0.00  0.00    +0.000 A 
ENDROOT
BRANCH   1   8
ATOM      7  N   UNL     1       1.207  -0.184   0.131  0.00  0.00    +0.000 N 
ATOM      8  C   UNL     1       2.544   0.104   0.061  0.00  0.00    +0.000 C 
ATOM      9  O   UNL     1       3.108   0.216  -1.017  0.00  0.00    +0.000 OA
ATOM     10  H   UNL     1       0.712  -0.222  -0.753  0.00  0.00    +0.000 HD
ATOM     11  H   UNL     1       0.657  -0.041   0.967  0.00  0.00    +0.000 HD
ENDBRANCH   1   8
BRANCH   4  12
ATOM     12  O   UNL     1       5.526   0.971   4.712  0.00  0.00    +0.000 OA
BRANCH  12  13
ATOM     13  C   UNL     1       6.877   1.316   4.398  0.00  0.00    +0.000 C 
BRANCH  13  14
ATOM     14  C   UNL     1       7.612   1.611   5.677  0.00  0.00    +0.000 A 
ATOM     15  C   UNL     1       7.747   2.920   6.151  0.00  0.00    +0.000 A 
ATOM     16  C   UNL     1       8.428   3.155   7.342  0.00  0.00    +0.000 A 
ATOM     17  C   UNL     1       8.944   2.063   8.017  0.00  0.00    +0.000 A 
ATOM     18 CL   UNL     1       9.780   2.263   9.501  0.00  0.00    +0.000 Cl
ATOM     19  N   UNL     1       8.838   0.786   7.598  0.00  0.00    +0.000 NA
ATOM     20  C   UNL     1       8.170   0.590   6.439  0.00  0.00    +0.000 A 
ENDBRANCH  13  14
ENDBRANCH  12  13
ENDBRANCH   4  12
TORSDOF 4
