REMARK  Name = 
REMARK  6 active torsions:
REMARK  status: ('A' for Active; 'I' for Inactive)
REMARK    1  A    between atoms: C_2  and  C_19
REMARK    2  A    between atoms: N_3  and  C_4
REMARK    3  A    between atoms: C_4  and  C_5
REMARK    4  A    between atoms: C_8  and  O_9
REMARK    5  A    between atoms: O_9  and  C_10
REMARK    6  A    between atoms: C_10  and  C_11
REMARK                            x       y       z     vdW  Elec       q    Type
REMARK                         _______ _______ _______ _____ _____    ______ ____
ROOT
ATOM      1  O   UNL     1       1.179   3.186  -0.873  0.00  0.00    +0.000 OA
ATOM      2  C   UNL     1       2.086   2.372  -1.030  0.00  0.00    +0.000 C 
ATOM      3  N   UNL     1       2.704   1.755   0.026  0.00  0.00    +0.000 N 
ATOM      4  H   UNL     1       3.543   1.208  -0.136  0.00  0.00    +0.000 HD
ENDROOT
BRANCH   2   5
ATOM      5  C   UNL     1       2.527   1.967  -2.369  0.00  0.00    +0.000 A 
ATOM      6  C   UNL     1       1.675   2.140  -3.454  0.00  0.00    +0.000 A 
ATOM      7  S   UNL     1       2.337   1.616  -4.935  0.00  0.00    +0.000 S 
ATOM      8  C   UNL     1       3.803   1.182  -4.189  0.00  0.00    +0.000 A 
ATOM      9  N   UNL     1       4.840   0.689  -4.918  0.00  0.00    +0.000 NA
ATOM     10  C   UNL     1       5.906   0.442  -4.233  0.00  0.00    +0.000 A 
ATOM     11  N   UNL     1       6.022   0.625  -2.879  0.00  0.00    +0.000 N 
ATOM     12  C   UNL     1       4.976   1.040  -2.091  0.00  0.00    +0.000 A 
ATOM     13  O   UNL     1       5.065   1.054  -0.866  0.00  0.00    +0.000 OA
ATOM     14  C   UNL     1       3.771   1.395  -2.823  0.00  0.00    +0.000 A 
ATOM     15  H   UNL     1       6.874   0.380  -2.397  0.00  0.00    +0.000 HD
ENDBRANCH   2   5
BRANCH   3  16
ATOM     16  C   UNL     1       2.358   2.034   1.395  0.00  0.00    +0.000 C 
BRANCH  16  17
ATOM     17  C   UNL     1       3.286   3.033   2.019  0.00  0.00    +0.000 A 
ATOM     18  C   UNL     1       3.074   4.409   1.896  0.00  0.00    +0.000 A 
ATOM     19  C   UNL     1       3.935   5.301   2.532  0.00  0.00    +0.000 A 
ATOM     20  C   UNL     1       4.977   4.785   3.284  0.00  0.00    +0.000 A 
ATOM     21  N   UNL     1       5.236   3.464   3.394  0.00  0.00    +0.000 NA
ATOM     22  C   UNL     1       4.396   2.624   2.749  0.00  0.00    +0.000 A 
BRANCH  20  23
ATOM     23  O   UNL     1       5.794   5.691   3.932  0.00  0.00    +0.000 OA
BRANCH  23  24
ATOM     24  C   UNL     1       6.479   5.087   5.034  0.00  0.00    +0.000 C 
BRANCH  24  25
ATOM     25  C   UNL     1       7.396   6.074   5.709  0.00  0.00    +0.000 A 
ATOM     26  C   UNL     1       7.625   6.011   7.089  0.00  0.00    +0.000 A 
ATOM     27  C   UNL     1       8.542   6.875   7.681  0.00  0.00    +0.000 A 
ATOM     28  C   UNL     1       9.212   7.774   6.870  0.00  0.00    +0.000 A 
ATOM     29  N   UNL     1       9.030   7.860   5.536  0.00  0.00    +0.000 NA
ATOM     30  C   UNL     1       8.132   7.007   4.987  0.00  0.00    +0.000 A 
ENDBRANCH  24  25
ENDBRANCH  23  24
ENDBRANCH  20  23
ENDBRANCH  16  17
ENDBRANCH   3  16
TORSDOF 6
