REMARK  Name = 
REMARK  7 active torsions:
REMARK  status: ('A' for Active; 'I' for Inactive)
REMARK    1  A    between atoms: C_2  and  C_20
REMARK    2  A    between atoms: N_3  and  C_4
REMARK    3  A    between atoms: C_4  and  C_5
REMARK    4  A    between atoms: C_8  and  C_9
REMARK    5  A    between atoms: C_9  and  N_10
REMARK    6  A    between atoms: N_10  and  C_11
REMARK    7  A    between atoms: C_11  and  C_12
REMARK                            x       y       z     vdW  Elec       q    Type
REMARK                         _______ _______ _______ _____ _____    ______ ____
ROOT
ATOM      1  C   UNL     1       3.174   3.325  -1.493  0.00  0.00    +0.000 A 
ATOM      2  C   UNL     1       2.764   4.660  -1.522  0.00  0.00    +0.000 A 
ATOM      3  C   UNL     1       3.651   5.664  -1.914  0.00  0.00    +0.000 A 
ATOM      4  C   UNL     1       4.978   5.363  -2.251  0.00  0.00    +0.000 A 
ATOM      5  C   UNL     1       5.358   4.013  -2.300  0.00  0.00    +0.000 A 
ATOM      6  C   UNL     1       4.464   3.003  -1.932  0.00  0.00    +0.000 A 
ENDROOT
BRANCH   1   7
ATOM      7  C   UNL     1       2.224   2.257  -1.021  0.00  0.00    +0.000 C 
BRANCH   7  10
ATOM      8  O   UNL     1      -0.369   3.025  -1.811  0.00  0.00    +0.000 OA
ATOM      9  C   UNL     1       0.231   2.173  -2.464  0.00  0.00    +0.000 C 
ATOM     10  N   UNL     1       1.470   1.709  -2.113  0.00  0.00    +0.000 N 
ATOM     11  H   UNL     1       1.995   1.149  -2.775  0.00  0.00    +0.000 HD
BRANCH   9  12
ATOM     12  C   UNL     1      -0.378   1.548  -3.645  0.00  0.00    +0.000 A 
ATOM     13  C   UNL     1      -1.754   1.582  -3.811  0.00  0.00    +0.000 A 
ATOM     14  S   UNL     1      -2.297   0.777  -5.211  0.00  0.00    +0.000 S 
ATOM     15  C   UNL     1      -0.704   0.403  -5.677  0.00  0.00    +0.000 A 
ATOM     16  N   UNL     1      -0.454  -0.271  -6.831  0.00  0.00    +0.000 NA
ATOM     17  C   UNL     1       0.799  -0.446  -7.086  0.00  0.00    +0.000 A 
ATOM     18  N   UNL     1       1.826  -0.021  -6.288  0.00  0.00    +0.000 N 
ATOM     19  C   UNL     1       1.620   0.593  -5.076  0.00  0.00    +0.000 A 
ATOM     20  O   UNL     1       2.558   0.838  -4.323  0.00  0.00    +0.000 OA
ATOM     21  C   UNL     1       0.228   0.860  -4.762  0.00  0.00    +0.000 A 
ATOM     22  H   UNL     1       2.787  -0.213  -6.529  0.00  0.00    +0.000 HD
ENDBRANCH   9  12
ENDBRANCH   7  10
ENDBRANCH   1   7
BRANCH   4  23
ATOM     23  C   UNL     1       6.003   6.418  -2.608  0.00  0.00    +0.000 C 
BRANCH  23  24
ATOM     24  N   UNL     1       5.753   7.773  -2.106  0.00  0.00    +0.000 NA
ATOM     25  H   UNL     1       4.884   8.102  -2.511  0.00  0.00    +0.000 HD
BRANCH  24  26
ATOM     26  C   UNL     1       5.724   7.888  -0.646  0.00  0.00    +0.000 C 
BRANCH  26  27
ATOM     27  C   UNL     1       5.554   9.361  -0.204  0.00  0.00    +0.000 C 
ATOM     28  C   UNL     1       5.556   9.475   1.332  0.00  0.00    +0.000 C 
ATOM     29  C   UNL     1       4.193   9.168   1.951  0.00  0.00    +0.000 C 
ATOM     30  N   UNL     1       3.169  10.064   1.416  0.00  0.00    +0.000 NA
ATOM     31  C   UNL     1       3.020   9.854  -0.023  0.00  0.00    +0.000 C 
ATOM     32  C   UNL     1       4.320  10.086  -0.787  0.00  0.00    +0.000 C 
ATOM     33  H   UNL     1       3.445  11.033   1.589  0.00  0.00    +0.000 HD
ENDBRANCH  26  27
ENDBRANCH  24  26
ENDBRANCH  23  24
ENDBRANCH   4  23
TORSDOF 7
