REMARK  Name = 
REMARK  6 active torsions:
REMARK  status: ('A' for Active; 'I' for Inactive)
REMARK    1  A    between atoms: N_1  and  C_2
REMARK    2  A    between atoms: C_2  and  C_3
REMARK    3  A    between atoms: C_6  and  C_7
REMARK    4  A    between atoms: C_7  and  O_8
REMARK    5  A    between atoms: O_8  and  C_9
REMARK    6  A    between atoms: C_12  and  C_13
REMARK                            x       y       z     vdW  Elec       q    Type
REMARK                         _______ _______ _______ _____ _____    ______ ____
ROOT
ATOM      1  C   UNL     1       4.214   2.257  -5.062  0.00  0.00    +0.000 C 
ENDROOT
BRANCH   1   5
ATOM      2  C   UNL     1       3.056   0.487  -1.295  0.00  0.00    +0.000 A 
ATOM      3  C   UNL     1       2.116   1.167  -2.083  0.00  0.00    +0.000 A 
ATOM      4  C   UNL     1       2.494   1.766  -3.285  0.00  0.00    +0.000 A 
ATOM      5  C   UNL     1       3.823   1.702  -3.717  0.00  0.00    +0.000 A 
ATOM      6  C   UNL     1       4.771   1.042  -2.920  0.00  0.00    +0.000 A 
ATOM      7  C   UNL     1       4.389   0.436  -1.722  0.00  0.00    +0.000 A 
BRANCH   2   8
ATOM      8  C   UNL     1       2.626  -0.169  -0.009  0.00  0.00    +0.000 C 
BRANCH   8   9
ATOM      9  N   UNL     1       1.608  -1.186  -0.248  0.00  0.00    +0.000 NA
ATOM     10  H   UNL     1       1.378  -1.645   0.629  0.00  0.00    +0.000 HD
ATOM     11  H   UNL     1       1.998  -1.900  -0.862  0.00  0.00    +0.000 HD
ENDBRANCH   8   9
ENDBRANCH   2   8
ENDBRANCH   1   5
BRANCH   1  12
ATOM     12  O   UNL     1       3.876   3.641  -5.152  0.00  0.00    +0.000 OA
BRANCH  12  13
ATOM     13  C   UNL     1       4.190   4.252  -6.337  0.00  0.00    +0.000 A 
ATOM     14  C   UNL     1       4.808   3.633  -7.428  0.00  0.00    +0.000 A 
ATOM     15  C   UNL     1       5.120   4.368  -8.571  0.00  0.00    +0.000 A 
ATOM     16  C   UNL     1       4.815   5.732  -8.649  0.00  0.00    +0.000 A 
ATOM     17  C   UNL     1       4.156   6.339  -7.571  0.00  0.00    +0.000 A 
ATOM     18  C   UNL     1       3.856   5.604  -6.420  0.00  0.00    +0.000 A 
BRANCH  16  19
ATOM     19  C   UNL     1       5.209   6.545  -9.858  0.00  0.00    +0.000 C 
ATOM     20  F   UNL     1       5.901   5.831 -10.790  0.00  0.00    +0.000 F 
ATOM     21  F   UNL     1       4.138   7.072 -10.511  0.00  0.00    +0.000 F 
ATOM     22  F   UNL     1       6.007   7.599  -9.533  0.00  0.00    +0.000 F 
ENDBRANCH  16  19
ENDBRANCH  12  13
ENDBRANCH   1  12
TORSDOF 6
