REMARK  Name = 
REMARK  7 active torsions:
REMARK  status: ('A' for Active; 'I' for Inactive)
REMARK    1  A    between atoms: C_2  and  C_4
REMARK    2  A    between atoms: C_7  and  C_8
REMARK    3  A    between atoms: C_8  and  C_9
REMARK    4  A    between atoms: C_9  and  C_10
REMARK    5  A    between atoms: C_13  and  N_14
REMARK    6  A    between atoms: C_13  and  C_15
REMARK    7  A    between atoms: C_15  and  O_16
REMARK                            x       y       z     vdW  Elec       q    Type
REMARK                         _______ _______ _______ _____ _____    ______ ____
ROOT
ATOM      1  C   UNL     1       6.809   3.711  -6.430  0.00  0.00    +0.000 C 
ENDROOT
BRANCH   1   2
ATOM      2  C   UNL     1       5.364   3.242  -6.717  0.00  0.00    +0.000 C 
ATOM      3  C   UNL     1       4.526   4.315  -7.430  0.00  0.00    +0.000 C 
ATOM      4  C   UNL     1       3.153   3.795  -7.873  0.00  0.00    +0.000 C 
ATOM      5  C   UNL     1       3.231   2.524  -8.745  0.00  0.00    +0.000 C 
ATOM      6  C   UNL     1       4.051   1.452  -8.002  0.00  0.00    +0.000 C 
ATOM      7  C   UNL     1       5.423   1.940  -7.537  0.00  0.00    +0.000 C 
BRANCH   5   8
ATOM      8  N   UNL     1       3.863   2.854 -10.044  0.00  0.00    +0.000 NA
ATOM      9  H   UNL     1       4.841   3.104  -9.901  0.00  0.00    +0.000 HD
ATOM     10  H   UNL     1       3.431   3.700 -10.417  0.00  0.00    +0.000 HD
ENDBRANCH   5   8
BRANCH   5  11
ATOM     11  C   UNL     1       1.813   1.967  -9.034  0.00  0.00    +0.000 C 
BRANCH  11  12
ATOM     12  O   UNL     1       1.019   2.920  -9.742  0.00  0.00    +0.000 OA
ATOM     13  H   UNL     1       1.447   3.007 -10.612  0.00  0.00    +0.000 HD
ENDBRANCH  11  12
ENDBRANCH   5  11
ENDBRANCH   1   2
BRANCH   1  14
ATOM     14  C   UNL     1       6.913   4.955  -5.543  0.00  0.00    +0.000 C 
BRANCH  14  18
ATOM     15  C   UNL     1      11.010   6.098  -4.753  0.00  0.00    +0.000 A 
ATOM     16  C   UNL     1      10.350   6.587  -5.885  0.00  0.00    +0.000 A 
ATOM     17  C   UNL     1       9.028   6.206  -6.143  0.00  0.00    +0.000 A 
ATOM     18  C   UNL     1       8.352   5.339  -5.273  0.00  0.00    +0.000 A 
ATOM     19  C   UNL     1       9.034   4.822  -4.164  0.00  0.00    +0.000 A 
ATOM     20  C   UNL     1      10.357   5.197  -3.906  0.00  0.00    +0.000 A 
BRANCH  15  22
ATOM     21  N   UNL     1      12.803   7.743  -4.854  0.00  0.00    +0.000 N 
ATOM     22  C   UNL     1      12.403   6.506  -4.425  0.00  0.00    +0.000 C 
ATOM     23  O   UNL     1      13.145   5.796  -3.764  0.00  0.00    +0.000 OA
ATOM     24  H   UNL     1      13.706   8.059  -4.525  0.00  0.00    +0.000 HD
ATOM     25  H   UNL     1      12.144   8.446  -5.158  0.00  0.00    +0.000 HD
ENDBRANCH  15  22
ENDBRANCH  14  18
ENDBRANCH   1  14
TORSDOF 7
