REMARK  Name = 
REMARK  7 active torsions:
REMARK  status: ('A' for Active; 'I' for Inactive)
REMARK    1  A    between atoms: C_1  and  C_2
REMARK    2  A    between atoms: C_7  and  C_8
REMARK    3  A    between atoms: C_13  and  C_14
REMARK    4  A    between atoms: C_14  and  C_15
REMARK    5  A    between atoms: C_15  and  N_16
REMARK    6  A    between atoms: N_16  and  C_17
REMARK    7  A    between atoms: C_20  and  C_21
REMARK                            x       y       z     vdW  Elec       q    Type
REMARK                         _______ _______ _______ _____ _____    ______ ____
ROOT
ATOM      1  C   UNL     1       2.175  -2.648  -0.917  0.00  0.00    +0.000 C 
ATOM      2  C   UNL     1       2.545  -1.660  -2.017  0.00  0.00    +0.000 C 
ATOM      3  C   UNL     1       2.185  -0.220  -1.597  0.00  0.00    +0.000 C 
ATOM      4  N   UNL     1       2.744   0.773  -2.521  0.00  0.00    +0.000 N 
ATOM      5  C   UNL     1       1.909   1.528  -3.322  0.00  0.00    +0.000 A 
ATOM      6  C   UNL     1       2.338   2.783  -3.749  0.00  0.00    +0.000 A 
ATOM      7  C   UNL     1       1.507   3.599  -4.519  0.00  0.00    +0.000 A 
ATOM      8  C   UNL     1       0.240   3.122  -4.852  0.00  0.00    +0.000 A 
ATOM      9  C   UNL     1      -0.148   1.868  -4.392  0.00  0.00    +0.000 A 
ATOM     10  N   UNL     1       0.670   1.084  -3.638  0.00  0.00    +0.000 NA
ATOM     11  C   UNL     1       4.144   0.556  -2.910  0.00  0.00    +0.000 C 
ATOM     12  C   UNL     1       4.384  -0.913  -3.290  0.00  0.00    +0.000 C 
ATOM     13  O   UNL     1       3.962  -1.800  -2.246  0.00  0.00    +0.000 OA
ENDROOT
BRANCH   7  14
ATOM     14  C   UNL     1       1.962   4.963  -4.957  0.00  0.00    +0.000 C 
ATOM     15  F   UNL     1       3.211   5.289  -4.522  0.00  0.00    +0.000 F 
ATOM     16  F   UNL     1       1.998   5.083  -6.313  0.00  0.00    +0.000 F 
ATOM     17  F   UNL     1       1.141   5.954  -4.515  0.00  0.00    +0.000 F 
ENDBRANCH   7  14
BRANCH   9  18
ATOM     18  C   UNL     1      -1.519   1.329  -4.742  0.00  0.00    +0.000 C 
BRANCH  18  19
ATOM     19  C   UNL     1      -1.504   0.579  -6.079  0.00  0.00    +0.000 C 
BRANCH  19  20
ATOM     20  N   UNL     1      -2.852   0.111  -6.447  0.00  0.00    +0.000 N 
ATOM     21  H   UNL     1      -3.561   0.836  -6.362  0.00  0.00    +0.000 HD
BRANCH  20  22
ATOM     22  C   UNL     1      -2.998  -0.607  -7.646  0.00  0.00    +0.000 A 
ATOM     23  C   UNL     1      -1.980  -1.395  -8.195  0.00  0.00    +0.000 A 
ATOM     24  C   UNL     1      -2.182  -2.142  -9.362  0.00  0.00    +0.000 A 
ATOM     25  C   UNL     1      -3.427  -2.152  -9.991  0.00  0.00    +0.000 A 
ATOM     26  C   UNL     1      -4.472  -1.407  -9.439  0.00  0.00    +0.000 A 
ATOM     27  C   UNL     1      -4.257  -0.656  -8.269  0.00  0.00    +0.000 A 
BRANCH  25  28
ATOM     28  C   UNL     1      -3.572  -2.955 -11.234  0.00  0.00    +0.000 C 
ATOM     29  N   UNL     1      -4.826  -3.385 -11.570  0.00  0.00    +0.000 N 
ATOM     30  O   UNL     1      -2.605  -3.260 -11.921  0.00  0.00    +0.000 OA
ATOM     31  H   UNL     1      -5.592  -3.383 -10.914  0.00  0.00    +0.000 HD
ATOM     32  H   UNL     1      -4.873  -4.034 -12.347  0.00  0.00    +0.000 HD
ENDBRANCH  25  28
ENDBRANCH  20  22
ENDBRANCH  19  20
ENDBRANCH  18  19
ENDBRANCH   9  18
TORSDOF 6
