REMARK  Name = 
REMARK  3 active torsions:
REMARK  status: ('A' for Active; 'I' for Inactive)
REMARK    1  A    between atoms: C_2  and  C_4
REMARK    2  A    between atoms: N_8  and  C_9
REMARK    3  A    between atoms: C_9  and  C_10
REMARK                            x       y       z     vdW  Elec       q    Type
REMARK                         _______ _______ _______ _____ _____    ______ ____
ROOT
ATOM      1  C   UNL     1       3.701   1.310   3.427  0.00  0.00    +0.000 A 
ATOM      2  C   UNL     1       4.228   0.713   2.288  0.00  0.00    +0.000 A 
ATOM      3  C   UNL     1       4.852  -0.530   2.400  0.00  0.00    +0.000 A 
ATOM      4  C   UNL     1       4.904  -1.177   3.638  0.00  0.00    +0.000 A 
ATOM      5  N   UNL     1       5.561  -2.429   3.668  0.00  0.00    +0.000 N 
ATOM      6  N   UNL     1       4.377  -0.619   4.743  0.00  0.00    +0.000 NA
ATOM      7  C   UNL     1       3.819   0.620   4.627  0.00  0.00    +0.000 A 
ATOM      8  H   UNL     1       6.539  -2.286   3.435  0.00  0.00    +0.000 HD
ENDROOT
BRANCH   1  10
ATOM      9  N   UNL     1       2.455   3.028   2.247  0.00  0.00    +0.000 N 
ATOM     10  C   UNL     1       3.059   2.636   3.413  0.00  0.00    +0.000 C 
ATOM     11  O   UNL     1       3.041   3.350   4.405  0.00  0.00    +0.000 OA
ATOM     12  H   UNL     1       1.938   3.899   2.280  0.00  0.00    +0.000 HD
ATOM     13  H   UNL     1       2.228   2.381   1.505  0.00  0.00    +0.000 HD
ENDBRANCH   1  10
BRANCH   5  14
ATOM     14  C   UNL     1       5.325  -3.425   4.732  0.00  0.00    +0.000 C 
ATOM     15  C   UNL     1       5.159  -4.854   4.216  0.00  0.00    +0.000 C 
ATOM     16  C   UNL     1       3.995  -4.150   4.833  0.00  0.00    +0.000 C 
BRANCH  14  17
ATOM     17  C   UNL     1       6.127  -3.233   6.017  0.00  0.00    +0.000 A 
ATOM     18  C   UNL     1       5.608  -2.489   7.093  0.00  0.00    +0.000 A 
ATOM     19  C   UNL     1       6.303  -2.353   8.298  0.00  0.00    +0.000 A 
ATOM     20  C   UNL     1       7.540  -2.967   8.449  0.00  0.00    +0.000 A 
ATOM     21 CL   UNL     1       8.391  -2.828   9.938  0.00  0.00    +0.000 Cl
ATOM     22  C   UNL     1       8.091  -3.700   7.402  0.00  0.00    +0.000 A 
ATOM     23  C   UNL     1       7.392  -3.823   6.196  0.00  0.00    +0.000 A 
ENDBRANCH  14  17
ENDBRANCH   5  14
TORSDOF 3
