REMARK  Name = 
REMARK  4 active torsions:
REMARK  status: ('A' for Active; 'I' for Inactive)
REMARK    1  A    between atoms: C_1  and  O_2
REMARK    2  A    between atoms: O_2  and  C_3
REMARK    3  A    between atoms: N_11  and  C_12
REMARK    4  A    between atoms: C_12  and  C_13
REMARK                            x       y       z     vdW  Elec       q    Type
REMARK                         _______ _______ _______ _____ _____    ______ ____
ROOT
ATOM      1  C   UNL     1       3.543  -0.864  -0.197  0.00  0.00    +0.000 A 
ATOM      2  C   UNL     1       3.253  -0.726  -1.559  0.00  0.00    +0.000 A 
ATOM      3  C   UNL     1       3.793  -1.601  -2.505  0.00  0.00    +0.000 A 
ATOM      4  C   UNL     1       4.623  -2.626  -2.093  0.00  0.00    +0.000 A 
ATOM      5  C   UNL     1       4.981  -2.704  -0.746  0.00  0.00    +0.000 A 
ATOM      6  C   UNL     1       4.431  -1.862   0.216  0.00  0.00    +0.000 A 
ATOM      7  C   UNL     1       5.977  -3.802  -0.558  0.00  0.00    +0.000 C 
ATOM      8  C   UNL     1       6.291  -4.151  -2.034  0.00  0.00    +0.000 C 
ATOM      9  N   UNL     1       5.165  -3.667  -2.853  0.00  0.00    +0.000 N 
ENDROOT
BRANCH   1  11
ATOM     10  C   UNL     1       2.306   1.074   0.391  0.00  0.00    +0.000 C 
ATOM     11  O   UNL     1       2.999  -0.101   0.801  0.00  0.00    +0.000 OA
ENDBRANCH   1  11
BRANCH   9  12
ATOM     12  C   UNL     1       5.248  -3.604  -4.314  0.00  0.00    +0.000 C 
BRANCH  12  13
ATOM     13  C   UNL     1       4.223  -4.543  -5.003  0.00  0.00    +0.000 C 
ATOM     14  C   UNL     1       4.354  -4.525  -6.541  0.00  0.00    +0.000 C 
ATOM     15  C   UNL     1       3.572  -3.412  -7.250  0.00  0.00    +0.000 C 
ATOM     16  N   UNL     1       2.185  -3.281  -6.816  0.00  0.00    +0.000 NA
ATOM     17  C   UNL     1       2.078  -3.171  -5.366  0.00  0.00    +0.000 C 
ATOM     18  C   UNL     1       2.744  -4.334  -4.632  0.00  0.00    +0.000 C 
ATOM     19  H   UNL     1       1.639  -4.079  -7.138  0.00  0.00    +0.000 HD
ENDBRANCH  12  13
ENDBRANCH   9  12
TORSDOF 3
