REMARK  Name = 
REMARK  9 active torsions:
REMARK  status: ('A' for Active; 'I' for Inactive)
REMARK    1  A    between atoms: C_1  and  C_2
REMARK    2  A    between atoms: N_6  and  C_7
REMARK    3  A    between atoms: C_11  and  C_12
REMARK    4  A    between atoms: C_12  and  C_13
REMARK    5  A    between atoms: C_12  and  C_14
REMARK    6  A    between atoms: C_12  and  C_15
REMARK    7  A    between atoms: C_15  and  N_16
REMARK    8  A    between atoms: N_16  and  C_17
REMARK    9  A    between atoms: C_20  and  C_21
REMARK                            x       y       z     vdW  Elec       q    Type
REMARK                         _______ _______ _______ _____ _____    ______ ____
ROOT
ATOM      1  C   UNL     1      -1.389  -4.517  -0.884  0.00  0.00    +0.000 C 
ATOM      2  C   UNL     1      -1.977  -5.898  -1.252  0.00  0.00    +0.000 C 
ATOM      3  C   UNL     1      -1.001  -4.544   0.617  0.00  0.00    +0.000 C 
ENDROOT
BRANCH   1   8
ATOM      4  C   UNL     1       1.815  -2.721  -2.135  0.00  0.00    +0.000 A 
ATOM      5  C   UNL     1       2.267  -3.623  -3.101  0.00  0.00    +0.000 A 
ATOM      6  C   UNL     1       1.555  -4.786  -3.391  0.00  0.00    +0.000 A 
ATOM      7  C   UNL     1       0.376  -5.079  -2.707  0.00  0.00    +0.000 A 
ATOM      8  C   UNL     1      -0.122  -4.217  -1.721  0.00  0.00    +0.000 A 
ATOM      9  C   UNL     1       0.610  -3.039  -1.480  0.00  0.00    +0.000 A 
BRANCH   4  15
ATOM     10  C   UNL     1       0.673   0.568  -0.605  0.00  0.00    +0.000 C 
ATOM     11  C   UNL     1       2.177   0.386  -0.374  0.00  0.00    +0.000 C 
ATOM     12  C   UNL     1       3.013   1.204  -1.372  0.00  0.00    +0.000 C 
ATOM     13  C   UNL     1       2.984   0.617  -2.786  0.00  0.00    +0.000 C 
ATOM     14  C   UNL     1       3.346  -0.870  -2.793  0.00  0.00    +0.000 C 
ATOM     15  N   UNL     1       2.494  -1.559  -1.829  0.00  0.00    +0.000 N 
ATOM     16  C   UNL     1       2.584  -1.092  -0.444  0.00  0.00    +0.000 C 
ENDBRANCH   4  15
ENDBRANCH   1   8
BRANCH   1  17
ATOM     17  C   UNL     1      -2.471  -3.413  -1.131  0.00  0.00    +0.000 C 
BRANCH  17  18
ATOM     18  N   UNL     1      -3.666  -3.597  -0.301  0.00  0.00    +0.000 N 
ATOM     19  H   UNL     1      -3.911  -4.554  -0.080  0.00  0.00    +0.000 HD
BRANCH  18  20
ATOM     20  C   UNL     1      -4.786  -2.781  -0.432  0.00  0.00    +0.000 A 
ATOM     21  C   UNL     1      -4.827  -1.642  -1.238  0.00  0.00    +0.000 A 
ATOM     22  C   UNL     1      -5.940  -0.797  -1.241  0.00  0.00    +0.000 A 
ATOM     23  C   UNL     1      -7.036  -1.066  -0.417  0.00  0.00    +0.000 A 
ATOM     24  C   UNL     1      -7.011  -2.190   0.414  0.00  0.00    +0.000 A 
ATOM     25  C   UNL     1      -5.888  -3.030   0.404  0.00  0.00    +0.000 A 
BRANCH  23  26
ATOM     26  C   UNL     1      -8.168  -0.104  -0.416  0.00  0.00    +0.000 C 
ATOM     27  N   UNL     1      -9.401  -0.574  -0.059  0.00  0.00    +0.000 N 
ATOM     28  O   UNL     1      -8.016   1.065  -0.746  0.00  0.00    +0.000 OA
ATOM     29  H   UNL     1      -9.614  -1.551   0.068  0.00  0.00    +0.000 HD
ATOM     30  H   UNL     1     -10.171   0.078  -0.137  0.00  0.00    +0.000 HD
ENDBRANCH  23  26
ENDBRANCH  18  20
ENDBRANCH  17  18
ENDBRANCH   1  17
TORSDOF 6
