REMARK  Name = 
REMARK  5 active torsions:
REMARK  status: ('A' for Active; 'I' for Inactive)
REMARK    1  A    between atoms: N_1  and  C_2
REMARK    2  A    between atoms: C_2  and  C_3
REMARK    3  A    between atoms: N_6  and  C_7
REMARK    4  A    between atoms: C_7  and  N_8
REMARK    5  A    between atoms: C_13  and  C_14
REMARK                            x       y       z     vdW  Elec       q    Type
REMARK                         _______ _______ _______ _____ _____    ______ ____
ROOT
ATOM      1  N   UNL     1       2.029   5.317   1.553  0.00  0.00    +0.000 N 
ATOM      2  C   UNL     1       2.793   6.365   1.102  0.00  0.00    +0.000 A 
ATOM      3  N   UNL     1       3.278   7.084   2.095  0.00  0.00    +0.000 NA
ATOM      4  C   UNL     1       2.800   6.488   3.234  0.00  0.00    +0.000 A 
ATOM      5  C   UNL     1       2.905   6.865   4.585  0.00  0.00    +0.000 A 
ATOM      6  C   UNL     1       2.221   6.077   5.524  0.00  0.00    +0.000 A 
ATOM      7  C   UNL     1       1.541   4.939   5.072  0.00  0.00    +0.000 A 
ATOM      8  N   UNL     1       1.448   4.514   3.783  0.00  0.00    +0.000 NA
ATOM      9  C   UNL     1       2.060   5.351   2.924  0.00  0.00    +0.000 A 
ENDROOT
BRANCH   6  10
ATOM     10  C   UNL     1       2.115   6.405   6.967  0.00  0.00    +0.000 C 
ATOM     11  N   UNL     1       2.732   7.536   7.428  0.00  0.00    +0.000 N 
ATOM     12  O   UNL     1       1.483   5.701   7.735  0.00  0.00    +0.000 OA
ATOM     13  H   UNL     1       3.310   8.149   6.876  0.00  0.00    +0.000 HD
ATOM     14  H   UNL     1       2.655   7.730   8.418  0.00  0.00    +0.000 HD
ENDBRANCH   6  10
BRANCH   1  15
ATOM     15  C   UNL     1       1.246   4.389   0.743  0.00  0.00    +0.000 C 
BRANCH  15  19
ATOM     16  C   UNL     1       3.084   0.855  -0.942  0.00  0.00    +0.000 C 
ATOM     17  C   UNL     1       3.936   1.868  -0.164  0.00  0.00    +0.000 C 
ATOM     18  C   UNL     1       3.088   2.833   0.664  0.00  0.00    +0.000 C 
ATOM     19  N   UNL     1       2.136   3.606  -0.156  0.00  0.00    +0.000 NA
ATOM     20  C   UNL     1       1.306   2.703  -0.988  0.00  0.00    +0.000 C 
ATOM     21  C   UNL     1       2.102   1.664  -1.797  0.00  0.00    +0.000 C 
BRANCH  16  22
ATOM     22  C   UNL     1       2.449  -0.187   0.007  0.00  0.00    +0.000 C 
BRANCH  22  23
ATOM     23  N   UNL     1       1.608  -1.184  -0.649  0.00  0.00    +0.000 NA
ATOM     24  H   UNL     1       1.264  -1.840   0.055  0.00  0.00    +0.000 HD
ATOM     25  H   UNL     1       2.175  -1.750  -1.287  0.00  0.00    +0.000 HD
ENDBRANCH  22  23
ENDBRANCH  16  22
ENDBRANCH  15  19
ENDBRANCH   1  15
TORSDOF 5
