REMARK  Name = 
REMARK  9 active torsions:
REMARK  status: ('A' for Active; 'I' for Inactive)
REMARK    1  A    between atoms: C_1  and  N_2
REMARK    2  A    between atoms: N_2  and  C_3
REMARK    3  A    between atoms: N_2  and  C_4
REMARK    4  A    between atoms: C_6  and  C_7
REMARK    5  A    between atoms: C_12  and  N_13
REMARK    6  A    between atoms: N_13  and  C_14
REMARK    7  A    between atoms: C_14  and  C_15
REMARK    8  A    between atoms: C_18  and  O_19
REMARK    9  A    between atoms: O_19  and  C_20
REMARK                            x       y       z     vdW  Elec       q    Type
REMARK                         _______ _______ _______ _____ _____    ______ ____
ROOT
ATOM      1  N   UNL     1       4.465   1.609  -0.981  0.00  0.00    +0.000 N 
ATOM      2  H   UNL     1       5.356   2.104  -1.035  0.00  0.00    +0.000 HD
ENDROOT
BRANCH   1   8
ATOM      3  C   UNL     1       4.653   2.308   1.352  0.00  0.00    +0.000 A 
ATOM      4  C   UNL     1       4.503   1.965   2.715  0.00  0.00    +0.000 A 
ATOM      5  C   UNL     1       3.834   0.802   3.131  0.00  0.00    +0.000 A 
ATOM      6  C   UNL     1       3.241  -0.008   2.167  0.00  0.00    +0.000 A 
ATOM      7  C   UNL     1       3.375   0.305   0.810  0.00  0.00    +0.000 A 
ATOM      8  C   UNL     1       4.156   1.383   0.382  0.00  0.00    +0.000 A 
BRANCH   5   9
ATOM      9  C   UNL     1       3.769   0.509   4.597  0.00  0.00    +0.000 C 
ATOM     10  N   UNL     1       3.168  -0.640   5.013  0.00  0.00    +0.000 N 
ATOM     11  O   UNL     1       4.267   1.270   5.421  0.00  0.00    +0.000 OA
ATOM     12  H   UNL     1       2.802  -1.361   4.411  0.00  0.00    +0.000 HD
ATOM     13  H   UNL     1       3.182  -0.820   6.008  0.00  0.00    +0.000 HD
ENDBRANCH   5   9
BRANCH   3  15
ATOM     14  C   UNL     1       6.022   4.263   1.970  0.00  0.00    +0.000 C 
ATOM     15  N   UNL     1       5.282   3.520   0.944  0.00  0.00    +0.000 N 
ATOM     16  C   UNL     1       4.428   4.382   0.112  0.00  0.00    +0.000 C 
ENDBRANCH   3  15
ENDBRANCH   1   8
BRANCH   1  17
ATOM     17  C   UNL     1       3.958   0.957  -2.194  0.00  0.00    +0.000 C 
ATOM     18  C   UNL     1       3.811   1.908  -3.387  0.00  0.00    +0.000 C 
ATOM     19  C   UNL     1       2.599   1.320  -2.765  0.00  0.00    +0.000 C 
BRANCH  17  20
ATOM     20  C   UNL     1       4.498  -0.441  -2.507  0.00  0.00    +0.000 A 
ATOM     21  C   UNL     1       3.841  -1.601  -2.060  0.00  0.00    +0.000 A 
ATOM     22  C   UNL     1       4.281  -2.886  -2.378  0.00  0.00    +0.000 A 
ATOM     23  C   UNL     1       5.327  -3.054  -3.270  0.00  0.00    +0.000 A 
ATOM     24  C   UNL     1       6.021  -1.926  -3.713  0.00  0.00    +0.000 A 
ATOM     25  C   UNL     1       5.623  -0.642  -3.318  0.00  0.00    +0.000 A 
BRANCH  23  26
ATOM     26  O   UNL     1       5.758  -4.241  -3.771  0.00  0.00    +0.000 OA
BRANCH  26  27
ATOM     27  C   UNL     1       4.852  -5.329  -3.858  0.00  0.00    +0.000 C 
ATOM     28  F   UNL     1       3.550  -4.987  -3.729  0.00  0.00    +0.000 F 
ATOM     29  F   UNL     1       4.989  -5.908  -5.077  0.00  0.00    +0.000 F 
ATOM     30  F   UNL     1       5.162  -6.255  -2.924  0.00  0.00    +0.000 F 
ENDBRANCH  26  27
ENDBRANCH  23  26
ENDBRANCH  17  20
ENDBRANCH   1  17
TORSDOF 7
