REMARK  Name = 
REMARK  4 active torsions:
REMARK  status: ('A' for Active; 'I' for Inactive)
REMARK    1  A    between atoms: C_2  and  C_4
REMARK    2  A    between atoms: C_7  and  N_8
REMARK    3  A    between atoms: N_8  and  C_9
REMARK    4  A    between atoms: C_9  and  C_10
REMARK                            x       y       z     vdW  Elec       q    Type
REMARK                         _______ _______ _______ _____ _____    ______ ____
ROOT
ATOM      1  C   UNL     1       2.762   1.699  -0.281  0.00  0.00    +0.000 A 
ATOM      2  C   UNL     1       4.136   1.535  -0.272  0.00  0.00    +0.000 A 
ATOM      3  N   UNL     1       4.989   2.580  -0.104  0.00  0.00    +0.000 NA
ATOM      4  C   UNL     1       4.438   3.794   0.107  0.00  0.00    +0.000 A 
ATOM      5  C   UNL     1       3.044   3.937   0.067  0.00  0.00    +0.000 A 
ATOM      6  N   UNL     1       2.172   2.915  -0.123  0.00  0.00    +0.000 NA
ENDROOT
BRANCH   1   8
ATOM      7  N   UNL     1       0.530   0.817  -0.543  0.00  0.00    +0.000 N 
ATOM      8  C   UNL     1       1.866   0.530  -0.490  0.00  0.00    +0.000 C 
ATOM      9  O   UNL     1       2.291  -0.610  -0.615  0.00  0.00    +0.000 OA
ATOM     10  H   UNL     1      -0.139   0.075  -0.698  0.00  0.00    +0.000 HD
ATOM     11  H   UNL     1       0.218   1.778  -0.441  0.00  0.00    +0.000 HD
ENDBRANCH   1   8
BRANCH   4  12
ATOM     12  N   UNL     1       5.329   4.840   0.286  0.00  0.00    +0.000 N 
ATOM     13  H   UNL     1       5.741   5.085  -0.611  0.00  0.00    +0.000 HD
BRANCH  12  14
ATOM     14  C   UNL     1       4.885   6.007   1.030  0.00  0.00    +0.000 C 
BRANCH  14  15
ATOM     15  C   UNL     1       6.055   6.787   1.585  0.00  0.00    +0.000 A 
ATOM     16  C   UNL     1       5.919   8.164   1.821  0.00  0.00    +0.000 A 
ATOM     17  C   UNL     1       6.950   8.889   2.423  0.00  0.00    +0.000 A 
ATOM     18  C   UNL     1       8.127   8.247   2.801  0.00  0.00    +0.000 A 
ATOM     19  C   UNL     1       8.274   6.880   2.581  0.00  0.00    +0.000 A 
ATOM     20  C   UNL     1       7.243   6.153   1.984  0.00  0.00    +0.000 A 
ENDBRANCH  14  15
ENDBRANCH  12  14
ENDBRANCH   4  12
TORSDOF 4
