REMARK  Name = 
REMARK  8 active torsions:
REMARK  status: ('A' for Active; 'I' for Inactive)
REMARK    1  A    between atoms: C_1  and  C_2
REMARK    2  A    between atoms: C_2  and  C_3
REMARK    3  A    between atoms: C_2  and  C_4
REMARK    4  A    between atoms: C_2  and  C_5
REMARK    5  A    between atoms: N_7  and  C_8
REMARK    6  A    between atoms: C_8  and  C_9
REMARK    7  A    between atoms: C_12  and  C_13
REMARK    8  A    between atoms: C_22  and  C_23
REMARK                            x       y       z     vdW  Elec       q    Type
REMARK                         _______ _______ _______ _____ _____    ______ ____
ROOT
ATOM      1  C   UNL     1       3.019  -0.956   1.020  0.00  0.00    +0.000 A 
ATOM      2  C   UNL     1       2.850  -2.332   1.075  0.00  0.00    +0.000 A 
ATOM      3  N   UNL     1       3.336  -2.805   2.268  0.00  0.00    +0.000 N 
ATOM      4  C   UNL     1       3.864  -1.766   2.990  0.00  0.00    +0.000 A 
ATOM      5  N   UNL     1       4.428  -1.872   4.212  0.00  0.00    +0.000 NA
ATOM      6  C   UNL     1       4.854  -0.683   4.713  0.00  0.00    +0.000 A 
ATOM      7  C   UNL     1       4.756   0.554   4.080  0.00  0.00    +0.000 A 
ATOM      8  C   UNL     1       4.171   0.600   2.813  0.00  0.00    +0.000 A 
ATOM      9  C   UNL     1       3.695  -0.600   2.242  0.00  0.00    +0.000 A 
ENDROOT
BRANCH   7  10
ATOM     10  C   UNL     1       5.271   1.749   4.794  0.00  0.00    +0.000 C 
ATOM     11  N   UNL     1       5.154   2.974   4.198  0.00  0.00    +0.000 N 
ATOM     12  O   UNL     1       5.788   1.654   5.900  0.00  0.00    +0.000 OA
ATOM     13  H   UNL     1       4.726   3.155   3.305  0.00  0.00    +0.000 HD
ATOM     14  H   UNL     1       5.497   3.771   4.721  0.00  0.00    +0.000 HD
ENDBRANCH   7  10
BRANCH   1  16
ATOM     15  C   UNL     1       1.804  -0.824  -1.205  0.00  0.00    +0.000 C 
ATOM     16  C   UNL     1       2.556  -0.034  -0.108  0.00  0.00    +0.000 C 
ATOM     17  C   UNL     1       3.761   0.659  -0.771  0.00  0.00    +0.000 C 
ATOM     18  C   UNL     1       1.580   1.037   0.422  0.00  0.00    +0.000 C 
ENDBRANCH   1  16
BRANCH   3  19
ATOM     19  C   UNL     1       3.141  -4.166   2.749  0.00  0.00    +0.000 C 
BRANCH  19  20
ATOM     20  C   UNL     1       4.231  -5.120   2.334  0.00  0.00    +0.000 A 
ATOM     21  C   UNL     1       5.555  -4.941   2.753  0.00  0.00    +0.000 A 
ATOM     22  C   UNL     1       6.526  -5.917   2.493  0.00  0.00    +0.000 A 
ATOM     23  C   UNL     1       6.186  -7.094   1.812  0.00  0.00    +0.000 A 
ATOM     24  C   UNL     1       4.874  -7.255   1.353  0.00  0.00    +0.000 A 
ATOM     25  C   UNL     1       3.919  -6.276   1.614  0.00  0.00    +0.000 A 
ATOM     26  F   UNL     1       2.663  -6.479   1.189  0.00  0.00    +0.000 F 
BRANCH  23  27
ATOM     27  C   UNL     1       7.146  -8.212   1.581  0.00  0.00    +0.000 C 
ATOM     28  N   UNL     1       8.418  -8.098   2.071  0.00  0.00    +0.000 N 
ATOM     29  O   UNL     1       6.810  -9.229   0.987  0.00  0.00    +0.000 OA
ATOM     30  H   UNL     1       8.773  -7.325   2.609  0.00  0.00    +0.000 HD
ATOM     31  H   UNL     1       9.030  -8.893   1.932  0.00  0.00    +0.000 HD
ENDBRANCH  23  27
ENDBRANCH  19  20
ENDBRANCH   3  19
TORSDOF 5
