REMARK  Name = 
REMARK  6 active torsions:
REMARK  status: ('A' for Active; 'I' for Inactive)
REMARK    1  A    between atoms: C_2  and  C_25
REMARK    2  A    between atoms: N_3  and  C_4
REMARK    3  A    between atoms: C_4  and  C_5
REMARK    4  A    between atoms: C_8  and  C_9
REMARK    5  A    between atoms: C_9  and  N_10
REMARK    6  A    between atoms: C_11  and  C_13
REMARK                            x       y       z     vdW  Elec       q    Type
REMARK                         _______ _______ _______ _____ _____    ______ ____
ROOT
ATOM      1  C   UNL     1       3.276  -0.380   3.627  0.00  0.00    +0.000 A 
ATOM      2  C   UNL     1       3.786   0.799   4.173  0.00  0.00    +0.000 A 
ATOM      3  C   UNL     1       4.670   0.739   5.247  0.00  0.00    +0.000 A 
ATOM      4  C   UNL     1       5.005  -0.505   5.773  0.00  0.00    +0.000 A 
ATOM      5  N   UNL     1       4.524  -1.666   5.258  0.00  0.00    +0.000 NA
ATOM      6  C   UNL     1       3.679  -1.577   4.205  0.00  0.00    +0.000 A 
ENDROOT
BRANCH   1   7
ATOM      7  C   UNL     1       2.331  -0.362   2.468  0.00  0.00    +0.000 C 
BRANCH   7  10
ATOM      8  O   UNL     1       0.166  -0.320   0.721  0.00  0.00    +0.000 OA
ATOM      9  C   UNL     1      -0.052  -0.277   1.926  0.00  0.00    +0.000 C 
ATOM     10  N   UNL     1       0.951  -0.294   2.873  0.00  0.00    +0.000 N 
ATOM     11  H   UNL     1       0.679  -0.244   3.852  0.00  0.00    +0.000 HD
BRANCH   9  12
ATOM     12  C   UNL     1      -1.450  -0.208   2.459  0.00  0.00    +0.000 A 
ATOM     13  C   UNL     1      -2.515  -0.212   1.565  0.00  0.00    +0.000 A 
ATOM     14  C   UNL     1      -3.807  -0.152   2.076  0.00  0.00    +0.000 A 
ATOM     15  C   UNL     1      -3.989  -0.091   3.453  0.00  0.00    +0.000 A 
ATOM     16  C   UNL     1      -2.866  -0.091   4.271  0.00  0.00    +0.000 A 
ATOM     17  N   UNL     1      -1.594  -0.148   3.812  0.00  0.00    +0.000 NA
ENDBRANCH   9  12
ENDBRANCH   7  10
ENDBRANCH   1   7
BRANCH   4  18
ATOM     18  C   UNL     1       5.945  -0.607   6.949  0.00  0.00    +0.000 C 
BRANCH  18  19
ATOM     19  N   UNL     1       7.323  -0.747   6.539  0.00  0.00    +0.000 N 
ATOM     20  C   UNL     1       8.196   0.307   6.508  0.00  0.00    +0.000 C 
ATOM     21  O   UNL     1       7.858   1.444   6.831  0.00  0.00    +0.000 OA
ATOM     22  H   UNL     1       7.551  -1.610   6.057  0.00  0.00    +0.000 HD
BRANCH  20  23
ATOM     23  C   UNL     1       9.583  -0.004   6.139  0.00  0.00    +0.000 A 
ATOM     24  C   UNL     1      10.607   0.842   6.545  0.00  0.00    +0.000 A 
ATOM     25  S   UNL     1      12.158   0.321   6.064  0.00  0.00    +0.000 S 
ATOM     26  C   UNL     1      11.513  -1.031   5.258  0.00  0.00    +0.000 A 
ATOM     27  N   UNL     1      12.321  -1.898   4.590  0.00  0.00    +0.000 NA
ATOM     28  C   UNL     1      11.697  -2.859   3.995  0.00  0.00    +0.000 A 
ATOM     29  N   UNL     1      10.338  -3.039   4.017  0.00  0.00    +0.000 N 
ATOM     30  C   UNL     1       9.490  -2.224   4.727  0.00  0.00    +0.000 A 
ATOM     31  O   UNL     1       8.292  -2.470   4.808  0.00  0.00    +0.000 OA
ATOM     32  C   UNL     1      10.136  -1.101   5.379  0.00  0.00    +0.000 A 
ATOM     33  H   UNL     1       9.911  -3.827   3.553  0.00  0.00    +0.000 HD
ENDBRANCH  20  23
ENDBRANCH  18  19
ENDBRANCH   4  18
TORSDOF 6
