REMARK  Name = 
REMARK  5 active torsions:
REMARK  status: ('A' for Active; 'I' for Inactive)
REMARK    1  A    between atoms: N_1  and  C_2
REMARK    2  A    between atoms: C_2  and  C_3
REMARK    3  A    between atoms: C_3  and  C_4
REMARK    4  A    between atoms: C_7  and  C_8
REMARK    5  A    between atoms: C_8  and  N_9
REMARK                            x       y       z     vdW  Elec       q    Type
REMARK                         _______ _______ _______ _____ _____    ______ ____
ROOT
ATOM      1  C   UNL     1       4.467  -0.472  -1.378  0.00  0.00    +0.000 A 
ATOM      2  C   UNL     1       5.120  -0.801  -2.571  0.00  0.00    +0.000 A 
ATOM      3  C   UNL     1       6.514  -0.750  -2.657  0.00  0.00    +0.000 A 
ATOM      4  C   UNL     1       7.286  -0.377  -1.548  0.00  0.00    +0.000 A 
ATOM      5  C   UNL     1       6.630  -0.077  -0.345  0.00  0.00    +0.000 A 
ATOM      6  C   UNL     1       5.236  -0.130  -0.260  0.00  0.00    +0.000 A 
ENDROOT
BRANCH   1   7
ATOM      7  C   UNL     1       2.958  -0.454  -1.308  0.00  0.00    +0.000 C 
BRANCH   7   8
ATOM      8  C   UNL     1       2.357  -1.811  -0.928  0.00  0.00    +0.000 C 
BRANCH   8   9
ATOM      9  N   UNL     1       0.895  -1.743  -0.912  0.00  0.00    +0.000 NA
ATOM     10  H   UNL     1       0.515  -2.663  -0.693  0.00  0.00    +0.000 HD
ATOM     11  H   UNL     1       0.552  -1.509  -1.844  0.00  0.00    +0.000 HD
ENDBRANCH   8   9
ENDBRANCH   7   8
ENDBRANCH   1   7
BRANCH   4  12
ATOM     12  C   UNL     1       8.788  -0.286  -1.648  0.00  0.00    +0.000 C 
BRANCH  12  13
ATOM     13  N   UNL     1       9.243   1.047  -2.035  0.00  0.00    +0.000 N 
ATOM     14  C   UNL     1       9.511   2.059  -1.138  0.00  0.00    +0.000 A 
ATOM     15  C   UNL     1      10.027   3.127  -1.841  0.00  0.00    +0.000 A 
ATOM     16  C   UNL     1      10.084   2.749  -3.201  0.00  0.00    +0.000 A 
ATOM     17  N   UNL     1      10.541   3.467  -4.256  0.00  0.00    +0.000 NA
ATOM     18  C   UNL     1      10.477   2.832  -5.443  0.00  0.00    +0.000 A 
ATOM     19  C   UNL     1       9.990   1.549  -5.645  0.00  0.00    +0.000 A 
ATOM     20  C   UNL     1       9.523   0.817  -4.555  0.00  0.00    +0.000 A 
ATOM     21  C   UNL     1       9.585   1.450  -3.309  0.00  0.00    +0.000 A 
ENDBRANCH  12  13
ENDBRANCH   4  12
TORSDOF 5
