REMARK  Name = 
REMARK  10 active torsions:
REMARK  status: ('A' for Active; 'I' for Inactive)
REMARK    1  A    between atoms: C_1  and  O_2
REMARK    2  A    between atoms: O_2  and  C_3
REMARK    3  A    between atoms: C_5  and  C_6
REMARK    4  A    between atoms: C_11  and  N_12
REMARK    5  A    between atoms: N_12  and  C_13
REMARK    6  A    between atoms: C_13  and  C_14
REMARK    7  A    between atoms: C_18  and  C_19
REMARK    8  A    between atoms: N_22  and  C_23
REMARK    9  A    between atoms: C_23  and  C_24
REMARK   10  A    between atoms: C_23  and  C_25
REMARK                            x       y       z     vdW  Elec       q    Type
REMARK                         _______ _______ _______ _____ _____    ______ ____
ROOT
ATOM      1  C   UNL     1       4.023   0.799  -1.881  0.00  0.00    +0.000 C 
ENDROOT
BRANCH   1   2
ATOM      2  C   UNL     1       4.766   0.942  -3.182  0.00  0.00    +0.000 A 
ATOM      3  C   UNL     1       4.957   2.202  -3.754  0.00  0.00    +0.000 A 
ATOM      4  C   UNL     1       5.711   2.330  -4.914  0.00  0.00    +0.000 A 
ATOM      5  C   UNL     1       6.266   1.199  -5.518  0.00  0.00    +0.000 A 
ATOM      6  C   UNL     1       6.057  -0.082  -4.991  0.00  0.00    +0.000 A 
ATOM      7  C   UNL     1       5.293  -0.191  -3.818  0.00  0.00    +0.000 A 
BRANCH   6   8
ATOM      8  C   UNL     1       6.580  -1.360  -5.633  0.00  0.00    +0.000 C 
ATOM      9  C   UNL     1       8.100  -1.448  -5.769  0.00  0.00    +0.000 C 
ATOM     10  C   UNL     1       8.662  -0.756  -7.010  0.00  0.00    +0.000 C 
ATOM     11  N   UNL     1       7.978  -1.137  -8.261  0.00  0.00    +0.000 NA
ATOM     12  C   UNL     1       6.521  -0.937  -8.152  0.00  0.00    +0.000 C 
ATOM     13  C   UNL     1       5.902  -1.672  -6.966  0.00  0.00    +0.000 C 
BRANCH  11  14
ATOM     14  C   UNL     1       8.547  -0.411  -9.431  0.00  0.00    +0.000 C 
ATOM     15  C   UNL     1      10.043  -0.712  -9.624  0.00  0.00    +0.000 C 
ATOM     16  C   UNL     1       7.838  -0.763 -10.750  0.00  0.00    +0.000 C 
ENDBRANCH  11  14
ENDBRANCH   6   8
ENDBRANCH   1   2
BRANCH   1  17
ATOM     17  N   UNL     1       2.613   0.632  -2.105  0.00  0.00    +0.000 N 
ATOM     18  H   UNL     1       2.257   0.543  -3.049  0.00  0.00    +0.000 HD
BRANCH  17  24
ATOM     19  C   UNL     1       1.967   0.423   0.270  0.00  0.00    +0.000 A 
ATOM     20  C   UNL     1       0.914   0.214   1.164  0.00  0.00    +0.000 A 
ATOM     21  C   UNL     1      -0.383   0.017   0.691  0.00  0.00    +0.000 A 
ATOM     22  C   UNL     1      -0.566   0.031  -0.679  0.00  0.00    +0.000 A 
ATOM     23  N   UNL     1       0.434   0.223  -1.578  0.00  0.00    +0.000 NA
ATOM     24  C   UNL     1       1.689   0.425  -1.113  0.00  0.00    +0.000 A 
BRANCH  21  25
ATOM     25  C   UNL     1      -1.471  -0.181   1.678  0.00  0.00    +0.000 C 
ATOM     26  N   UNL     1      -2.756  -0.325   1.239  0.00  0.00    +0.000 N 
ATOM     27  O   UNL     1      -1.232  -0.212   2.881  0.00  0.00    +0.000 OA
ATOM     28  H   UNL     1      -3.067  -0.285   0.282  0.00  0.00    +0.000 HD
ATOM     29  H   UNL     1      -3.462  -0.441   1.956  0.00  0.00    +0.000 HD
ENDBRANCH  21  25
BRANCH  19  31
ATOM     30  C   UNL     1       3.634   0.183   1.961  0.00  0.00    +0.000 C 
ATOM     31  O   UNL     1       3.245   0.682   0.688  0.00  0.00    +0.000 OA
ENDBRANCH  19  31
ENDBRANCH  17  24
ENDBRANCH   1  17
TORSDOF 7
