REMARK  Name = 
REMARK  4 active torsions:
REMARK  status: ('A' for Active; 'I' for Inactive)
REMARK    1  A    between atoms: C_2  and  C_3
REMARK    2  A    between atoms: C_11  and  C_12
REMARK    3  A    between atoms: C_12  and  N_13
REMARK    4  A    between atoms: C_17  and  C_18
REMARK                            x       y       z     vdW  Elec       q    Type
REMARK                         _______ _______ _______ _____ _____    ______ ____
ROOT
ATOM      1  C   UNL     1      -6.138  -1.443   1.106  0.00  0.00    +0.000 C 
ATOM      2  C   UNL     1      -6.938  -0.446   1.928  0.00  0.00    +0.000 C 
ATOM      3  C   UNL     1      -5.690  -1.012   2.520  0.00  0.00    +0.000 C 
ENDROOT
BRANCH   1  12
ATOM      4  C   UNL     1       0.875  -0.595  -0.391  0.00  0.00    +0.000 C 
ATOM      5  C   UNL     1       0.210  -0.086  -1.678  0.00  0.00    +0.000 C 
ATOM      6  C   UNL     1      -1.064   0.706  -1.385  0.00  0.00    +0.000 C 
ATOM      7  N   UNL     1      -1.902  -0.119  -0.547  0.00  0.00    +0.000 N 
ATOM      8  C   UNL     1      -3.245  -0.217  -0.808  0.00  0.00    +0.000 A 
ATOM      9  N   UNL     1      -3.754   0.353  -1.909  0.00  0.00    +0.000 NA
ATOM     10  C   UNL     1      -5.077   0.246  -2.099  0.00  0.00    +0.000 A 
ATOM     11  C   UNL     1      -5.917  -0.371  -1.210  0.00  0.00    +0.000 A 
ATOM     12  C   UNL     1      -5.330  -0.896  -0.073  0.00  0.00    +0.000 A 
ATOM     13  N   UNL     1      -3.995  -0.875   0.072  0.00  0.00    +0.000 NA
ATOM     14  C   UNL     1      -1.391  -0.515   0.755  0.00  0.00    +0.000 C 
ATOM     15  C   UNL     1      -0.122  -1.332   0.515  0.00  0.00    +0.000 C 
BRANCH   4  17
ATOM     16  N   UNL     1       2.006   1.395   0.907  0.00  0.00    +0.000 NA
ATOM     17  C   UNL     1       1.515   0.519   0.338  0.00  0.00    +0.000 C 
ENDBRANCH   4  17
ENDBRANCH   1  12
BRANCH   1  18
ATOM     18  N   UNL     1      -6.455  -2.865   1.014  0.00  0.00    +0.000 N 
ATOM     19  C   UNL     1      -7.509  -3.468   0.348  0.00  0.00    +0.000 A 
ATOM     20  C   UNL     1      -8.591  -2.775  -0.176  0.00  0.00    +0.000 A 
ATOM     21  C   UNL     1      -9.645  -3.487  -0.756  0.00  0.00    +0.000 A 
ATOM     22  C   UNL     1      -9.602  -4.881  -0.801  0.00  0.00    +0.000 A 
ATOM     23  C   UNL     1      -8.476  -5.488  -0.277  0.00  0.00    +0.000 A 
ATOM     24  N   UNL     1      -7.443  -4.815   0.290  0.00  0.00    +0.000 NA
ATOM     25  H   UNL     1      -5.718  -3.542   1.186  0.00  0.00    +0.000 HD
BRANCH  22  26
ATOM     26  C   UNL     1     -10.736  -5.628  -1.394  0.00  0.00    +0.000 C 
ATOM     27  N   UNL     1     -10.686  -6.994  -1.431  0.00  0.00    +0.000 N 
ATOM     28  O   UNL     1     -11.715  -5.039  -1.840  0.00  0.00    +0.000 OA
ATOM     29  H   UNL     1      -9.949  -7.574  -1.061  0.00  0.00    +0.000 HD
ATOM     30  H   UNL     1     -11.491  -7.463  -1.826  0.00  0.00    +0.000 HD
ENDBRANCH  22  26
ENDBRANCH   1  18
TORSDOF 4
