REMARK  Name = 
REMARK  8 active torsions:
REMARK  status: ('A' for Active; 'I' for Inactive)
REMARK    1  A    between atoms: C_1  and  C_2
REMARK    2  A    between atoms: C_2  and  N_3
REMARK    3  A    between atoms: N_3  and  C_4
REMARK    4  A    between atoms: C_4  and  C_5
REMARK    5  A    between atoms: C_8  and  C_9
REMARK    6  A    between atoms: C_9  and  N_10
REMARK    7  A    between atoms: C_11  and  C_13
REMARK    8  A    between atoms: C_20  and  C_22
REMARK                            x       y       z     vdW  Elec       q    Type
REMARK                         _______ _______ _______ _____ _____    ______ ____
ROOT
ATOM      1  C   UNL     1       1.961   2.411  -0.314  0.00  0.00    +0.000 C 
ENDROOT
BRANCH   1   2
ATOM      2  C   UNL     1       0.476   2.133  -0.266  0.00  0.00    +0.000 A 
ATOM      3  C   UNL     1      -0.272   2.568   0.840  0.00  0.00    +0.000 A 
ATOM      4  C   UNL     1      -1.668   2.601   0.794  0.00  0.00    +0.000 A 
ATOM      5  C   UNL     1      -2.352   2.173  -0.349  0.00  0.00    +0.000 A 
ATOM      6  C   UNL     1      -1.608   1.658  -1.422  0.00  0.00    +0.000 A 
ATOM      7  C   UNL     1      -0.207   1.630  -1.379  0.00  0.00    +0.000 A 
BRANCH   5   8
ATOM      8  C   UNL     1      -3.853   2.293  -0.424  0.00  0.00    +0.000 C 
BRANCH   8   9
ATOM      9  N   UNL     1      -4.289   3.595  -0.883  0.00  0.00    +0.000 N 
ATOM     10  C   UNL     1      -5.634   3.873  -0.982  0.00  0.00    +0.000 C 
ATOM     11  O   UNL     1      -6.490   3.039  -0.696  0.00  0.00    +0.000 OA
ATOM     12  H   UNL     1      -3.603   4.297  -1.113  0.00  0.00    +0.000 HD
BRANCH  10  13
ATOM     13  C   UNL     1      -5.993   5.201  -1.437  0.00  0.00    +0.000 A 
ATOM     14  C   UNL     1      -5.249   6.307  -1.817  0.00  0.00    +0.000 A 
ATOM     15  C   UNL     1      -6.148   7.344  -2.172  0.00  0.00    +0.000 A 
ATOM     16  C   UNL     1      -7.424   6.859  -2.002  0.00  0.00    +0.000 A 
ATOM     17  N   UNL     1      -7.320   5.569  -1.561  0.00  0.00    +0.000 N 
ATOM     18  H   UNL     1      -8.093   4.949  -1.348  0.00  0.00    +0.000 HD
ENDBRANCH  10  13
ENDBRANCH   8   9
ENDBRANCH   5   8
ENDBRANCH   1   2
BRANCH   1  19
ATOM     19  N   UNL     1       2.947   1.354  -0.104  0.00  0.00    +0.000 N 
ATOM     20  C   UNL     1       4.318   1.531  -0.390  0.00  0.00    +0.000 C 
ATOM     21  O   UNL     1       5.145   0.655  -0.142  0.00  0.00    +0.000 OA
BRANCH  20  22
ATOM     22  C   UNL     1       4.783   2.806  -0.958  0.00  0.00    +0.000 A 
ATOM     23  C   UNL     1       4.522   4.055  -0.418  0.00  0.00    +0.000 A 
ATOM     24  S   UNL     1       5.275   5.335  -1.263  0.00  0.00    +0.000 S 
ATOM     25  C   UNL     1       6.087   4.249  -2.289  0.00  0.00    +0.000 A 
ATOM     26  N   UNL     1       6.995   4.686  -3.200  0.00  0.00    +0.000 NA
ATOM     27  C   UNL     1       7.583   3.742  -3.855  0.00  0.00    +0.000 A 
ATOM     28  N   UNL     1       7.316   2.403  -3.709  0.00  0.00    +0.000 N 
ATOM     29  C   UNL     1       6.309   1.925  -2.895  0.00  0.00    +0.000 A 
ATOM     30  O   UNL     1       5.940   0.758  -2.964  0.00  0.00    +0.000 OA
ATOM     31  C   UNL     1       5.714   2.939  -2.050  0.00  0.00    +0.000 A 
ATOM     32  H   UNL     1       7.762   1.720  -4.302  0.00  0.00    +0.000 HD
ENDBRANCH  20  22
BRANCH  19  34
ATOM     33  C   UNL     1       2.609  -1.095  -0.286  0.00  0.00    +0.000 C 
ATOM     34  C   UNL     1       2.579   0.134   0.615  0.00  0.00    +0.000 C 
ENDBRANCH  19  34
ENDBRANCH   1  19
TORSDOF 7
