REMARK  Name = 
REMARK  5 active torsions:
REMARK  status: ('A' for Active; 'I' for Inactive)
REMARK    1  A    between atoms: C_2  and  C_4
REMARK    2  A    between atoms: C_7  and  N_8
REMARK    3  A    between atoms: N_8  and  C_9
REMARK    4  A    between atoms: C_9  and  C_10
REMARK    5  A    between atoms: C_14  and  C_15
REMARK                            x       y       z     vdW  Elec       q    Type
REMARK                         _______ _______ _______ _____ _____    ______ ____
ROOT
ATOM      1  N   UNL     1       5.807  -3.076   3.322  0.00  0.00    +0.000 N 
ATOM      2  H   UNL     1       6.389  -2.479   3.909  0.00  0.00    +0.000 HD
ENDROOT
BRANCH   1   6
ATOM      3  C   UNL     1       3.544  -1.158   0.328  0.00  0.00    +0.000 A 
ATOM      4  C   UNL     1       3.012  -2.268   0.987  0.00  0.00    +0.000 A 
ATOM      5  C   UNL     1       3.740  -2.893   2.007  0.00  0.00    +0.000 A 
ATOM      6  C   UNL     1       4.993  -2.414   2.411  0.00  0.00    +0.000 A 
ATOM      7  C   UNL     1       5.511  -1.298   1.740  0.00  0.00    +0.000 A 
ATOM      8  C   UNL     1       4.798  -0.677   0.705  0.00  0.00    +0.000 A 
BRANCH   3  10
ATOM      9  N   UNL     1       1.476  -0.612  -0.842  0.00  0.00    +0.000 N 
ATOM     10  C   UNL     1       2.839  -0.514  -0.810  0.00  0.00    +0.000 C 
ATOM     11  O   UNL     1       3.444   0.103  -1.677  0.00  0.00    +0.000 OA
ATOM     12  H   UNL     1       1.006  -0.096  -1.574  0.00  0.00    +0.000 HD
ATOM     13  H   UNL     1       0.933  -0.890  -0.037  0.00  0.00    +0.000 HD
ENDBRANCH   3  10
ENDBRANCH   1   6
BRANCH   1  14
ATOM     14  C   UNL     1       5.367  -4.295   4.002  0.00  0.00    +0.000 C 
BRANCH  14  15
ATOM     15  C   UNL     1       6.403  -4.835   4.979  0.00  0.00    +0.000 A 
ATOM     16  N   UNL     1       7.204  -3.956   5.619  0.00  0.00    +0.000 NA
ATOM     17  C   UNL     1       8.060  -4.477   6.514  0.00  0.00    +0.000 A 
ATOM     18  C   UNL     1       8.127  -5.818   6.812  0.00  0.00    +0.000 A 
ATOM     19  C   UNL     1       7.256  -6.651   6.135  0.00  0.00    +0.000 A 
ATOM     20  N   UNL     1       6.394  -6.166   5.213  0.00  0.00    +0.000 NA
BRANCH  19  21
ATOM     21  C   UNL     1       7.191  -8.104   6.366  0.00  0.00    +0.000 A 
ATOM     22  C   UNL     1       7.456  -8.691   7.613  0.00  0.00    +0.000 A 
ATOM     23  C   UNL     1       7.382 -10.075   7.780  0.00  0.00    +0.000 A 
ATOM     24  C   UNL     1       7.040 -10.852   6.689  0.00  0.00    +0.000 A 
ATOM     25  N   UNL     1       6.769 -10.343   5.471  0.00  0.00    +0.000 NA
ATOM     26  C   UNL     1       6.844  -8.991   5.344  0.00  0.00    +0.000 A 
ENDBRANCH  19  21
ENDBRANCH  14  15
ENDBRANCH   1  14
TORSDOF 5
