REMARK  Name = 
REMARK  7 active torsions:
REMARK  status: ('A' for Active; 'I' for Inactive)
REMARK    1  A    between atoms: C_1  and  C_2
REMARK    2  A    between atoms: C_2  and  C_3
REMARK    3  A    between atoms: C_2  and  C_4
REMARK    4  A    between atoms: C_2  and  C_5
REMARK    5  A    between atoms: C_9  and  C_10
REMARK    6  A    between atoms: N_16  and  C_17
REMARK    7  A    between atoms: C_17  and  C_18
REMARK                            x       y       z     vdW  Elec       q    Type
REMARK                         _______ _______ _______ _____ _____    ______ ____
ROOT
ATOM      1  C   UNL     1       2.991   1.437   0.326  0.00  0.00    +0.000 A 
ATOM      2  N   UNL     1       2.357   2.528  -0.088  0.00  0.00    +0.000 NA
ATOM      3  C   UNL     1       3.037   3.598   0.413  0.00  0.00    +0.000 A 
ATOM      4  C   UNL     1       2.800   4.972   0.287  0.00  0.00    +0.000 A 
ATOM      5  C   UNL     1       3.693   5.834   0.931  0.00  0.00    +0.000 A 
ATOM      6  C   UNL     1       4.763   5.277   1.639  0.00  0.00    +0.000 A 
ATOM      7  N   UNL     1       5.030   3.947   1.785  0.00  0.00    +0.000 NA
ATOM      8  C   UNL     1       4.124   3.174   1.154  0.00  0.00    +0.000 A 
ATOM      9  N   UNL     1       4.060   1.797   1.139  0.00  0.00    +0.000 N 
ENDROOT
BRANCH   5  10
ATOM     10  C   UNL     1       3.562   7.310   0.917  0.00  0.00    +0.000 C 
ATOM     11  N   UNL     1       2.511   7.873   0.246  0.00  0.00    +0.000 N 
ATOM     12  O   UNL     1       4.373   8.023   1.496  0.00  0.00    +0.000 OA
ATOM     13  H   UNL     1       1.788   7.366  -0.241  0.00  0.00    +0.000 HD
ATOM     14  H   UNL     1       2.435   8.881   0.276  0.00  0.00    +0.000 HD
ENDBRANCH   5  10
BRANCH   1  16
ATOM     15  C   UNL     1       1.295   0.158  -0.991  0.00  0.00    +0.000 C 
ATOM     16  C   UNL     1       2.549   0.034  -0.085  0.00  0.00    +0.000 C 
ATOM     17  C   UNL     1       2.146  -0.820   1.125  0.00  0.00    +0.000 C 
ATOM     18  C   UNL     1       3.623  -0.683  -0.920  0.00  0.00    +0.000 C 
ENDBRANCH   1  16
BRANCH   9  19
ATOM     19  C   UNL     1       5.044   0.967   1.817  0.00  0.00    +0.000 C 
BRANCH  19  20
ATOM     20  C   UNL     1       4.698   0.594   3.235  0.00  0.00    +0.000 A 
ATOM     21  C   UNL     1       5.099  -0.649   3.747  0.00  0.00    +0.000 A 
ATOM     22  C   UNL     1       4.893  -0.952   5.090  0.00  0.00    +0.000 A 
ATOM     23  C   UNL     1       4.289   0.001   5.889  0.00  0.00    +0.000 A 
ATOM     24  N   UNL     1       3.876   1.201   5.436  0.00  0.00    +0.000 NA
ATOM     25  C   UNL     1       4.097   1.475   4.129  0.00  0.00    +0.000 A 
ENDBRANCH  19  20
ENDBRANCH   9  19
TORSDOF 4
