REMARK  Name = 
REMARK  6 active torsions:
REMARK  status: ('A' for Active; 'I' for Inactive)
REMARK    1  A    between atoms: C_2  and  C_25
REMARK    2  A    between atoms: N_3  and  C_4
REMARK    3  A    between atoms: C_4  and  C_5
REMARK    4  A    between atoms: C_8  and  C_9
REMARK    5  A    between atoms: C_9  and  N_10
REMARK    6  A    between atoms: C_11  and  C_13
REMARK                            x       y       z     vdW  Elec       q    Type
REMARK                         _______ _______ _______ _____ _____    ______ ____
ROOT
ATOM      1  C   UNL     1       3.316  -2.147  -2.804  0.00  0.00    +0.000 A 
ATOM      2  C   UNL     1       4.298  -1.426  -3.497  0.00  0.00    +0.000 A 
ATOM      3  C   UNL     1       5.175  -2.076  -4.372  0.00  0.00    +0.000 A 
ATOM      4  C   UNL     1       5.073  -3.456  -4.589  0.00  0.00    +0.000 A 
ATOM      5  C   UNL     1       4.102  -4.179  -3.884  0.00  0.00    +0.000 A 
ATOM      6  C   UNL     1       3.225  -3.530  -3.009  0.00  0.00    +0.000 A 
ENDROOT
BRANCH   1   7
ATOM      7  C   UNL     1       2.350  -1.444  -1.888  0.00  0.00    +0.000 C 
BRANCH   7  10
ATOM      8  O   UNL     1       0.156  -0.167  -0.741  0.00  0.00    +0.000 OA
ATOM      9  C   UNL     1       0.148  -0.367  -1.953  0.00  0.00    +0.000 C 
ATOM     10  N   UNL     1       1.178  -1.003  -2.602  0.00  0.00    +0.000 N 
ATOM     11  H   UNL     1       1.178  -1.064  -3.609  0.00  0.00    +0.000 HD
BRANCH   9  12
ATOM     12  C   UNL     1      -0.944   0.068  -2.795  0.00  0.00    +0.000 A 
ATOM     13  C   UNL     1      -1.213  -0.106  -4.147  0.00  0.00    +0.000 A 
ATOM     14  C   UNL     1      -2.434   0.544  -4.437  0.00  0.00    +0.000 A 
ATOM     15 CL   UNL     1      -3.167   0.606  -5.965  0.00  0.00    +0.000 Cl
ATOM     16  C   UNL     1      -2.899   1.099  -3.271  0.00  0.00    +0.000 A 
ATOM     17  N   UNL     1      -2.000   0.798  -2.284  0.00  0.00    +0.000 N 
ATOM     18  H   UNL     1      -2.073   1.067  -1.308  0.00  0.00    +0.000 HD
ENDBRANCH   9  12
ENDBRANCH   7  10
ENDBRANCH   1   7
BRANCH   4  19
ATOM     19  C   UNL     1       6.020  -4.166  -5.524  0.00  0.00    +0.000 C 
BRANCH  19  20
ATOM     20  N   UNL     1       7.192  -4.621  -4.820  0.00  0.00    +0.000 N 
ATOM     21  C   UNL     1       8.233  -5.230  -5.471  0.00  0.00    +0.000 C 
ATOM     22  O   UNL     1       8.249  -5.369  -6.691  0.00  0.00    +0.000 OA
ATOM     23  H   UNL     1       7.100  -4.734  -3.816  0.00  0.00    +0.000 HD
BRANCH  21  24
ATOM     24  C   UNL     1       9.364  -5.651  -4.634  0.00  0.00    +0.000 A 
ATOM     25  C   UNL     1      10.621  -5.819  -5.201  0.00  0.00    +0.000 A 
ATOM     26  S   UNL     1      11.831  -6.233  -4.073  0.00  0.00    +0.000 S 
ATOM     27  C   UNL     1      10.708  -6.257  -2.794  0.00  0.00    +0.000 A 
ATOM     28  N   UNL     1      11.097  -6.562  -1.527  0.00  0.00    +0.000 NA
ATOM     29  C   UNL     1      10.137  -6.576  -0.663  0.00  0.00    +0.000 A 
ATOM     30  N   UNL     1       8.823  -6.312  -0.951  0.00  0.00    +0.000 N 
ATOM     31  C   UNL     1       8.389  -5.977  -2.211  0.00  0.00    +0.000 A 
ATOM     32  O   UNL     1       7.210  -5.716  -2.427  0.00  0.00    +0.000 OA
ATOM     33  C   UNL     1       9.429  -5.947  -3.221  0.00  0.00    +0.000 A 
ATOM     34  H   UNL     1       8.119  -6.338  -0.229  0.00  0.00    +0.000 HD
ENDBRANCH  21  24
ENDBRANCH  19  20
ENDBRANCH   4  19
TORSDOF 6
