REMARK  Name = 
REMARK  6 active torsions:
REMARK  status: ('A' for Active; 'I' for Inactive)
REMARK    1  A    between atoms: C_1  and  N_2
REMARK    2  A    between atoms: N_2  and  C_3
REMARK    3  A    between atoms: C_3  and  C_4
REMARK    4  A    between atoms: C_7  and  O_8
REMARK    5  A    between atoms: O_8  and  C_9
REMARK    6  A    between atoms: C_17  and  C_19
REMARK                            x       y       z     vdW  Elec       q    Type
REMARK                         _______ _______ _______ _____ _____    ______ ____
ROOT
ATOM      1  C   UNL     1       1.059  -0.672  -0.370  0.00  0.00    +0.000 C 
ATOM      2  N   UNL     1       2.379  -0.153  -0.032  0.00  0.00    +0.000 N 
ATOM      3  C   UNL     1       2.796   0.967  -0.775  0.00  0.00    +0.000 C 
ATOM      4  O   UNL     1       2.094   1.436  -1.666  0.00  0.00    +0.000 OA
ENDROOT
BRANCH   3   5
ATOM      5  C   UNL     1       4.120   1.551  -0.495  0.00  0.00    +0.000 A 
ATOM      6  C   UNL     1       5.252   0.814  -0.201  0.00  0.00    +0.000 A 
ATOM      7  S   UNL     1       6.651   1.759   0.023  0.00  0.00    +0.000 S 
ATOM      8  C   UNL     1       5.812   3.179  -0.383  0.00  0.00    +0.000 A 
ATOM      9  N   UNL     1       6.463   4.368  -0.473  0.00  0.00    +0.000 NA
ATOM     10  C   UNL     1       5.713   5.355  -0.829  0.00  0.00    +0.000 A 
ATOM     11  N   UNL     1       4.364   5.269  -1.066  0.00  0.00    +0.000 N 
ATOM     12  C   UNL     1       3.638   4.112  -0.866  0.00  0.00    +0.000 A 
ATOM     13  O   UNL     1       2.412   4.133  -0.861  0.00  0.00    +0.000 OA
ATOM     14  C   UNL     1       4.462   2.950  -0.587  0.00  0.00    +0.000 A 
ATOM     15  H   UNL     1       3.824   6.096  -1.270  0.00  0.00    +0.000 HD
ENDBRANCH   3   5
BRANCH   2  16
ATOM     16  C   UNL     1       3.000  -0.515   1.245  0.00  0.00    +0.000 C 
BRANCH  16  17
ATOM     17  C   UNL     1       2.166  -1.322   2.196  0.00  0.00    +0.000 A 
ATOM     18  C   UNL     1       2.226  -2.724   2.169  0.00  0.00    +0.000 A 
ATOM     19  C   UNL     1       1.427  -3.469   3.030  0.00  0.00    +0.000 A 
ATOM     20  C   UNL     1       0.621  -2.821   3.970  0.00  0.00    +0.000 A 
ATOM     21  C   UNL     1       0.544  -1.423   3.977  0.00  0.00    +0.000 A 
ATOM     22  C   UNL     1       1.310  -0.680   3.088  0.00  0.00    +0.000 A 
BRANCH  20  23
ATOM     23  O   UNL     1      -0.170  -3.470   4.892  0.00  0.00    +0.000 OA
BRANCH  23  24
ATOM     24  C   UNL     1       0.257  -4.655   5.445  0.00  0.00    +0.000 A 
ATOM     25  C   UNL     1       1.596  -5.008   5.617  0.00  0.00    +0.000 A 
ATOM     26  C   UNL     1       1.877  -6.264   6.120  0.00  0.00    +0.000 A 
ATOM     27  N   UNL     1       0.933  -7.139   6.515  0.00  0.00    +0.000 NA
ATOM     28  C   UNL     1      -0.354  -6.741   6.409  0.00  0.00    +0.000 A 
ATOM     29  C   UNL     1      -0.738  -5.519   5.884  0.00  0.00    +0.000 A 
ENDBRANCH  23  24
ENDBRANCH  20  23
ENDBRANCH  16  17
ENDBRANCH   2  16
TORSDOF 5
