REMARK  Name = 
REMARK  4 active torsions:
REMARK  status: ('A' for Active; 'I' for Inactive)
REMARK    1  A    between atoms: C_2  and  C_4
REMARK    2  A    between atoms: N_8  and  C_9
REMARK    3  A    between atoms: C_9  and  C_10
REMARK    4  A    between atoms: C_13  and  C_14
REMARK                            x       y       z     vdW  Elec       q    Type
REMARK                         _______ _______ _______ _____ _____    ______ ____
ROOT
ATOM      1  C   UNL     1       4.946  -3.005  -5.320  0.00  0.00    +0.000 C 
ENDROOT
BRANCH   1   6
ATOM      2  C   UNL     1       3.678  -0.137  -1.347  0.00  0.00    +0.000 A 
ATOM      3  C   UNL     1       3.445   0.082  -2.700  0.00  0.00    +0.000 A 
ATOM      4  C   UNL     1       4.070  -0.740  -3.639  0.00  0.00    +0.000 A 
ATOM      5  C   UNL     1       4.895  -1.779  -3.214  0.00  0.00    +0.000 A 
ATOM      6  N   UNL     1       5.602  -2.586  -4.092  0.00  0.00    +0.000 N 
ATOM      7  N   UNL     1       5.122  -2.002  -1.905  0.00  0.00    +0.000 NA
ATOM      8  C   UNL     1       4.528  -1.175  -1.002  0.00  0.00    +0.000 A 
ATOM      9  H   UNL     1       5.985  -3.358  -3.548  0.00  0.00    +0.000 HD
BRANCH   2  11
ATOM     10  N   UNL     1       1.917   1.342  -0.566  0.00  0.00    +0.000 N 
ATOM     11  C   UNL     1       3.098   0.712  -0.287  0.00  0.00    +0.000 C 
ATOM     12  O   UNL     1       3.635   0.829   0.806  0.00  0.00    +0.000 OA
ATOM     13  H   UNL     1       1.485   1.850   0.197  0.00  0.00    +0.000 HD
ATOM     14  H   UNL     1       1.331   1.089  -1.349  0.00  0.00    +0.000 HD
ENDBRANCH   2  11
ENDBRANCH   1   6
BRANCH   1  15
ATOM     15  C   UNL     1       5.822  -3.957  -6.110  0.00  0.00    +0.000 A 
ATOM     16  C   UNL     1       6.837  -3.469  -6.926  0.00  0.00    +0.000 A 
ATOM     17  C   UNL     1       7.565  -4.363  -7.712  0.00  0.00    +0.000 A 
ATOM     18  C   UNL     1       7.303  -5.740  -7.665  0.00  0.00    +0.000 A 
ATOM     19  C   UNL     1       6.302  -6.124  -6.769  0.00  0.00    +0.000 A 
ATOM     20  N   UNL     1       5.559  -5.281  -6.007  0.00  0.00    +0.000 NA
BRANCH  18  21
ATOM     21  C   UNL     1       8.022  -6.715  -8.516  0.00  0.00    +0.000 A 
ATOM     22  C   UNL     1       7.387  -7.882  -8.991  0.00  0.00    +0.000 A 
ATOM     23  C   UNL     1       8.054  -8.809  -9.801  0.00  0.00    +0.000 A 
ATOM     24  C   UNL     1       9.376  -8.583 -10.167  0.00  0.00    +0.000 A 
ATOM     25  C   UNL     1      10.015  -7.437  -9.715  0.00  0.00    +0.000 A 
ATOM     26  F   UNL     1      11.286  -7.210 -10.072  0.00  0.00    +0.000 F 
ATOM     27  C   UNL     1       9.359  -6.517  -8.899  0.00  0.00    +0.000 A 
ENDBRANCH  18  21
ENDBRANCH   1  15
TORSDOF 4
