REMARK  Name = 
REMARK  5 active torsions:
REMARK  status: ('A' for Active; 'I' for Inactive)
REMARK    1  A    between atoms: C_2  and  C_4
REMARK    2  A    between atoms: C_7  and  C_8
REMARK    3  A    between atoms: C_12  and  C_13
REMARK    4  A    between atoms: C_13  and  N_14
REMARK    5  A    between atoms: C_18  and  C_19
REMARK                            x       y       z     vdW  Elec       q    Type
REMARK                         _______ _______ _______ _____ _____    ______ ____
ROOT
ATOM      1  C   UNL     1       5.159   3.246  -3.767  0.00  0.00    +0.000 A 
ATOM      2  C   UNL     1       5.591   4.543  -3.495  0.00  0.00    +0.000 A 
ATOM      3  N   UNL     1       6.123   5.365  -4.427  0.00  0.00    +0.000 NA
ATOM      4  C   UNL     1       6.227   4.825  -5.662  0.00  0.00    +0.000 A 
ATOM      5  C   UNL     1       5.859   3.515  -5.977  0.00  0.00    +0.000 A 
ATOM      6  N   UNL     1       5.316   2.718  -5.012  0.00  0.00    +0.000 NA
ENDROOT
BRANCH   1  10
ATOM      7  C   UNL     1       3.144   0.741  -0.895  0.00  0.00    +0.000 A 
ATOM      8  C   UNL     1       3.061   2.131  -0.793  0.00  0.00    +0.000 A 
ATOM      9  C   UNL     1       3.720   2.940  -1.724  0.00  0.00    +0.000 A 
ATOM     10  C   UNL     1       4.488   2.390  -2.769  0.00  0.00    +0.000 A 
ATOM     11  C   UNL     1       4.571   0.985  -2.838  0.00  0.00    +0.000 A 
ATOM     12  C   UNL     1       3.916   0.169  -1.908  0.00  0.00    +0.000 A 
BRANCH   7  14
ATOM     13  N   UNL     1       1.281   0.336   0.614  0.00  0.00    +0.000 N 
ATOM     14  C   UNL     1       2.435  -0.148   0.060  0.00  0.00    +0.000 C 
ATOM     15  O   UNL     1       2.836  -1.276   0.312  0.00  0.00    +0.000 OA
ATOM     16  H   UNL     1       0.741  -0.319   1.166  0.00  0.00    +0.000 HD
ATOM     17  H   UNL     1       0.792   1.129   0.225  0.00  0.00    +0.000 HD
ENDBRANCH   7  14
ENDBRANCH   1  10
BRANCH   5  18
ATOM     18  C   UNL     1       6.091   2.951  -7.382  0.00  0.00    +0.000 C 
ATOM     19  C   UNL     1       6.968   1.719  -7.512  0.00  0.00    +0.000 C 
ATOM     20  C   UNL     1       7.517   3.042  -7.931  0.00  0.00    +0.000 C 
BRANCH  18  21
ATOM     21  N   UNL     1       5.030   3.239  -8.357  0.00  0.00    +0.000 N 
ATOM     22  C   UNL     1       3.874   2.488  -8.571  0.00  0.00    +0.000 A 
ATOM     23  C   UNL     1       3.303   1.632  -7.641  0.00  0.00    +0.000 A 
ATOM     24  C   UNL     1       2.116   0.966  -7.957  0.00  0.00    +0.000 A 
ATOM     25  C   UNL     1       1.553   1.189  -9.200  0.00  0.00    +0.000 A 
ATOM     26  N   UNL     1       2.116   2.023 -10.101  0.00  0.00    +0.000 NA
ATOM     27  N   UNL     1       3.278   2.673  -9.773  0.00  0.00    +0.000 NA
ATOM     28  H   UNL     1       5.268   3.710  -9.224  0.00  0.00    +0.000 HD
BRANCH  25  29
ATOM     29  C   UNL     1       0.289   0.521  -9.619  0.00  0.00    +0.000 C 
ATOM     30  N   UNL     1      -0.162   0.829 -10.877  0.00  0.00    +0.000 N 
ATOM     31  O   UNL     1      -0.314  -0.258  -8.892  0.00  0.00    +0.000 OA
ATOM     32  H   UNL     1       0.346   1.475 -11.471  0.00  0.00    +0.000 HD
ATOM     33  H   UNL     1      -1.014   0.397 -11.217  0.00  0.00    +0.000 HD
ENDBRANCH  25  29
ENDBRANCH  18  21
ENDBRANCH   5  18
TORSDOF 5
