REMARK  Name = 
REMARK  5 active torsions:
REMARK  status: ('A' for Active; 'I' for Inactive)
REMARK    1  A    between atoms: C_2  and  C_4
REMARK    2  A    between atoms: C_7  and  N_8
REMARK    3  A    between atoms: N_8  and  C_9
REMARK    4  A    between atoms: C_9  and  C_10
REMARK    5  A    between atoms: C_14  and  C_15
REMARK                            x       y       z     vdW  Elec       q    Type
REMARK                         _______ _______ _______ _____ _____    ______ ____
ROOT
ATOM      1  C   UNL     1       4.940   3.510   4.891  0.00  0.00    +0.000 C 
ENDROOT
BRANCH   1   2
ATOM      2  C   UNL     1       5.875   4.491   5.581  0.00  0.00    +0.000 A 
ATOM      3  N   UNL     1       6.623   5.311   4.812  0.00  0.00    +0.000 NA
ATOM      4  C   UNL     1       7.393   6.197   5.468  0.00  0.00    +0.000 A 
ATOM      5  C   UNL     1       7.422   6.312   6.838  0.00  0.00    +0.000 A 
ATOM      6  C   UNL     1       6.605   5.455   7.553  0.00  0.00    +0.000 A 
ATOM      7  N   UNL     1       5.830   4.539   6.931  0.00  0.00    +0.000 NA
BRANCH   6   8
ATOM      8  C   UNL     1       6.510   5.480   9.028  0.00  0.00    +0.000 A 
ATOM      9  C   UNL     1       6.247   4.303   9.760  0.00  0.00    +0.000 A 
ATOM     10  C   UNL     1       6.162   4.309  11.158  0.00  0.00    +0.000 A 
ATOM     11  C   UNL     1       6.332   5.500  11.857  0.00  0.00    +0.000 A 
ATOM     12  C   UNL     1       6.580   6.668  11.151  0.00  0.00    +0.000 A 
ATOM     13  F   UNL     1       6.737   7.820  11.816  0.00  0.00    +0.000 F 
ATOM     14  C   UNL     1       6.667   6.670   9.761  0.00  0.00    +0.000 A 
ENDBRANCH   6   8
ENDBRANCH   1   2
BRANCH   1  15
ATOM     15  N   UNL     1       5.471   3.010   3.620  0.00  0.00    +0.000 N 
ATOM     16  H   UNL     1       6.012   3.709   3.113  0.00  0.00    +0.000 HD
BRANCH  15  20
ATOM     17  C   UNL     1       3.463   0.113   1.308  0.00  0.00    +0.000 A 
ATOM     18  C   UNL     1       2.870   0.596   2.476  0.00  0.00    +0.000 A 
ATOM     19  C   UNL     1       3.511   1.584   3.231  0.00  0.00    +0.000 A 
ATOM     20  C   UNL     1       4.737   2.130   2.833  0.00  0.00    +0.000 A 
ATOM     21  C   UNL     1       5.317   1.636   1.656  0.00  0.00    +0.000 A 
ATOM     22  C   UNL     1       4.694   0.634   0.899  0.00  0.00    +0.000 A 
BRANCH  17  24
ATOM     23  N   UNL     1       1.491  -1.133   0.603  0.00  0.00    +0.000 N 
ATOM     24  C   UNL     1       2.849  -0.990   0.526  0.00  0.00    +0.000 C 
ATOM     25  O   UNL     1       3.522  -1.735  -0.175  0.00  0.00    +0.000 OA
ATOM     26  H   UNL     1       1.078  -1.842   0.010  0.00  0.00    +0.000 HD
ATOM     27  H   UNL     1       0.886  -0.415   0.974  0.00  0.00    +0.000 HD
ENDBRANCH  17  24
ENDBRANCH  15  20
ENDBRANCH   1  15
TORSDOF 5
