REMARK  Name = 
REMARK  5 active torsions:
REMARK  status: ('A' for Active; 'I' for Inactive)
REMARK    1  A    between atoms: C_2  and  C_3
REMARK    2  A    between atoms: C_6  and  N_7
REMARK    3  A    between atoms: N_7  and  C_8
REMARK    4  A    between atoms: C_8  and  C_9
REMARK    5  A    between atoms: C_13  and  C_14
REMARK                            x       y       z     vdW  Elec       q    Type
REMARK                         _______ _______ _______ _____ _____    ______ ____
ROOT
ATOM      1  C   UNL     1       8.582  -0.849  -0.567  0.00  0.00    +0.000 C 
ATOM      2  C   UNL     1       8.375  -1.633  -1.858  0.00  0.00    +0.000 C 
ATOM      3  C   UNL     1       8.969  -2.307  -0.667  0.00  0.00    +0.000 C 
ENDROOT
BRANCH   1   4
ATOM      4  C   UNL     1       9.655   0.232  -0.539  0.00  0.00    +0.000 A 
ATOM      5  C   UNL     1       9.680   1.247  -1.509  0.00  0.00    +0.000 A 
ATOM      6  C   UNL     1      10.468   2.383  -1.346  0.00  0.00    +0.000 A 
ATOM      7  C   UNL     1      11.273   2.514  -0.215  0.00  0.00    +0.000 A 
ATOM      8  C   UNL     1      11.339   1.500   0.755  0.00  0.00    +0.000 A 
ATOM      9  C   UNL     1      10.525   0.365   0.561  0.00  0.00    +0.000 A 
BRANCH   8  10
ATOM     10  C   UNL     1      12.191   1.633   1.958  0.00  0.00    +0.000 A 
ATOM     11  C   UNL     1      12.352   2.870   2.615  0.00  0.00    +0.000 A 
ATOM     12  C   UNL     1      13.174   3.001   3.748  0.00  0.00    +0.000 A 
ATOM     13  C   UNL     1      13.830   1.888   4.253  0.00  0.00    +0.000 A 
ATOM     14  C   UNL     1      13.669   0.660   3.628  0.00  0.00    +0.000 A 
ATOM     15  F   UNL     1      14.297  -0.416   4.119  0.00  0.00    +0.000 F 
ATOM     16  C   UNL     1      12.870   0.527   2.496  0.00  0.00    +0.000 A 
ENDBRANCH   8  10
ENDBRANCH   1   4
BRANCH   1  17
ATOM     17  N   UNL     1       7.334  -0.365   0.040  0.00  0.00    +0.000 N 
ATOM     18  H   UNL     1       7.064   0.582  -0.226  0.00  0.00    +0.000 HD
BRANCH  17  22
ATOM     19  C   UNL     1       5.824  -0.788   3.817  0.00  0.00    +0.000 A 
ATOM     20  C   UNL     1       5.605   0.339   3.047  0.00  0.00    +0.000 A 
ATOM     21  N   UNL     1       6.165   0.506   1.825  0.00  0.00    +0.000 NA
ATOM     22  C   UNL     1       6.961  -0.491   1.375  0.00  0.00    +0.000 A 
ATOM     23  C   UNL     1       7.220  -1.594   2.185  0.00  0.00    +0.000 A 
ATOM     24  N   UNL     1       6.661  -1.775   3.415  0.00  0.00    +0.000 NA
BRANCH  19  26
ATOM     25  N   UNL     1       4.495  -1.097   6.022  0.00  0.00    +0.000 NA
ATOM     26  C   UNL     1       5.114  -0.980   5.045  0.00  0.00    +0.000 C 
ENDBRANCH  19  26
ENDBRANCH  17  22
ENDBRANCH   1  17
TORSDOF 5
