REMARK  Name = 
REMARK  3 active torsions:
REMARK  status: ('A' for Active; 'I' for Inactive)
REMARK    1  A    between atoms: C_2  and  C_4
REMARK    2  A    between atoms: N_8  and  C_9
REMARK    3  A    between atoms: C_9  and  C_10
REMARK                            x       y       z     vdW  Elec       q    Type
REMARK                         _______ _______ _______ _____ _____    ______ ____
ROOT
ATOM      1  C   UNL     1       3.661   1.753   3.011  0.00  0.00    +0.000 A 
ATOM      2  C   UNL     1       2.901   0.807   3.691  0.00  0.00    +0.000 A 
ATOM      3  C   UNL     1       3.500  -0.382   4.111  0.00  0.00    +0.000 A 
ATOM      4  C   UNL     1       4.848  -0.606   3.851  0.00  0.00    +0.000 A 
ATOM      5  N   UNL     1       5.506  -1.796   4.167  0.00  0.00    +0.000 N 
ATOM      6  N   UNL     1       5.589   0.305   3.181  0.00  0.00    +0.000 NA
ATOM      7  C   UNL     1       4.991   1.450   2.768  0.00  0.00    +0.000 A 
ATOM      8  H   UNL     1       6.485  -1.648   3.931  0.00  0.00    +0.000 HD
ENDROOT
BRANCH   1  10
ATOM      9  N   UNL     1       2.017   3.532   3.185  0.00  0.00    +0.000 N 
ATOM     10  C   UNL     1       3.095   3.022   2.509  0.00  0.00    +0.000 C 
ATOM     11  O   UNL     1       3.576   3.604   1.549  0.00  0.00    +0.000 OA
ATOM     12  H   UNL     1       1.677   4.434   2.879  0.00  0.00    +0.000 HD
ATOM     13  H   UNL     1       1.749   3.218   4.107  0.00  0.00    +0.000 HD
ENDBRANCH   1  10
BRANCH   5  14
ATOM     14  C   UNL     1       5.229  -2.655   5.328  0.00  0.00    +0.000 C 
ATOM     15  C   UNL     1       5.139  -4.144   4.999  0.00  0.00    +0.000 C 
ATOM     16  C   UNL     1       3.939  -3.435   5.524  0.00  0.00    +0.000 C 
BRANCH  14  17
ATOM     17  C   UNL     1       5.972  -2.255   6.603  0.00  0.00    +0.000 A 
ATOM     18  C   UNL     1       5.403  -1.347   7.517  0.00  0.00    +0.000 A 
ATOM     19  C   UNL     1       6.023  -1.057   8.735  0.00  0.00    +0.000 A 
ATOM     20  C   UNL     1       7.230  -1.666   9.049  0.00  0.00    +0.000 A 
ATOM     21  F   UNL     1       7.807  -1.418  10.232  0.00  0.00    +0.000 F 
ATOM     22  C   UNL     1       7.841  -2.536   8.158  0.00  0.00    +0.000 A 
ATOM     23  C   UNL     1       7.219  -2.818   6.939  0.00  0.00    +0.000 A 
ENDBRANCH  14  17
ENDBRANCH   5  14
TORSDOF 3
