REMARK  Name = 
REMARK  7 active torsions:
REMARK  status: ('A' for Active; 'I' for Inactive)
REMARK    1  A    between atoms: C_1  and  N_2
REMARK    2  A    between atoms: N_2  and  C_3
REMARK    3  A    between atoms: C_3  and  C_4
REMARK    4  A    between atoms: C_7  and  C_8
REMARK    5  A    between atoms: C_8  and  N_9
REMARK    6  A    between atoms: C_10  and  C_12
REMARK    7  A    between atoms: C_19  and  C_21
REMARK                            x       y       z     vdW  Elec       q    Type
REMARK                         _______ _______ _______ _____ _____    ______ ____
ROOT
ATOM      1  C   UNL     1       3.155  -0.441  -1.160  0.00  0.00    +0.000 C 
ENDROOT
BRANCH   1   2
ATOM      2  C   UNL     1       2.221  -0.735  -2.305  0.00  0.00    +0.000 A 
ATOM      3  C   UNL     1       1.999  -2.059  -2.715  0.00  0.00    +0.000 A 
ATOM      4  C   UNL     1       1.089  -2.340  -3.732  0.00  0.00    +0.000 A 
ATOM      5  C   UNL     1       0.393  -1.304  -4.364  0.00  0.00    +0.000 A 
ATOM      6  C   UNL     1       0.620   0.018  -3.958  0.00  0.00    +0.000 A 
ATOM      7  C   UNL     1       1.535   0.302  -2.943  0.00  0.00    +0.000 A 
BRANCH   5   8
ATOM      8  C   UNL     1      -0.617  -1.606  -5.436  0.00  0.00    +0.000 C 
BRANCH   8   9
ATOM      9  N   UNL     1      -1.927  -1.817  -4.881  0.00  0.00    +0.000 N 
ATOM     10  C   UNL     1      -3.001  -2.132  -5.693  0.00  0.00    +0.000 C 
ATOM     11  O   UNL     1      -2.869  -2.224  -6.914  0.00  0.00    +0.000 OA
ATOM     12  H   UNL     1      -2.092  -1.755  -3.882  0.00  0.00    +0.000 HD
BRANCH  10  13
ATOM     13  C   UNL     1      -4.250  -2.346  -4.965  0.00  0.00    +0.000 A 
ATOM     14  N   UNL     1      -4.354  -2.236  -3.651  0.00  0.00    +0.000 NA
ATOM     15  C   UNL     1      -5.657  -2.507  -3.277  0.00  0.00    +0.000 A 
ATOM     16  C   UNL     1      -6.524  -2.817  -4.303  0.00  0.00    +0.000 A 
ATOM     17  S   UNL     1      -5.691  -2.763  -5.799  0.00  0.00    +0.000 S 
ENDBRANCH  10  13
ENDBRANCH   8   9
ENDBRANCH   5   8
ENDBRANCH   1   2
BRANCH   1  19
ATOM     18  C   UNL     1       5.080  -0.347  -2.812  0.00  0.00    +0.000 C 
ATOM     19  N   UNL     1       4.569  -0.200  -1.453  0.00  0.00    +0.000 N 
ATOM     20  C   UNL     1       5.461   0.375  -0.528  0.00  0.00    +0.000 C 
ATOM     21  O   UNL     1       6.599   0.700  -0.863  0.00  0.00    +0.000 OA
BRANCH  20  22
ATOM     22  C   UNL     1       5.044   0.554   0.872  0.00  0.00    +0.000 A 
ATOM     23  C   UNL     1       4.389  -0.406   1.627  0.00  0.00    +0.000 A 
ATOM     24  S   UNL     1       4.097   0.071   3.240  0.00  0.00    +0.000 S 
ATOM     25  C   UNL     1       4.975   1.511   3.026  0.00  0.00    +0.000 A 
ATOM     26  N   UNL     1       5.213   2.345   4.073  0.00  0.00    +0.000 NA
ATOM     27  C   UNL     1       5.956   3.360   3.780  0.00  0.00    +0.000 A 
ATOM     28  N   UNL     1       6.445   3.637   2.529  0.00  0.00    +0.000 N 
ATOM     29  C   UNL     1       6.112   2.897   1.415  0.00  0.00    +0.000 A 
ATOM     30  O   UNL     1       6.361   3.308   0.286  0.00  0.00    +0.000 OA
ATOM     31  C   UNL     1       5.388   1.674   1.717  0.00  0.00    +0.000 A 
ATOM     32  H   UNL     1       6.963   4.485   2.354  0.00  0.00    +0.000 HD
ENDBRANCH  20  22
ENDBRANCH   1  19
TORSDOF 6
