REMARK  Name = 
REMARK  7 active torsions:
REMARK  status: ('A' for Active; 'I' for Inactive)
REMARK    1  A    between atoms: C_1  and  O_2
REMARK    2  A    between atoms: O_2  and  C_3
REMARK    3  A    between atoms: C_5  and  C_6
REMARK    4  A    between atoms: C_6  and  N_7
REMARK    5  A    between atoms: C_8  and  C_10
REMARK    6  A    between atoms: C_22  and  C_23
REMARK    7  A    between atoms: C_23  and  N_24
REMARK                            x       y       z     vdW  Elec       q    Type
REMARK                         _______ _______ _______ _____ _____    ______ ____
ROOT
ATOM      1  C   UNL     1       3.064  -0.787  -0.932  0.00  0.00    +0.000 A 
ATOM      2  C   UNL     1       2.797  -0.852  -2.310  0.00  0.00    +0.000 A 
ATOM      3  C   UNL     1       3.537  -1.687  -3.157  0.00  0.00    +0.000 A 
ATOM      4  C   UNL     1       4.588  -2.427  -2.619  0.00  0.00    +0.000 A 
ATOM      5  C   UNL     1       4.862  -2.373  -1.252  0.00  0.00    +0.000 A 
ATOM      6  C   UNL     1       4.103  -1.563  -0.386  0.00  0.00    +0.000 A 
ENDROOT
BRANCH   1   8
ATOM      7  C   UNL     1       1.069   0.420  -0.522  0.00  0.00    +0.000 C 
ATOM      8  O   UNL     1       2.375   0.047  -0.085  0.00  0.00    +0.000 OA
ENDBRANCH   1   8
BRANCH   3   9
ATOM      9  C   UNL     1       3.232  -1.755  -4.628  0.00  0.00    +0.000 C 
BRANCH   9  10
ATOM     10  N   UNL     1       3.955  -0.752  -5.363  0.00  0.00    +0.000 N 
ATOM     11  C   UNL     1       5.156  -1.000  -5.973  0.00  0.00    +0.000 C 
ATOM     12  O   UNL     1       5.709  -2.096  -5.928  0.00  0.00    +0.000 OA
ATOM     13  H   UNL     1       3.681   0.211  -5.197  0.00  0.00    +0.000 HD
BRANCH  11  14
ATOM     14  C   UNL     1       5.711   0.107  -6.761  0.00  0.00    +0.000 A 
ATOM     15  C   UNL     1       6.568  -0.163  -7.821  0.00  0.00    +0.000 A 
ATOM     16  S   UNL     1       7.085   1.233  -8.653  0.00  0.00    +0.000 S 
ATOM     17  C   UNL     1       6.218   2.249  -7.598  0.00  0.00    +0.000 A 
ATOM     18  N   UNL     1       6.258   3.601  -7.739  0.00  0.00    +0.000 NA
ATOM     19  C   UNL     1       5.572   4.250  -6.858  0.00  0.00    +0.000 A 
ATOM     20  N   UNL     1       4.840   3.669  -5.856  0.00  0.00    +0.000 N 
ATOM     21  C   UNL     1       4.724   2.308  -5.708  0.00  0.00    +0.000 A 
ATOM     22  O   UNL     1       3.976   1.820  -4.865  0.00  0.00    +0.000 OA
ATOM     23  C   UNL     1       5.513   1.531  -6.647  0.00  0.00    +0.000 A 
ATOM     24  H   UNL     1       4.304   4.234  -5.212  0.00  0.00    +0.000 HD
ENDBRANCH  11  14
ENDBRANCH   9  10
ENDBRANCH   3   9
BRANCH   6  25
ATOM     25  C   UNL     1       4.429  -1.595   1.097  0.00  0.00    +0.000 C 
BRANCH  25  26
ATOM     26  N   UNL     1       3.674  -2.624   1.770  0.00  0.00    +0.000 N 
ATOM     27  C   UNL     1       3.852  -2.878   3.102  0.00  0.00    +0.000 A 
ATOM     28  N   UNL     1       4.677  -2.103   3.824  0.00  0.00    +0.000 NA
ATOM     29  C   UNL     1       4.806  -2.382   5.131  0.00  0.00    +0.000 A 
ATOM     30  C   UNL     1       4.159  -3.421   5.750  0.00  0.00    +0.000 A 
ATOM     31  C   UNL     1       3.337  -4.159   4.936  0.00  0.00    +0.000 A 
ATOM     32  N   UNL     1       3.171  -3.906   3.619  0.00  0.00    +0.000 NA
ATOM     33  H   UNL     1       3.042  -3.230   1.275  0.00  0.00    +0.000 HD
ENDBRANCH  25  26
ENDBRANCH   6  25
TORSDOF 6
