REMARK  Name = 
REMARK  4 active torsions:
REMARK  status: ('A' for Active; 'I' for Inactive)
REMARK    1  A    between atoms: C_2  and  C_4
REMARK    2  A    between atoms: C_7  and  C_8
REMARK    3  A    between atoms: C_8  and  N_9
REMARK    4  A    between atoms: C_14  and  C_15
REMARK                            x       y       z     vdW  Elec       q    Type
REMARK                         _______ _______ _______ _____ _____    ______ ____
ROOT
ATOM      1  N   UNL     1       5.422  -3.771   5.093  0.00  0.00    +0.000 N 
ATOM      2  C   UNL     1       6.353  -3.620   6.130  0.00  0.00    +0.000 A 
ATOM      3  C   UNL     1       7.036  -4.815   6.200  0.00  0.00    +0.000 A 
ATOM      4  C   UNL     1       6.149  -5.791   5.701  0.00  0.00    +0.000 A 
ATOM      5  C   UNL     1       6.107  -7.189   5.766  0.00  0.00    +0.000 A 
ATOM      6  C   UNL     1       4.913  -7.813   5.399  0.00  0.00    +0.000 A 
ATOM      7  C   UNL     1       3.918  -7.036   4.809  0.00  0.00    +0.000 A 
ATOM      8  N   UNL     1       3.986  -5.696   4.559  0.00  0.00    +0.000 NA
ATOM      9  C   UNL     1       5.093  -5.121   5.075  0.00  0.00    +0.000 A 
ENDROOT
BRANCH   6  10
ATOM     10  C   UNL     1       4.671  -9.256   5.728  0.00  0.00    +0.000 C 
ATOM     11  F   UNL     1       5.724  -9.849   6.362  0.00  0.00    +0.000 F 
ATOM     12  F   UNL     1       3.604  -9.426   6.557  0.00  0.00    +0.000 F 
ATOM     13  F   UNL     1       4.425 -10.020   4.630  0.00  0.00    +0.000 F 
ENDBRANCH   6  10
BRANCH   1  14
ATOM     14  C   UNL     1       5.711  -2.960   3.900  0.00  0.00    +0.000 C 
BRANCH  14  18
ATOM     15  C   UNL     1       3.147  -1.132   1.090  0.00  0.00    +0.000 A 
ATOM     16  C   UNL     1       2.597  -2.183   1.817  0.00  0.00    +0.000 A 
ATOM     17  C   UNL     1       3.368  -2.788   2.817  0.00  0.00    +0.000 A 
ATOM     18  C   UNL     1       4.654  -2.318   3.059  0.00  0.00    +0.000 A 
ATOM     19  C   UNL     1       5.094  -1.231   2.286  0.00  0.00    +0.000 A 
ATOM     20  N   UNL     1       4.384  -0.625   1.319  0.00  0.00    +0.000 NA
BRANCH  15  22
ATOM     21  N   UNL     1       3.094   0.436  -0.754  0.00  0.00    +0.000 N 
ATOM     22  C   UNL     1       2.409  -0.523  -0.053  0.00  0.00    +0.000 C 
ATOM     23  O   UNL     1       1.287  -0.852  -0.375  0.00  0.00    +0.000 OA
ATOM     24  H   UNL     1       2.684   0.876  -1.564  0.00  0.00    +0.000 HD
ATOM     25  H   UNL     1       4.048   0.670  -0.475  0.00  0.00    +0.000 HD
ENDBRANCH  15  22
ENDBRANCH  14  18
ENDBRANCH   1  14
TORSDOF 4
