REMARK  Name = 
REMARK  3 active torsions:
REMARK  status: ('A' for Active; 'I' for Inactive)
REMARK    1  A    between atoms: C_2  and  C_4
REMARK    2  A    between atoms: N_8  and  C_9
REMARK    3  A    between atoms: C_9  and  C_10
REMARK                            x       y       z     vdW  Elec       q    Type
REMARK                         _______ _______ _______ _____ _____    ______ ____
ROOT
ATOM      1  C   UNL     1       3.455   3.470   1.055  0.00  0.00    +0.000 A 
ATOM      2  C   UNL     1       2.705   3.168   2.187  0.00  0.00    +0.000 A 
ATOM      3  C   UNL     1       3.320   2.524   3.265  0.00  0.00    +0.000 A 
ATOM      4  C   UNL     1       4.666   2.182   3.187  0.00  0.00    +0.000 A 
ATOM      5  N   UNL     1       5.330   1.446   4.169  0.00  0.00    +0.000 N 
ATOM      6  N   UNL     1       5.401   2.470   2.088  0.00  0.00    +0.000 NA
ATOM      7  C   UNL     1       4.790   3.100   1.053  0.00  0.00    +0.000 A 
ATOM      8  H   UNL     1       6.301   1.398   3.862  0.00  0.00    +0.000 HD
ENDROOT
BRANCH   1  10
ATOM      9  N   UNL     1       1.765   4.887   0.029  0.00  0.00    +0.000 N 
ATOM     10  C   UNL     1       2.884   4.119  -0.144  0.00  0.00    +0.000 C 
ATOM     11  O   UNL     1       3.402   3.995  -1.246  0.00  0.00    +0.000 OA
ATOM     12  H   UNL     1       1.436   5.392  -0.784  0.00  0.00    +0.000 HD
ATOM     13  H   UNL     1       1.452   5.205   0.935  0.00  0.00    +0.000 HD
ENDBRANCH   1  10
BRANCH   5  14
ATOM     14  C   UNL     1       5.111   1.585   5.616  0.00  0.00    +0.000 C 
ATOM     15  C   UNL     1       5.062   0.265   6.378  0.00  0.00    +0.000 C 
ATOM     16  C   UNL     1       3.844   1.122   6.311  0.00  0.00    +0.000 C 
BRANCH  14  17
ATOM     17  C   UNL     1       5.876   2.751   6.240  0.00  0.00    +0.000 A 
ATOM     18  C   UNL     1       7.191   2.596   6.722  0.00  0.00    +0.000 A 
ATOM     19  C   UNL     1       7.902   3.669   7.267  0.00  0.00    +0.000 A 
ATOM     20  C   UNL     1       7.307   4.923   7.335  0.00  0.00    +0.000 A 
ATOM     21  F   UNL     1       8.006   5.942   7.854  0.00  0.00    +0.000 F 
ATOM     22  C   UNL     1       6.010   5.110   6.868  0.00  0.00    +0.000 A 
ATOM     23 CL   UNL     1       5.261   6.658   6.947  0.00  0.00    +0.000 Cl
ATOM     24  C   UNL     1       5.302   4.034   6.327  0.00  0.00    +0.000 A 
ENDBRANCH  14  17
ENDBRANCH   5  14
TORSDOF 3
