REMARK  Name = 
REMARK  9 active torsions:
REMARK  status: ('A' for Active; 'I' for Inactive)
REMARK    1  A    between atoms: C_1  and  C_2
REMARK    2  A    between atoms: C_2  and  N_3
REMARK    3  A    between atoms: N_3  and  C_4
REMARK    4  A    between atoms: N_3  and  C_25
REMARK    5  A    between atoms: C_4  and  C_5
REMARK    6  A    between atoms: C_8  and  C_9
REMARK    7  A    between atoms: C_9  and  N_10
REMARK    8  A    between atoms: C_11  and  C_13
REMARK    9  A    between atoms: C_25  and  C_26
REMARK                            x       y       z     vdW  Elec       q    Type
REMARK                         _______ _______ _______ _____ _____    ______ ____
ROOT
ATOM      1  C   UNL     1       0.956   2.614  -0.398  0.00  0.00    +0.000 A 
ATOM      2  C   UNL     1       0.218   1.525  -0.882  0.00  0.00    +0.000 A 
ATOM      3  C   UNL     1      -1.181   1.500  -0.766  0.00  0.00    +0.000 A 
ATOM      4  C   UNL     1      -1.878   2.586  -0.220  0.00  0.00    +0.000 A 
ATOM      5  C   UNL     1      -1.150   3.723   0.152  0.00  0.00    +0.000 A 
ATOM      6  C   UNL     1       0.249   3.733   0.071  0.00  0.00    +0.000 A 
ENDROOT
BRANCH   1   7
ATOM      7  C   UNL     1       2.469   2.524  -0.235  0.00  0.00    +0.000 C 
BRANCH   7   8
ATOM      8  N   UNL     1       3.301   3.002  -1.358  0.00  0.00    +0.000 NA
BRANCH   8  10
ATOM      9  C   UNL     1       5.464   3.309   0.027  0.00  0.00    +0.000 C 
ATOM     10  C   UNL     1       4.726   2.645  -1.140  0.00  0.00    +0.000 C 
ENDBRANCH   8  10
BRANCH   8  11
ATOM     11  C   UNL     1       3.122   4.454  -1.554  0.00  0.00    +0.000 C 
BRANCH  11  12
ATOM     12  C   UNL     1       3.878   5.071  -2.717  0.00  0.00    +0.000 A 
ATOM     13  C   UNL     1       3.653   4.640  -4.019  0.00  0.00    +0.000 A 
ATOM     14  C   UNL     1       4.272   5.333  -5.051  0.00  0.00    +0.000 A 
ATOM     15 CL   UNL     1       3.998   4.864  -6.684  0.00  0.00    +0.000 Cl
ATOM     16  C   UNL     1       5.092   6.419  -4.780  0.00  0.00    +0.000 A 
ATOM     17  C   UNL     1       5.286   6.758  -3.456  0.00  0.00    +0.000 A 
ATOM     18  N   UNL     1       4.701   6.112  -2.426  0.00  0.00    +0.000 NA
ENDBRANCH  11  12
ENDBRANCH   8  11
ENDBRANCH   7   8
ENDBRANCH   1   7
BRANCH   4  19
ATOM     19  C   UNL     1      -3.367   2.518   0.020  0.00  0.00    +0.000 C 
BRANCH  19  20
ATOM     20  N   UNL     1      -3.684   1.970   1.325  0.00  0.00    +0.000 N 
ATOM     21  C   UNL     1      -4.989   1.731   1.688  0.00  0.00    +0.000 C 
ATOM     22  O   UNL     1      -5.920   1.935   0.916  0.00  0.00    +0.000 OA
ATOM     23  H   UNL     1      -2.960   2.001   2.039  0.00  0.00    +0.000 HD
BRANCH  21  24
ATOM     24  C   UNL     1      -5.223   1.161   3.023  0.00  0.00    +0.000 A 
ATOM     25  C   UNL     1      -6.386   0.439   3.265  0.00  0.00    +0.000 A 
ATOM     26  S   UNL     1      -6.501  -0.176   4.850  0.00  0.00    +0.000 S 
ATOM     27  C   UNL     1      -5.024   0.540   5.291  0.00  0.00    +0.000 A 
ATOM     28  N   UNL     1      -4.544   0.431   6.558  0.00  0.00    +0.000 NA
ATOM     29  C   UNL     1      -3.432   1.051   6.767  0.00  0.00    +0.000 A 
ATOM     30  N   UNL     1      -2.750   1.767   5.814  0.00  0.00    +0.000 N 
ATOM     31  C   UNL     1      -3.174   1.874   4.512  0.00  0.00    +0.000 A 
ATOM     32  O   UNL     1      -2.509   2.471   3.667  0.00  0.00    +0.000 OA
ATOM     33  C   UNL     1      -4.432   1.219   4.229  0.00  0.00    +0.000 A 
ATOM     34  H   UNL     1      -1.874   2.216   6.040  0.00  0.00    +0.000 HD
ENDBRANCH  21  24
ENDBRANCH  19  20
ENDBRANCH   4  19
TORSDOF 8
