REMARK  Name = 
REMARK  3 active torsions:
REMARK  status: ('A' for Active; 'I' for Inactive)
REMARK    1  A    between atoms: C_2  and  C_4
REMARK    2  A    between atoms: N_8  and  C_9
REMARK    3  A    between atoms: C_9  and  C_10
REMARK                            x       y       z     vdW  Elec       q    Type
REMARK                         _______ _______ _______ _____ _____    ______ ____
ROOT
ATOM      1  C   UNL     1       3.193   0.597  -1.258  0.00  0.00    +0.000 A 
ATOM      2  C   UNL     1       3.599  -0.582  -1.875  0.00  0.00    +0.000 A 
ATOM      3  C   UNL     1       4.254  -0.506  -3.101  0.00  0.00    +0.000 A 
ATOM      4  C   UNL     1       4.456   0.733  -3.709  0.00  0.00    +0.000 A 
ATOM      5  N   UNL     1       5.061   0.729  -4.961  0.00  0.00    +0.000 N 
ATOM      6  N   UNL     1       4.046   1.879  -3.134  0.00  0.00    +0.000 NA
ATOM      7  C   UNL     1       3.428   1.791  -1.925  0.00  0.00    +0.000 A 
ATOM      8  H   UNL     1       6.012   0.380  -4.911  0.00  0.00    +0.000 HD
ENDROOT
BRANCH   1  10
ATOM      9  N   UNL     1       2.775  -0.421   0.904  0.00  0.00    +0.000 N 
ATOM     10  C   UNL     1       2.515   0.618   0.055  0.00  0.00    +0.000 C 
ATOM     11  O   UNL     1       1.779   1.538   0.380  0.00  0.00    +0.000 OA
ATOM     12  H   UNL     1       2.389  -0.346   1.837  0.00  0.00    +0.000 HD
ATOM     13  H   UNL     1       3.547  -1.058   0.770  0.00  0.00    +0.000 HD
ENDBRANCH   1  10
BRANCH   5  14
ATOM     14  C   UNL     1       4.939   1.928  -5.772  0.00  0.00    +0.000 C 
BRANCH  14  15
ATOM     15  C   UNL     1       5.231   1.538  -7.207  0.00  0.00    +0.000 A 
ATOM     16  C   UNL     1       4.480   0.517  -7.817  0.00  0.00    +0.000 A 
ATOM     17  C   UNL     1       4.727   0.133  -9.134  0.00  0.00    +0.000 A 
ATOM     18  C   UNL     1       5.721   0.774  -9.864  0.00  0.00    +0.000 A 
ATOM     19  C   UNL     1       6.473   1.793  -9.277  0.00  0.00    +0.000 A 
ATOM     20  C   UNL     1       6.231   2.175  -7.952  0.00  0.00    +0.000 A 
ENDBRANCH  14  15
ENDBRANCH   5  14
TORSDOF 3
