REMARK  Name = 
REMARK  5 active torsions:
REMARK  status: ('A' for Active; 'I' for Inactive)
REMARK    1  A    between atoms: C_7  and  C_8
REMARK    2  A    between atoms: N_10  and  C_11
REMARK    3  A    between atoms: C_11  and  C_12
REMARK    4  A    between atoms: C_15  and  C_16
REMARK    5  A    between atoms: C_16  and  C_17
REMARK                            x       y       z     vdW  Elec       q    Type
REMARK                         _______ _______ _______ _____ _____    ______ ____
ROOT
ATOM      1  C   UNL     1      -2.111  -2.595  -0.987  0.00  0.00    +0.000 C 
ATOM      2  O   UNL     1      -2.482  -3.114  -2.037  0.00  0.00    +0.000 OA
ATOM      3  N   UNL     1      -2.294  -3.202   0.231  0.00  0.00    +0.000 N 
ATOM      4  H   UNL     1      -1.939  -2.761   1.075  0.00  0.00    +0.000 HD
ENDROOT
BRANCH   1  11
ATOM      5  N   UNL     1       0.423   2.720   2.259  0.00  0.00    +0.000 N 
ATOM      6  C   UNL     1      -0.042   1.704   1.487  0.00  0.00    +0.000 A 
ATOM      7  N   UNL     1      -0.050   1.822   0.189  0.00  0.00    +0.000 NA
ATOM      8  C   UNL     1      -0.546   0.739  -0.451  0.00  0.00    +0.000 A 
ATOM      9  N   UNL     1      -0.643   0.651  -1.807  0.00  0.00    +0.000 N 
ATOM     10  C   UNL     1      -1.205  -0.555  -2.134  0.00  0.00    +0.000 A 
ATOM     11  C   UNL     1      -1.475  -1.274  -0.971  0.00  0.00    +0.000 A 
ATOM     12  C   UNL     1      -1.030  -0.431   0.093  0.00  0.00    +0.000 A 
ATOM     13  C   UNL     1      -0.999  -0.538   1.531  0.00  0.00    +0.000 A 
ATOM     14  O   UNL     1      -1.378  -1.525   2.155  0.00  0.00    +0.000 OA
ATOM     15  N   UNL     1      -0.494   0.587   2.154  0.00  0.00    +0.000 N 
ATOM     16  H   UNL     1       0.529   3.582   1.730  0.00  0.00    +0.000 HD
ATOM     17  H   UNL     1      -0.026   2.863   3.153  0.00  0.00    +0.000 HD
ATOM     18  H   UNL     1      -0.350   1.372  -2.451  0.00  0.00    +0.000 HD
ATOM     19  H   UNL     1      -0.415   0.538   3.155  0.00  0.00    +0.000 HD
ENDBRANCH   1  11
BRANCH   3  20
ATOM     20  C   UNL     1      -2.994  -4.457   0.368  0.00  0.00    +0.000 C 
BRANCH  20  21
ATOM     21  C   UNL     1      -2.070  -5.639   0.355  0.00  0.00    +0.000 A 
ATOM     22  C   UNL     1      -1.736  -6.289  -0.834  0.00  0.00    +0.000 A 
ATOM     23  C   UNL     1      -0.870  -7.379  -0.812  0.00  0.00    +0.000 A 
ATOM     24  C   UNL     1      -0.349  -7.800   0.409  0.00  0.00    +0.000 A 
ATOM     25  N   UNL     1      -0.660  -7.189   1.580  0.00  0.00    +0.000 NA
ATOM     26  C   UNL     1      -1.499  -6.127   1.525  0.00  0.00    +0.000 A 
BRANCH  24  27
ATOM     27  C   UNL     1       0.673  -8.917   0.458  0.00  0.00    +0.000 C 
BRANCH  27  28
ATOM     28  C   UNL     1       2.084  -8.426   0.226  0.00  0.00    +0.000 A 
ATOM     29  C   UNL     1       2.685  -7.550   1.137  0.00  0.00    +0.000 A 
ATOM     30  C   UNL     1       3.955  -7.070   0.864  0.00  0.00    +0.000 A 
ATOM     31  N   UNL     1       4.667  -7.412  -0.230  0.00  0.00    +0.000 NA
ATOM     32  C   UNL     1       4.078  -8.270  -1.089  0.00  0.00    +0.000 A 
ATOM     33  C   UNL     1       2.808  -8.800  -0.909  0.00  0.00    +0.000 A 
ENDBRANCH  27  28
ENDBRANCH  24  27
ENDBRANCH  20  21
ENDBRANCH   3  20
TORSDOF 5
