REMARK  Name = 
REMARK  6 active torsions:
REMARK  status: ('A' for Active; 'I' for Inactive)
REMARK    1  A    between atoms: N_1  and  C_2
REMARK    2  A    between atoms: C_2  and  C_3
REMARK    3  A    between atoms: C_3  and  C_4
REMARK    4  A    between atoms: N_7  and  C_8
REMARK    5  A    between atoms: C_8  and  N_9
REMARK    6  A    between atoms: C_15  and  C_16
REMARK                            x       y       z     vdW  Elec       q    Type
REMARK                         _______ _______ _______ _____ _____    ______ ____
ROOT
ATOM      1  N   UNL     1       5.566   0.323  -3.877  0.00  0.00    +0.000 N 
ATOM      2  C   UNL     1       6.898   0.476  -4.174  0.00  0.00    +0.000 A 
ATOM      3  C   UNL     1       7.011   1.435  -5.157  0.00  0.00    +0.000 A 
ATOM      4  C   UNL     1       5.705   1.863  -5.485  0.00  0.00    +0.000 A 
ATOM      5  N   UNL     1       5.314   2.744  -6.438  0.00  0.00    +0.000 NA
ATOM      6  C   UNL     1       3.976   2.895  -6.559  0.00  0.00    +0.000 A 
ATOM      7  C   UNL     1       3.016   2.269  -5.764  0.00  0.00    +0.000 A 
ATOM      8  C   UNL     1       3.438   1.430  -4.731  0.00  0.00    +0.000 A 
ATOM      9  C   UNL     1       4.812   1.193  -4.645  0.00  0.00    +0.000 A 
ENDROOT
BRANCH   7  10
ATOM     10  C   UNL     1       1.587   2.467  -6.090  0.00  0.00    +0.000 C 
ATOM     11  N   UNL     1       0.718   1.501  -5.671  0.00  0.00    +0.000 N 
ATOM     12  O   UNL     1       1.199   3.418  -6.753  0.00  0.00    +0.000 OA
ATOM     13  H   UNL     1       1.024   0.591  -5.353  0.00  0.00    +0.000 HD
ATOM     14  H   UNL     1      -0.227   1.563  -6.034  0.00  0.00    +0.000 HD
ENDBRANCH   7  10
BRANCH   1  15
ATOM     15  C   UNL     1       5.017  -0.762  -3.058  0.00  0.00    +0.000 C 
BRANCH  15  19
ATOM     16  C   UNL     1       4.550  -0.541   1.194  0.00  0.00    +0.000 C 
ATOM     17  C   UNL     1       5.119   0.687   0.470  0.00  0.00    +0.000 C 
ATOM     18  C   UNL     1       4.973   0.614  -1.053  0.00  0.00    +0.000 C 
ATOM     19  N   UNL     1       5.451  -0.643  -1.654  0.00  0.00    +0.000 NA
ATOM     20  C   UNL     1       4.988  -1.843  -0.934  0.00  0.00    +0.000 C 
ATOM     21  C   UNL     1       5.210  -1.776   0.576  0.00  0.00    +0.000 C 
BRANCH  16  22
ATOM     22  C   UNL     1       3.002  -0.571   1.157  0.00  0.00    +0.000 C 
BRANCH  22  23
ATOM     23  C   UNL     1       2.355  -1.749   1.898  0.00  0.00    +0.000 C 
BRANCH  23  24
ATOM     24  N   UNL     1       2.717  -1.777   3.308  0.00  0.00    +0.000 NA
ATOM     25  H   UNL     1       2.262  -2.567   3.764  0.00  0.00    +0.000 HD
ATOM     26  H   UNL     1       2.364  -0.940   3.772  0.00  0.00    +0.000 HD
ENDBRANCH  23  24
ENDBRANCH  22  23
ENDBRANCH  16  22
ENDBRANCH  15  19
ENDBRANCH   1  15
TORSDOF 6
