REMARK  Name = 
REMARK  5 active torsions:
REMARK  status: ('A' for Active; 'I' for Inactive)
REMARK    1  A    between atoms: C_2  and  C_18
REMARK    2  A    between atoms: N_3  and  C_4
REMARK    3  A    between atoms: C_4  and  C_5
REMARK    4  A    between atoms: C_8  and  C_9
REMARK    5  A    between atoms: C_9  and  C_10
REMARK                            x       y       z     vdW  Elec       q    Type
REMARK                         _______ _______ _______ _____ _____    ______ ____
ROOT
ATOM      1  O   UNL     1       1.398   3.064  -0.798  0.00  0.00    +0.000 OA
ATOM      2  C   UNL     1       2.259   2.188  -0.800  0.00  0.00    +0.000 C 
ATOM      3  N   UNL     1       2.661   1.550   0.344  0.00  0.00    +0.000 N 
ATOM      4  H   UNL     1       3.485   0.959   0.326  0.00  0.00    +0.000 HD
ENDROOT
BRANCH   2   5
ATOM      5  C   UNL     1       2.872   1.729  -2.053  0.00  0.00    +0.000 A 
ATOM      6  C   UNL     1       2.215   1.949  -3.257  0.00  0.00    +0.000 A 
ATOM      7  S   UNL     1       3.058   1.361  -4.616  0.00  0.00    +0.000 S 
ATOM      8  C   UNL     1       4.352   0.827  -3.648  0.00  0.00    +0.000 A 
ATOM      9  N   UNL     1       5.450   0.256  -4.210  0.00  0.00    +0.000 NA
ATOM     10  C   UNL     1       6.373  -0.064  -3.366  0.00  0.00    +0.000 A 
ATOM     11  N   UNL     1       6.287   0.114  -2.008  0.00  0.00    +0.000 N 
ATOM     12  C   UNL     1       5.164   0.612  -1.390  0.00  0.00    +0.000 A 
ATOM     13  O   UNL     1       5.060   0.626  -0.166  0.00  0.00    +0.000 OA
ATOM     14  C   UNL     1       4.125   1.055  -2.301  0.00  0.00    +0.000 A 
ATOM     15  H   UNL     1       7.033  -0.189  -1.398  0.00  0.00    +0.000 HD
ENDBRANCH   2   5
BRANCH   3  16
ATOM     16  C   UNL     1       2.148   1.895   1.644  0.00  0.00    +0.000 C 
BRANCH  16  17
ATOM     17  C   UNL     1       3.054   2.857   2.366  0.00  0.00    +0.000 A 
ATOM     18  C   UNL     1       2.933   4.235   2.146  0.00  0.00    +0.000 A 
ATOM     19  C   UNL     1       3.734   5.138   2.846  0.00  0.00    +0.000 A 
ATOM     20  C   UNL     1       4.670   4.684   3.785  0.00  0.00    +0.000 A 
ATOM     21  C   UNL     1       4.818   3.304   3.977  0.00  0.00    +0.000 A 
ATOM     22  C   UNL     1       4.027   2.398   3.263  0.00  0.00    +0.000 A 
BRANCH  20  23
ATOM     23  C   UNL     1       5.506   5.667   4.575  0.00  0.00    +0.000 C 
BRANCH  23  24
ATOM     24  C   UNL     1       4.913   6.131   5.890  0.00  0.00    +0.000 A 
ATOM     25  C   UNL     1       3.684   6.791   5.937  0.00  0.00    +0.000 A 
ATOM     26  C   UNL     1       3.236   7.309   7.150  0.00  0.00    +0.000 A 
ATOM     27  C   UNL     1       4.018   7.157   8.286  0.00  0.00    +0.000 A 
ATOM     28  C   UNL     1       5.217   6.477   8.163  0.00  0.00    +0.000 A 
ATOM     29  N   UNL     1       5.681   5.968   6.999  0.00  0.00    +0.000 NA
ENDBRANCH  23  24
ENDBRANCH  20  23
ENDBRANCH  16  17
ENDBRANCH   3  16
TORSDOF 5
