REMARK  Name = 
REMARK  9 active torsions:
REMARK  status: ('A' for Active; 'I' for Inactive)
REMARK    1  A    between atoms: C_1  and  O_2
REMARK    2  A    between atoms: O_2  and  C_3
REMARK    3  A    between atoms: C_10  and  C_11
REMARK    4  A    between atoms: N_13  and  C_14
REMARK    5  A    between atoms: C_14  and  C_15
REMARK    6  A    between atoms: C_18  and  C_19
REMARK    7  A    between atoms: C_19  and  O_20
REMARK    8  A    between atoms: O_20  and  C_21
REMARK    9  A    between atoms: C_21  and  C_22
REMARK                            x       y       z     vdW  Elec       q    Type
REMARK                         _______ _______ _______ _____ _____    ______ ____
ROOT
ATOM      1  C   UNL     1       2.846   0.457  -3.458  0.00  0.00    +0.000 C 
ENDROOT
BRANCH   1   2
ATOM      2  C   UNL     1       1.633  -0.433  -3.331  0.00  0.00    +0.000 A 
ATOM      3  C   UNL     1       1.756  -1.829  -3.373  0.00  0.00    +0.000 A 
ATOM      4  C   UNL     1       0.629  -2.651  -3.241  0.00  0.00    +0.000 A 
ATOM      5  C   UNL     1      -0.646  -2.096  -3.074  0.00  0.00    +0.000 A 
ATOM      6  C   UNL     1      -0.771  -0.699  -3.062  0.00  0.00    +0.000 A 
ATOM      7  C   UNL     1       0.354   0.121  -3.196  0.00  0.00    +0.000 A 
BRANCH   5   8
ATOM      8  C   UNL     1      -1.864  -2.978  -2.930  0.00  0.00    +0.000 C 
BRANCH   8   9
ATOM      9  O   UNL     1      -1.716  -3.803  -1.778  0.00  0.00    +0.000 OA
BRANCH   9  10
ATOM     10  C   UNL     1      -2.859  -4.633  -1.568  0.00  0.00    +0.000 C 
BRANCH  10  11
ATOM     11  C   UNL     1      -2.674  -5.488  -0.335  0.00  0.00    +0.000 A 
ATOM     12  C   UNL     1      -1.926  -5.028   0.764  0.00  0.00    +0.000 A 
ATOM     13  C   UNL     1      -1.797  -5.807   1.914  0.00  0.00    +0.000 A 
ATOM     14  C   UNL     1      -2.423  -7.046   1.976  0.00  0.00    +0.000 A 
ATOM     15  F   UNL     1      -2.303  -7.792   3.082  0.00  0.00    +0.000 F 
ATOM     16  C   UNL     1      -3.176  -7.519   0.910  0.00  0.00    +0.000 A 
ATOM     17  C   UNL     1      -3.306  -6.740  -0.245  0.00  0.00    +0.000 A 
ENDBRANCH  10  11
ENDBRANCH   9  10
ENDBRANCH   8   9
ENDBRANCH   5   8
ENDBRANCH   1   2
BRANCH   1  20
ATOM     18  C   UNL     1       4.223   1.488  -5.225  0.00  0.00    +0.000 C 
ATOM     19  O   UNL     1       4.991   1.974  -4.398  0.00  0.00    +0.000 OA
ATOM     20  N   UNL     1       3.145   0.736  -4.840  0.00  0.00    +0.000 N 
ATOM     21  H   UNL     1       2.466   0.442  -5.528  0.00  0.00    +0.000 HD
BRANCH  18  29
ATOM     22  C   UNL     1       2.556   0.357  -8.016  0.00  0.00    +0.000 A 
ATOM     23  N   UNL     1       2.142   0.008  -9.251  0.00  0.00    +0.000 NA
ATOM     24  C   UNL     1       2.850   0.440 -10.296  0.00  0.00    +0.000 A 
ATOM     25  N   UNL     1       3.938   1.204 -10.265  0.00  0.00    +0.000 NA
ATOM     26  C   UNL     1       4.315   1.529  -9.018  0.00  0.00    +0.000 A 
ATOM     27  S   UNL     1       5.680   2.515  -8.786  0.00  0.00    +0.000 S 
ATOM     28  C   UNL     1       5.509   2.441  -7.098  0.00  0.00    +0.000 A 
ATOM     29  C   UNL     1       4.431   1.673  -6.673  0.00  0.00    +0.000 A 
ATOM     30  C   UNL     1       3.701   1.151  -7.828  0.00  0.00    +0.000 A 
BRANCH  22  32
ATOM     31  C   UNL     1       1.025  -1.211  -7.198  0.00  0.00    +0.000 C 
ATOM     32  O   UNL     1       1.775  -0.026  -6.945  0.00  0.00    +0.000 OA
ENDBRANCH  22  32
ENDBRANCH  18  29
ENDBRANCH   1  20
TORSDOF 8
