REMARK  Name = 
REMARK  7 active torsions:
REMARK  status: ('A' for Active; 'I' for Inactive)
REMARK    1  A    between atoms: C_2  and  C_3
REMARK    2  A    between atoms: C_3  and  C_4
REMARK    3  A    between atoms: C_3  and  C_25
REMARK    4  A    between atoms: C_4  and  C_5
REMARK    5  A    between atoms: C_8  and  C_9
REMARK    6  A    between atoms: C_9  and  N_10
REMARK    7  A    between atoms: C_11  and  C_13
REMARK                            x       y       z     vdW  Elec       q    Type
REMARK                         _______ _______ _______ _____ _____    ______ ____
ROOT
ATOM      1  C   UNL     1       1.811  -0.803   1.468  0.00  0.00    +0.000 A 
ATOM      2  C   UNL     1       2.631  -1.345   2.450  0.00  0.00    +0.000 A 
ATOM      3  C   UNL     1       2.045  -1.886   3.598  0.00  0.00    +0.000 A 
ATOM      4  C   UNL     1       0.659  -1.857   3.762  0.00  0.00    +0.000 A 
ATOM      5  C   UNL     1      -0.084  -1.326   2.719  0.00  0.00    +0.000 A 
ATOM      6  N   UNL     1       0.460  -0.801   1.595  0.00  0.00    +0.000 NA
ENDROOT
BRANCH   1   7
ATOM      7  C   UNL     1       2.319  -0.073   0.248  0.00  0.00    +0.000 C 
BRANCH   7   8
ATOM      8  C   UNL     1       3.717  -0.391  -0.319  0.00  0.00    +0.000 C 
BRANCH   8   9
ATOM      9  C   UNL     1       4.026   0.504  -1.525  0.00  0.00    +0.000 A 
ATOM     10  C   UNL     1       5.174   1.313  -1.536  0.00  0.00    +0.000 A 
ATOM     11  C   UNL     1       5.455   2.136  -2.634  0.00  0.00    +0.000 A 
ATOM     12  C   UNL     1       4.593   2.157  -3.728  0.00  0.00    +0.000 A 
ATOM     13 CL   UNL     1       4.936   3.173  -5.072  0.00  0.00    +0.000 Cl
ATOM     14  C   UNL     1       3.456   1.356  -3.740  0.00  0.00    +0.000 A 
ATOM     15  C   UNL     1       3.178   0.529  -2.649  0.00  0.00    +0.000 A 
ENDBRANCH   8   9
BRANCH   8  17
ATOM     16  N   UNL     1       4.022  -2.937  -0.942  0.00  0.00    +0.000 NA
ATOM     17  C   UNL     1       3.867  -1.817  -0.677  0.00  0.00    +0.000 C 
ENDBRANCH   8  17
ENDBRANCH   7   8
ENDBRANCH   1   7
BRANCH   4  18
ATOM     18  C   UNL     1      -0.001  -2.393   4.997  0.00  0.00    +0.000 C 
BRANCH  18  19
ATOM     19  N   UNL     1      -0.276  -3.802   4.882  0.00  0.00    +0.000 N 
ATOM     20  C   UNL     1      -0.939  -4.477   5.875  0.00  0.00    +0.000 C 
ATOM     21  O   UNL     1      -1.372  -3.901   6.870  0.00  0.00    +0.000 OA
ATOM     22  H   UNL     1       0.255  -4.326   4.191  0.00  0.00    +0.000 HD
BRANCH  20  23
ATOM     23  C   UNL     1      -1.149  -5.916   5.669  0.00  0.00    +0.000 A 
ATOM     24  C   UNL     1      -2.175  -6.563   6.345  0.00  0.00    +0.000 A 
ATOM     25  S   UNL     1      -2.300  -8.223   5.973  0.00  0.00    +0.000 S 
ATOM     26  C   UNL     1      -0.957  -8.147   4.930  0.00  0.00    +0.000 A 
ATOM     27  N   UNL     1      -0.503  -9.260   4.293  0.00  0.00    +0.000 NA
ATOM     28  C   UNL     1       0.537  -9.063   3.552  0.00  0.00    +0.000 A 
ATOM     29  N   UNL     1       1.158  -7.853   3.385  0.00  0.00    +0.000 N 
ATOM     30  C   UNL     1       0.720  -6.699   3.984  0.00  0.00    +0.000 A 
ATOM     31  O   UNL     1       1.272  -5.621   3.784  0.00  0.00    +0.000 OA
ATOM     32  C   UNL     1      -0.437  -6.867   4.846  0.00  0.00    +0.000 A 
ATOM     33  H   UNL     1       1.959  -7.764   2.777  0.00  0.00    +0.000 HD
ENDBRANCH  20  23
ENDBRANCH  18  19
ENDBRANCH   4  18
TORSDOF 7
