REMARK  Name = 
REMARK  11 active torsions:
REMARK  status: ('A' for Active; 'I' for Inactive)
REMARK    1  A    between atoms: C_1  and  O_2
REMARK    2  A    between atoms: O_2  and  C_3
REMARK    3  A    between atoms: C_3  and  C_4
REMARK    4  A    between atoms: C_4  and  N_5
REMARK    5  A    between atoms: N_5  and  C_6
REMARK    6  A    between atoms: N_5  and  C_13
REMARK    7  A    between atoms: C_6  and  C_7
REMARK    8  A    between atoms: C_13  and  C_14
REMARK    9  A    between atoms: C_17  and  C_18
REMARK   10  A    between atoms: C_18  and  N_19
REMARK   11  A    between atoms: C_20  and  C_22
REMARK                            x       y       z     vdW  Elec       q    Type
REMARK                         _______ _______ _______ _____ _____    ______ ____
ROOT
ATOM      1  C   UNL     1       6.839  -0.669  -4.120  0.00  0.00    +0.000 A 
ATOM      2  C   UNL     1       7.239   0.446  -4.852  0.00  0.00    +0.000 A 
ATOM      3  C   UNL     1       7.656   0.271  -6.172  0.00  0.00    +0.000 A 
ATOM      4  C   UNL     1       7.696  -1.011  -6.728  0.00  0.00    +0.000 A 
ATOM      5  C   UNL     1       7.288  -2.063  -5.915  0.00  0.00    +0.000 A 
ATOM      6  N   UNL     1       6.873  -1.923  -4.634  0.00  0.00    +0.000 NA
ENDROOT
BRANCH   1   7
ATOM      7  C   UNL     1       6.248  -0.511  -2.727  0.00  0.00    +0.000 C 
BRANCH   7   8
ATOM      8  N   UNL     1       5.010   0.295  -2.687  0.00  0.00    +0.000 NA
BRANCH   8   9
ATOM      9  C   UNL     1       3.929  -0.329  -3.486  0.00  0.00    +0.000 C 
BRANCH   9  10
ATOM     10  C   UNL     1       2.670   0.546  -3.587  0.00  0.00    +0.000 C 
BRANCH  10  12
ATOM     11  C   UNL     1       0.521   0.784  -4.468  0.00  0.00    +0.000 C 
ATOM     12  O   UNL     1       1.682  -0.042  -4.440  0.00  0.00    +0.000 OA
ENDBRANCH  10  12
ENDBRANCH   9  10
ENDBRANCH   8   9
BRANCH   8  13
ATOM     13  C   UNL     1       4.608   0.603  -1.298  0.00  0.00    +0.000 C 
BRANCH  13  14
ATOM     14  C   UNL     1       4.197  -0.543  -0.386  0.00  0.00    +0.000 A 
ATOM     15  C   UNL     1       5.150  -1.199   0.392  0.00  0.00    +0.000 A 
ATOM     16  C   UNL     1       4.728  -2.131   1.335  0.00  0.00    +0.000 A 
ATOM     17  C   UNL     1       3.372  -2.400   1.466  0.00  0.00    +0.000 A 
ATOM     18  C   UNL     1       2.492  -1.743   0.623  0.00  0.00    +0.000 A 
ATOM     19  N   UNL     1       2.871  -0.823  -0.293  0.00  0.00    +0.000 NA
ENDBRANCH  13  14
ENDBRANCH   8  13
ENDBRANCH   7   8
ENDBRANCH   1   7
BRANCH   4  20
ATOM     20  C   UNL     1       8.108  -1.251  -8.151  0.00  0.00    +0.000 C 
BRANCH  20  21
ATOM     21  N   UNL     1       6.970  -1.183  -9.043  0.00  0.00    +0.000 N 
ATOM     22  C   UNL     1       7.058  -1.469 -10.377  0.00  0.00    +0.000 C 
ATOM     23  O   UNL     1       8.100  -1.850 -10.901  0.00  0.00    +0.000 OA
ATOM     24  H   UNL     1       6.184  -0.631  -8.711  0.00  0.00    +0.000 HD
BRANCH  22  25
ATOM     25  C   UNL     1       5.802  -1.371 -11.135  0.00  0.00    +0.000 A 
ATOM     26  C   UNL     1       5.623  -2.102 -12.302  0.00  0.00    +0.000 A 
ATOM     27  S   UNL     1       4.066  -1.934 -12.978  0.00  0.00    +0.000 S 
ATOM     28  C   UNL     1       3.597  -0.825 -11.775  0.00  0.00    +0.000 A 
ATOM     29  N   UNL     1       2.357  -0.265 -11.775  0.00  0.00    +0.000 NA
ATOM     30  C   UNL     1       2.152   0.576 -10.817  0.00  0.00    +0.000 A 
ATOM     31  N   UNL     1       3.075   0.914  -9.862  0.00  0.00    +0.000 N 
ATOM     32  C   UNL     1       4.334   0.371  -9.822  0.00  0.00    +0.000 A 
ATOM     33  O   UNL     1       5.123   0.675  -8.933  0.00  0.00    +0.000 OA
ATOM     34  C   UNL     1       4.612  -0.598 -10.864  0.00  0.00    +0.000 A 
ATOM     35  H   UNL     1       2.850   1.576  -9.133  0.00  0.00    +0.000 HD
ENDBRANCH  22  25
ENDBRANCH  20  21
ENDBRANCH   4  20
TORSDOF 10
