REMARK  Name = 
REMARK  5 active torsions:
REMARK  status: ('A' for Active; 'I' for Inactive)
REMARK    1  A    between atoms: C_2  and  C_4
REMARK    2  A    between atoms: C_7  and  C_8
REMARK    3  A    between atoms: C_8  and  O_9
REMARK    4  A    between atoms: O_9  and  C_10
REMARK    5  A    between atoms: C_14  and  C_15
REMARK                            x       y       z     vdW  Elec       q    Type
REMARK                         _______ _______ _______ _____ _____    ______ ____
ROOT
ATOM      1  O   UNL     1       4.388   3.522  -4.883  0.00  0.00    +0.000 OA
ENDROOT
BRANCH   1   2
ATOM      2  C   UNL     1       4.909   4.184  -5.959  0.00  0.00    +0.000 A 
ATOM      3  C   UNL     1       5.238   3.618  -7.188  0.00  0.00    +0.000 A 
ATOM      4  C   UNL     1       5.765   4.420  -8.201  0.00  0.00    +0.000 A 
ATOM      5  C   UNL     1       5.996   5.778  -7.976  0.00  0.00    +0.000 A 
ATOM      6  C   UNL     1       5.707   6.361  -6.731  0.00  0.00    +0.000 A 
ATOM      7  C   UNL     1       5.135   5.550  -5.741  0.00  0.00    +0.000 A 
BRANCH   6   8
ATOM      8  C   UNL     1       6.180   7.783  -6.457  0.00  0.00    +0.000 C 
ATOM      9  C   UNL     1       5.294   8.626  -5.521  0.00  0.00    +0.000 C 
ATOM     10  C   UNL     1       5.959   9.973  -5.218  0.00  0.00    +0.000 C 
ATOM     11  C   UNL     1       7.381   9.787  -4.694  0.00  0.00    +0.000 C 
ATOM     12  N   UNL     1       8.195   9.035  -5.648  0.00  0.00    +0.000 NA
ATOM     13  C   UNL     1       7.620   7.712  -5.901  0.00  0.00    +0.000 C 
ATOM     14  H   UNL     1       9.137   8.920  -5.272  0.00  0.00    +0.000 HD
ENDBRANCH   6   8
ENDBRANCH   1   2
BRANCH   1  15
ATOM     15  C   UNL     1       4.224   2.105  -4.994  0.00  0.00    +0.000 C 
BRANCH  15  19
ATOM     16  C   UNL     1       2.457   0.568  -1.423  0.00  0.00    +0.000 A 
ATOM     17  C   UNL     1       3.339   1.640  -1.322  0.00  0.00    +0.000 A 
ATOM     18  C   UNL     1       3.942   2.135  -2.476  0.00  0.00    +0.000 A 
ATOM     19  C   UNL     1       3.632   1.561  -3.710  0.00  0.00    +0.000 A 
ATOM     20  N   UNL     1       2.813   0.481  -3.816  0.00  0.00    +0.000 NA
ATOM     21  C   UNL     1       2.251   0.006  -2.676  0.00  0.00    +0.000 A 
BRANCH  16  23
ATOM     22  N   UNL     1       1.467   0.872   0.769  0.00  0.00    +0.000 N 
ATOM     23  C   UNL     1       1.731   0.013  -0.264  0.00  0.00    +0.000 C 
ATOM     24  O   UNL     1       1.340  -1.147  -0.242  0.00  0.00    +0.000 OA
ATOM     25  H   UNL     1       0.862   0.517   1.500  0.00  0.00    +0.000 HD
ATOM     26  H   UNL     1       1.538   1.875   0.672  0.00  0.00    +0.000 HD
ENDBRANCH  16  23
ENDBRANCH  15  19
ENDBRANCH   1  15
TORSDOF 5
