REMARK  Name = 
REMARK  7 active torsions:
REMARK  status: ('A' for Active; 'I' for Inactive)
REMARK    1  A    between atoms: C_1  and  C_2
REMARK    2  A    between atoms: C_6  and  C_7
REMARK    3  A    between atoms: C_7  and  O_8
REMARK    4  A    between atoms: O_8  and  C_9
REMARK    5  A    between atoms: C_12  and  C_13
REMARK    6  A    between atoms: C_13  and  N_14
REMARK    7  A    between atoms: C_15  and  C_17
REMARK                            x       y       z     vdW  Elec       q    Type
REMARK                         _______ _______ _______ _____ _____    ______ ____
ROOT
ATOM      1  C   UNL     1      -6.412   7.062  -0.146  0.00  0.00    +0.000 C 
ENDROOT
BRANCH   1   5
ATOM      2  C   UNL     1      -3.935   3.540   0.146  0.00  0.00    +0.000 A 
ATOM      3  C   UNL     1      -3.593   4.557  -0.746  0.00  0.00    +0.000 A 
ATOM      4  C   UNL     1      -4.391   5.701  -0.853  0.00  0.00    +0.000 A 
ATOM      5  C   UNL     1      -5.542   5.836  -0.066  0.00  0.00    +0.000 A 
ATOM      6  C   UNL     1      -5.921   4.773   0.765  0.00  0.00    +0.000 A 
ATOM      7  C   UNL     1      -5.125   3.632   0.867  0.00  0.00    +0.000 A 
BRANCH   2   8
ATOM      8  O   UNL     1      -3.051   2.497   0.239  0.00  0.00    +0.000 OA
BRANCH   8   9
ATOM      9  C   UNL     1      -3.067   1.817   1.504  0.00  0.00    +0.000 C 
BRANCH   9  15
ATOM     10  C   UNL     1      -0.815  -1.746   3.939  0.00  0.00    +0.000 C 
ATOM     11  C   UNL     1      -0.698  -0.612   2.966  0.00  0.00    +0.000 A 
ATOM     12  C   UNL     1       0.539  -0.235   2.457  0.00  0.00    +0.000 A 
ATOM     13  C   UNL     1       0.601   0.843   1.580  0.00  0.00    +0.000 A 
ATOM     14  C   UNL     1      -0.567   1.514   1.238  0.00  0.00    +0.000 A 
ATOM     15  C   UNL     1      -1.775   1.075   1.771  0.00  0.00    +0.000 A 
ATOM     16  N   UNL     1      -1.846   0.029   2.637  0.00  0.00    +0.000 NA
ENDBRANCH   9  15
ENDBRANCH   8   9
ENDBRANCH   2   8
ENDBRANCH   1   5
BRANCH   1  17
ATOM     17  N   UNL     1      -7.441   6.875  -1.129  0.00  0.00    +0.000 N 
ATOM     18  C   UNL     1      -8.360   7.851  -1.415  0.00  0.00    +0.000 C 
ATOM     19  O   UNL     1      -8.323   8.960  -0.887  0.00  0.00    +0.000 OA
ATOM     20  H   UNL     1      -7.652   5.914  -1.378  0.00  0.00    +0.000 HD
BRANCH  18  21
ATOM     21  C   UNL     1      -9.347   7.516  -2.445  0.00  0.00    +0.000 A 
ATOM     22  C   UNL     1      -9.972   8.526  -3.163  0.00  0.00    +0.000 A 
ATOM     23  S   UNL     1     -11.002   7.947  -4.394  0.00  0.00    +0.000 S 
ATOM     24  C   UNL     1     -10.694   6.328  -3.970  0.00  0.00    +0.000 A 
ATOM     25  N   UNL     1     -11.276   5.301  -4.646  0.00  0.00    +0.000 NA
ATOM     26  C   UNL     1     -10.973   4.127  -4.199  0.00  0.00    +0.000 A 
ATOM     27  N   UNL     1     -10.148   3.887  -3.131  0.00  0.00    +0.000 N 
ATOM     28  C   UNL     1      -9.533   4.891  -2.425  0.00  0.00    +0.000 A 
ATOM     29  O   UNL     1      -8.794   4.642  -1.478  0.00  0.00    +0.000 OA
ATOM     30  C   UNL     1      -9.823   6.231  -2.901  0.00  0.00    +0.000 A 
ATOM     31  H   UNL     1      -9.957   2.945  -2.824  0.00  0.00    +0.000 HD
ENDBRANCH  18  21
ENDBRANCH   1  17
TORSDOF 6
