REMARK  Name = 
REMARK  9 active torsions:
REMARK  status: ('A' for Active; 'I' for Inactive)
REMARK    1  A    between atoms: C_1  and  O_2
REMARK    2  A    between atoms: O_2  and  C_3
REMARK    3  A    between atoms: C_10  and  C_11
REMARK    4  A    between atoms: N_13  and  C_14
REMARK    5  A    between atoms: C_14  and  C_15
REMARK    6  A    between atoms: C_18  and  N_19
REMARK    7  A    between atoms: N_19  and  C_20
REMARK    8  A    between atoms: N_19  and  C_21
REMARK    9  A    between atoms: C_21  and  C_22
REMARK                            x       y       z     vdW  Elec       q    Type
REMARK                         _______ _______ _______ _____ _____    ______ ____
ROOT
ATOM      1  C   UNL     1       2.765   0.393   3.247  0.00  0.00    +0.000 C 
ENDROOT
BRANCH   1   2
ATOM      2  C   UNL     1       1.736   1.459   2.968  0.00  0.00    +0.000 A 
ATOM      3  C   UNL     1       0.391   1.136   2.763  0.00  0.00    +0.000 A 
ATOM      4  C   UNL     1      -0.562   2.143   2.536  0.00  0.00    +0.000 A 
ATOM      5  C   UNL     1      -0.212   3.503   2.505  0.00  0.00    +0.000 A 
ATOM      6  C   UNL     1       1.152   3.801   2.654  0.00  0.00    +0.000 A 
ATOM      7  C   UNL     1       2.111   2.801   2.876  0.00  0.00    +0.000 A 
BRANCH   5   8
ATOM      8  N   UNL     1      -1.212   4.485   2.412  0.00  0.00    +0.000 N 
ATOM      9  C   UNL     1      -0.875   5.839   2.854  0.00  0.00    +0.000 C 
BRANCH   8  10
ATOM     10  C   UNL     1      -2.096   4.417   1.232  0.00  0.00    +0.000 C 
BRANCH  10  11
ATOM     11  C   UNL     1      -3.573   4.588   1.555  0.00  0.00    +0.000 A 
ATOM     12  C   UNL     1      -4.430   5.142   0.585  0.00  0.00    +0.000 A 
ATOM     13  C   UNL     1      -5.813   5.194   0.788  0.00  0.00    +0.000 A 
ATOM     14  C   UNL     1      -6.364   4.689   1.961  0.00  0.00    +0.000 A 
ATOM     15  C   UNL     1      -5.529   4.148   2.939  0.00  0.00    +0.000 A 
ATOM     16  C   UNL     1      -4.145   4.096   2.737  0.00  0.00    +0.000 A 
ENDBRANCH  10  11
ENDBRANCH   8  10
ENDBRANCH   5   8
ENDBRANCH   1   2
BRANCH   1  19
ATOM     17  C   UNL     1       4.304  -1.077   2.014  0.00  0.00    +0.000 C 
ATOM     18  O   UNL     1       4.690  -1.605   3.056  0.00  0.00    +0.000 OA
ATOM     19  N   UNL     1       3.366  -0.083   2.026  0.00  0.00    +0.000 N 
ATOM     20  H   UNL     1       3.101   0.380   1.168  0.00  0.00    +0.000 HD
BRANCH  17  28
ATOM     21  C   UNL     1       3.564  -0.179  -1.231  0.00  0.00    +0.000 A 
ATOM     22  N   UNL     1       3.474  -0.028  -2.568  0.00  0.00    +0.000 NA
ATOM     23  C   UNL     1       4.275  -0.767  -3.339  0.00  0.00    +0.000 A 
ATOM     24  N   UNL     1       5.178  -1.656  -2.935  0.00  0.00    +0.000 NA
ATOM     25  C   UNL     1       5.242  -1.770  -1.598  0.00  0.00    +0.000 A 
ATOM     26  S   UNL     1       6.339  -2.865  -0.905  0.00  0.00    +0.000 S 
ATOM     27  C   UNL     1       5.835  -2.453   0.664  0.00  0.00    +0.000 A 
ATOM     28  C   UNL     1       4.833  -1.489   0.700  0.00  0.00    +0.000 A 
ATOM     29  C   UNL     1       4.482  -1.078  -0.659  0.00  0.00    +0.000 A 
BRANCH  21  31
ATOM     30  C   UNL     1       1.580   1.053  -1.098  0.00  0.00    +0.000 C 
ATOM     31  O   UNL     1       2.764   0.614  -0.436  0.00  0.00    +0.000 OA
ENDBRANCH  21  31
ENDBRANCH  17  28
ENDBRANCH   1  19
TORSDOF 7
