REMARK  Name = 
REMARK  7 active torsions:
REMARK  status: ('A' for Active; 'I' for Inactive)
REMARK    1  A    between atoms: N_1  and  C_2
REMARK    2  A    between atoms: C_2  and  C_3
REMARK    3  A    between atoms: C_6  and  O_7
REMARK    4  A    between atoms: O_7  and  C_8
REMARK    5  A    between atoms: C_8  and  C_9
REMARK    6  A    between atoms: C_9  and  C_10
REMARK    7  A    between atoms: C_13  and  C_14
REMARK                            x       y       z     vdW  Elec       q    Type
REMARK                         _______ _______ _______ _____ _____    ______ ____
ROOT
ATOM      1  C   UNL     1       3.914   6.360  -4.440  0.00  0.00    +0.000 C 
ENDROOT
BRANCH   1   2
ATOM      2  C   UNL     1       5.357   6.784  -4.364  0.00  0.00    +0.000 A 
ATOM      3  C   UNL     1       6.342   6.074  -5.054  0.00  0.00    +0.000 A 
ATOM      4  C   UNL     1       7.678   6.478  -4.988  0.00  0.00    +0.000 A 
ATOM      5  C   UNL     1       8.055   7.595  -4.224  0.00  0.00    +0.000 A 
ATOM      6  C   UNL     1       7.073   8.295  -3.517  0.00  0.00    +0.000 A 
ATOM      7  C   UNL     1       5.744   7.881  -3.591  0.00  0.00    +0.000 A 
ATOM      8  F   UNL     1       4.820   8.565  -2.898  0.00  0.00    +0.000 F 
BRANCH   5   9
ATOM      9  C   UNL     1       9.496   7.973  -4.219  0.00  0.00    +0.000 C 
ATOM     10  N   UNL     1       9.887   9.061  -3.493  0.00  0.00    +0.000 N 
ATOM     11  O   UNL     1      10.327   7.332  -4.852  0.00  0.00    +0.000 OA
ATOM     12  H   UNL     1       9.283   9.654  -2.947  0.00  0.00    +0.000 HD
ATOM     13  H   UNL     1      10.873   9.289  -3.519  0.00  0.00    +0.000 HD
ENDBRANCH   5   9
ENDBRANCH   1   2
BRANCH   1  14
ATOM     14  C   UNL     1       3.496   5.447  -3.288  0.00  0.00    +0.000 C 
BRANCH  14  15
ATOM     15  O   UNL     1       4.186   4.195  -3.369  0.00  0.00    +0.000 OA
BRANCH  15  19
ATOM     16  C   UNL     1       3.335   1.209  -0.560  0.00  0.00    +0.000 A 
ATOM     17  C   UNL     1       2.657   2.431  -0.486  0.00  0.00    +0.000 A 
ATOM     18  C   UNL     1       2.920   3.454  -1.399  0.00  0.00    +0.000 A 
ATOM     19  C   UNL     1       3.869   3.275  -2.403  0.00  0.00    +0.000 A 
ATOM     20  C   UNL     1       4.567   2.066  -2.471  0.00  0.00    +0.000 A 
ATOM     21  C   UNL     1       4.304   1.038  -1.556  0.00  0.00    +0.000 A 
BRANCH  16  22
ATOM     22  C   UNL     1       3.019   0.115   0.428  0.00  0.00    +0.000 C 
BRANCH  22  23
ATOM     23  N   UNL     1       1.611  -0.265   0.364  0.00  0.00    +0.000 NA
ATOM     24  H   UNL     1       1.443  -1.046   0.994  0.00  0.00    +0.000 HD
ATOM     25  H   UNL     1       1.406  -0.598  -0.577  0.00  0.00    +0.000 HD
ENDBRANCH  22  23
ENDBRANCH  16  22
ENDBRANCH  15  19
ENDBRANCH  14  15
ENDBRANCH   1  14
TORSDOF 7
