REMARK  Name = 
REMARK  7 active torsions:
REMARK  status: ('A' for Active; 'I' for Inactive)
REMARK    1  A    between atoms: C_1  and  C_2
REMARK    2  A    between atoms: C_3  and  C_4
REMARK    3  A    between atoms: C_4  and  O_5
REMARK    4  A    between atoms: O_5  and  C_6
REMARK    5  A    between atoms: C_8  and  C_9
REMARK    6  A    between atoms: C_18  and  C_19
REMARK    7  A    between atoms: C_18  and  C_20
REMARK                            x       y       z     vdW  Elec       q    Type
REMARK                         _______ _______ _______ _____ _____    ______ ____
ROOT
ATOM      1  C   UNL     1       0.989   0.136  -0.360  0.00  0.00    +0.000 C 
ATOM      2  C   UNL     1       2.473   0.069  -0.038  0.00  0.00    +0.000 C 
ATOM      3  C   UNL     1       3.003  -1.220   0.601  0.00  0.00    +0.000 C 
ATOM      4  C   UNL     1       4.285  -0.745   1.297  0.00  0.00    +0.000 C 
ATOM      5  O   UNL     1       4.398   0.682   1.088  0.00  0.00    +0.000 OA
ATOM      6  C   UNL     1       3.064   1.198   0.841  0.00  0.00    +0.000 C 
ATOM      7  C   UNL     1       2.438   1.387   2.240  0.00  0.00    +0.000 C 
ENDROOT
BRANCH   6   8
ATOM      8  C   UNL     1       3.118   2.540   0.092  0.00  0.00    +0.000 A 
ATOM      9  C   UNL     1       4.163   2.841  -0.798  0.00  0.00    +0.000 A 
ATOM     10  C   UNL     1       4.194   4.060  -1.493  0.00  0.00    +0.000 A 
ATOM     11  C   UNL     1       3.192   5.002  -1.298  0.00  0.00    +0.000 A 
ATOM     12 CL   UNL     1       3.229   6.501  -2.142  0.00  0.00    +0.000 Cl
ATOM     13  C   UNL     1       2.149   4.737  -0.419  0.00  0.00    +0.000 A 
ATOM     14  C   UNL     1       2.109   3.514   0.257  0.00  0.00    +0.000 A 
ENDBRANCH   6   8
BRANCH   3  15
ATOM     15  C   UNL     1       2.063  -1.990   1.543  0.00  0.00    +0.000 C 
BRANCH  15  16
ATOM     16  O   UNL     1       2.779  -3.144   1.999  0.00  0.00    +0.000 OA
BRANCH  16  17
ATOM     17  C   UNL     1       2.142  -4.044   2.810  0.00  0.00    +0.000 A 
ATOM     18  C   UNL     1       2.955  -5.112   3.223  0.00  0.00    +0.000 A 
ATOM     19  C   UNL     1       2.442  -6.156   4.007  0.00  0.00    +0.000 A 
ATOM     20  C   UNL     1       1.085  -6.116   4.378  0.00  0.00    +0.000 A 
ATOM     21  C   UNL     1       0.275  -5.053   3.977  0.00  0.00    +0.000 A 
ATOM     22  C   UNL     1       0.803  -4.022   3.203  0.00  0.00    +0.000 A 
ATOM     23  F   UNL     1      -0.023  -3.041   2.815  0.00  0.00    +0.000 F 
BRANCH  19  24
ATOM     24  C   UNL     1       3.251  -7.333   4.447  0.00  0.00    +0.000 C 
ATOM     25  N   UNL     1       4.564  -7.401   4.077  0.00  0.00    +0.000 N 
ATOM     26  O   UNL     1       2.757  -8.227   5.120  0.00  0.00    +0.000 OA
ATOM     27  H   UNL     1       5.060  -6.724   3.523  0.00  0.00    +0.000 HD
ATOM     28  H   UNL     1       5.083  -8.217   4.391  0.00  0.00    +0.000 HD
ENDBRANCH  19  24
ENDBRANCH  16  17
ENDBRANCH  15  16
ENDBRANCH   3  15
TORSDOF 5
