REMARK  Name = 
REMARK  7 active torsions:
REMARK  status: ('A' for Active; 'I' for Inactive)
REMARK    1  A    between atoms: C_2  and  C_3
REMARK    2  A    between atoms: C_3  and  N_4
REMARK    3  A    between atoms: C_3  and  C_17
REMARK    4  A    between atoms: C_5  and  C_7
REMARK    5  A    between atoms: C_20  and  C_21
REMARK    6  A    between atoms: C_21  and  N_22
REMARK    7  A    between atoms: C_23  and  C_25
REMARK                            x       y       z     vdW  Elec       q    Type
REMARK                         _______ _______ _______ _____ _____    ______ ____
ROOT
ATOM      1  C   UNL     1       3.701   0.099  -0.059  0.00  0.00    +0.000 C 
ENDROOT
BRANCH   1   2
ATOM      2  C   UNL     1       4.015  -0.767   1.159  0.00  0.00    +0.000 A 
ATOM      3  C   UNL     1       4.370  -0.153   2.373  0.00  0.00    +0.000 A 
ATOM      4  C   UNL     1       4.667  -0.918   3.508  0.00  0.00    +0.000 A 
ATOM      5  C   UNL     1       4.635  -2.316   3.453  0.00  0.00    +0.000 A 
ATOM      6  C   UNL     1       4.297  -2.933   2.243  0.00  0.00    +0.000 A 
ATOM      7  C   UNL     1       4.008  -2.170   1.106  0.00  0.00    +0.000 A 
BRANCH   5   8
ATOM      8  C   UNL     1       4.958  -3.148   4.667  0.00  0.00    +0.000 C 
BRANCH   8   9
ATOM      9  N   UNL     1       3.798  -3.435   5.465  0.00  0.00    +0.000 N 
ATOM     10  C   UNL     1       3.873  -4.266   6.561  0.00  0.00    +0.000 C 
ATOM     11  O   UNL     1       4.910  -4.819   6.916  0.00  0.00    +0.000 OA
ATOM     12  H   UNL     1       2.899  -2.997   5.284  0.00  0.00    +0.000 HD
BRANCH  10  13
ATOM     13  C   UNL     1       2.596  -4.436   7.273  0.00  0.00    +0.000 A 
ATOM     14  C   UNL     1       2.371  -5.209   8.444  0.00  0.00    +0.000 A 
ATOM     15  C   UNL     1       1.034  -5.069   8.726  0.00  0.00    +0.000 A 
ATOM     16  N   UNL     1       0.533  -4.258   7.753  0.00  0.00    +0.000 N 
ATOM     17  N   UNL     1       1.454  -3.845   6.862  0.00  0.00    +0.000 NA
ATOM     18  H   UNL     1      -0.425  -3.945   7.633  0.00  0.00    +0.000 HD
ENDBRANCH  10  13
ENDBRANCH   8   9
ENDBRANCH   5   8
ENDBRANCH   1   2
BRANCH   1  19
ATOM     19  N   UNL     1       4.940   0.409  -0.753  0.00  0.00    +0.000 N 
ATOM     20  C   UNL     1       5.067   1.555  -1.494  0.00  0.00    +0.000 C 
ATOM     21  O   UNL     1       4.193   2.417  -1.505  0.00  0.00    +0.000 OA
ATOM     22  H   UNL     1       5.570  -0.367  -0.926  0.00  0.00    +0.000 HD
BRANCH  20  23
ATOM     23  C   UNL     1       6.329   1.732  -2.216  0.00  0.00    +0.000 A 
ATOM     24  C   UNL     1       6.790   3.010  -2.502  0.00  0.00    +0.000 A 
ATOM     25  S   UNL     1       8.283   3.029  -3.326  0.00  0.00    +0.000 S 
ATOM     26  C   UNL     1       8.337   1.329  -3.381  0.00  0.00    +0.000 A 
ATOM     27  N   UNL     1       9.358   0.679  -4.000  0.00  0.00    +0.000 NA
ATOM     28  C   UNL     1       9.243  -0.607  -4.011  0.00  0.00    +0.000 A 
ATOM     29  N   UNL     1       8.207  -1.304  -3.442  0.00  0.00    +0.000 N 
ATOM     30  C   UNL     1       7.193  -0.694  -2.744  0.00  0.00    +0.000 A 
ATOM     31  O   UNL     1       6.341  -1.341  -2.143  0.00  0.00    +0.000 OA
ATOM     32  C   UNL     1       7.249   0.755  -2.748  0.00  0.00    +0.000 A 
ATOM     33  H   UNL     1       8.194  -2.314  -3.463  0.00  0.00    +0.000 HD
ENDBRANCH  20  23
ENDBRANCH   1  19
BRANCH   1  35
ATOM     34  N   UNL     1       1.942  -1.013  -1.699  0.00  0.00    +0.000 NA
ATOM     35  C   UNL     1       2.707  -0.510  -0.978  0.00  0.00    +0.000 C 
ENDBRANCH   1  35
TORSDOF 7
