REMARK  Name = 
REMARK  8 active torsions:
REMARK  status: ('A' for Active; 'I' for Inactive)
REMARK    1  A    between atoms: C_1  and  N_2
REMARK    2  A    between atoms: N_2  and  C_3
REMARK    3  A    between atoms: N_2  and  C_24
REMARK    4  A    between atoms: C_3  and  C_4
REMARK    5  A    between atoms: C_7  and  C_8
REMARK    6  A    between atoms: C_8  and  N_9
REMARK    7  A    between atoms: C_10  and  C_12
REMARK    8  A    between atoms: C_24  and  C_25
REMARK                            x       y       z     vdW  Elec       q    Type
REMARK                         _______ _______ _______ _____ _____    ______ ____
ROOT
ATOM      1  C   UNL     1       2.421  -2.082   1.168  0.00  0.00    +0.000 A 
ATOM      2  C   UNL     1       2.422  -3.478   1.053  0.00  0.00    +0.000 A 
ATOM      3  C   UNL     1       2.169  -4.286   2.168  0.00  0.00    +0.000 A 
ATOM      4  C   UNL     1       1.881  -3.713   3.415  0.00  0.00    +0.000 A 
ATOM      5  C   UNL     1       1.869  -2.318   3.526  0.00  0.00    +0.000 A 
ATOM      6  C   UNL     1       2.134  -1.511   2.416  0.00  0.00    +0.000 A 
ENDROOT
BRANCH   1   7
ATOM      7  C   UNL     1       2.791  -1.198  -0.006  0.00  0.00    +0.000 C 
BRANCH   7   9
ATOM      8  C   UNL     1       2.293  -0.164  -2.095  0.00  0.00    +0.000 C 
ATOM      9  N   UNL     1       1.707  -0.919  -0.973  0.00  0.00    +0.000 NA
BRANCH   9  10
ATOM     10  C   UNL     1       0.624  -0.125  -0.338  0.00  0.00    +0.000 C 
BRANCH  10  11
ATOM     11  C   UNL     1      -0.518   0.266  -1.256  0.00  0.00    +0.000 A 
ATOM     12  C   UNL     1      -1.277  -0.701  -1.908  0.00  0.00    +0.000 A 
ATOM     13  N   UNL     1      -2.304  -0.397  -2.741  0.00  0.00    +0.000 NA
ATOM     14  C   UNL     1      -2.547   0.924  -2.899  0.00  0.00    +0.000 A 
ATOM     15  C   UNL     1      -1.804   1.895  -2.251  0.00  0.00    +0.000 A 
ATOM     16  N   UNL     1      -0.777   1.593  -1.423  0.00  0.00    +0.000 NA
ENDBRANCH  10  11
ENDBRANCH   9  10
ENDBRANCH   7   9
ENDBRANCH   1   7
BRANCH   4  17
ATOM     17  C   UNL     1       1.644  -4.569   4.632  0.00  0.00    +0.000 C 
BRANCH  17  18
ATOM     18  N   UNL     1       2.872  -4.805   5.350  0.00  0.00    +0.000 N 
ATOM     19  C   UNL     1       2.907  -5.626   6.447  0.00  0.00    +0.000 C 
ATOM     20  O   UNL     1       1.908  -6.218   6.848  0.00  0.00    +0.000 OA
ATOM     21  H   UNL     1       3.639  -4.161   5.180  0.00  0.00    +0.000 HD
BRANCH  19  22
ATOM     22  C   UNL     1       4.216  -5.814   7.089  0.00  0.00    +0.000 A 
ATOM     23  C   UNL     1       4.442  -6.945   7.863  0.00  0.00    +0.000 A 
ATOM     24  S   UNL     1       6.027  -7.044   8.484  0.00  0.00    +0.000 S 
ATOM     25  C   UNL     1       6.453  -5.552   7.786  0.00  0.00    +0.000 A 
ATOM     26  N   UNL     1       7.697  -5.031   7.957  0.00  0.00    +0.000 NA
ATOM     27  C   UNL     1       7.874  -3.880   7.399  0.00  0.00    +0.000 A 
ATOM     28  N   UNL     1       6.921  -3.204   6.683  0.00  0.00    +0.000 N 
ATOM     29  C   UNL     1       5.659  -3.704   6.461  0.00  0.00    +0.000 A 
ATOM     30  O   UNL     1       4.841  -3.090   5.784  0.00  0.00    +0.000 OA
ATOM     31  C   UNL     1       5.405  -4.994   7.075  0.00  0.00    +0.000 A 
ATOM     32  H   UNL     1       7.124  -2.308   6.267  0.00  0.00    +0.000 HD
ENDBRANCH  19  22
ENDBRANCH  17  18
ENDBRANCH   4  17
TORSDOF 7
