REMARK  Name = 
REMARK  7 active torsions:
REMARK  status: ('A' for Active; 'I' for Inactive)
REMARK    1  A    between atoms: N_1  and  C_2
REMARK    2  A    between atoms: C_2  and  C_3
REMARK    3  A    between atoms: C_6  and  O_7
REMARK    4  A    between atoms: O_7  and  C_8
REMARK    5  A    between atoms: C_8  and  C_9
REMARK    6  A    between atoms: CA_12  and  C_13
REMARK    7  A    between atoms: C_13  and  OXT_15
REMARK                            x       y       z     vdW  Elec       q    Type
REMARK                         _______ _______ _______ _____ _____    ______ ____
ROOT
ATOM      1  O   UNL     1       3.691   3.396   4.470  0.00  0.00    +0.000 OA
ENDROOT
BRANCH   1   5
ATOM      2  C   UNL     1       2.921   0.910   1.194  0.00  0.00    +0.000 A 
ATOM      3  C   UNL     1       2.875   2.299   1.017  0.00  0.00    +0.000 A 
ATOM      4  C   UNL     1       3.135   3.169   2.081  0.00  0.00    +0.000 A 
ATOM      5  C   UNL     1       3.447   2.660   3.342  0.00  0.00    +0.000 A 
ATOM      6  C   UNL     1       3.521   1.276   3.517  0.00  0.00    +0.000 A 
ATOM      7  C   UNL     1       3.262   0.406   2.454  0.00  0.00    +0.000 A 
BRANCH   2   8
ATOM      8  C   UNL     1       2.560  -0.017   0.061  0.00  0.00    +0.000 C 
BRANCH   8   9
ATOM      9  N   UNL     1       3.404   0.204  -1.106  0.00  0.00    +0.000 NA
ATOM     10  H   UNL     1       3.208  -0.516  -1.799  0.00  0.00    +0.000 HD
ATOM     11  H   UNL     1       4.378   0.085  -0.833  0.00  0.00    +0.000 HD
ENDBRANCH   8   9
ENDBRANCH   2   8
ENDBRANCH   1   5
BRANCH   1  12
ATOM     12  C   UNL     1       3.585   4.815   4.338  0.00  0.00    +0.000 C 
BRANCH  12  13
ATOM     13  C   UNL     1       3.827   5.505   5.659  0.00  0.00    +0.000 A 
ATOM     14  C   UNL     1       4.678   4.972   6.628  0.00  0.00    +0.000 A 
ATOM     15  N   UNL     1       4.928   5.580   7.818  0.00  0.00    +0.000 NA
ATOM     16  CA  UNL     1       4.280   6.771   7.990  0.00  0.00    +0.000 A 
ATOM     17  C   UNL     1       3.452   7.325   7.033  0.00  0.00    +0.000 A 
ATOM     18  N   UNL     1       3.215   6.708   5.849  0.00  0.00    +0.000 NA
BRANCH  16  19
ATOM     19  C   UNL     1       4.496   7.466   9.280  0.00  0.00    +0.000 C 
ATOM     20  O   UNL     1       3.997   8.532   9.586  0.00  0.00    +0.000 OA
BRANCH  19  21
ATOM     21  OXT UNL     1       5.324   6.747  10.078  0.00  0.00    +0.000 OA
ATOM     22  HXT UNL     1       5.591   5.920   9.609  0.00  0.00    +0.000 HD
ENDBRANCH  19  21
ENDBRANCH  16  19
ENDBRANCH  12  13
ENDBRANCH   1  12
TORSDOF 7
