REMARK  Name = 
REMARK  6 active torsions:
REMARK  status: ('A' for Active; 'I' for Inactive)
REMARK    1  A    between atoms: C_1  and  O_2
REMARK    2  A    between atoms: O_2  and  C_3
REMARK    3  A    between atoms: N_9  and  C_10
REMARK    4  A    between atoms: C_10  and  C_11
REMARK    5  A    between atoms: C_14  and  C_15
REMARK    6  A    between atoms: C_15  and  N_16
REMARK                            x       y       z     vdW  Elec       q    Type
REMARK                         _______ _______ _______ _____ _____    ______ ____
ROOT
ATOM      1  C   UNL     1       3.109  -0.499  -1.201  0.00  0.00    +0.000 A 
ATOM      2  C   UNL     1       2.649  -0.367  -2.509  0.00  0.00    +0.000 A 
ATOM      3  C   UNL     1       3.355  -0.940  -3.571  0.00  0.00    +0.000 A 
ATOM      4  C   UNL     1       4.534  -1.668  -3.323  0.00  0.00    +0.000 A 
ATOM      5  C   UNL     1       5.455  -2.345  -4.163  0.00  0.00    +0.000 A 
ATOM      6  C   UNL     1       6.412  -2.915  -3.357  0.00  0.00    +0.000 A 
ATOM      7  N   UNL     1       6.105  -2.616  -2.049  0.00  0.00    +0.000 N 
ATOM      8  C   UNL     1       4.974  -1.819  -2.003  0.00  0.00    +0.000 A 
ATOM      9  C   UNL     1       4.283  -1.223  -0.933  0.00  0.00    +0.000 A 
ENDROOT
BRANCH   1  11
ATOM     10  C   UNL     1       1.271   0.714  -0.298  0.00  0.00    +0.000 C 
ATOM     11  O   UNL     1       2.501   0.027  -0.089  0.00  0.00    +0.000 OA
ENDBRANCH   1  11
BRANCH   7  12
ATOM     12  C   UNL     1       6.814  -3.189  -0.904  0.00  0.00    +0.000 C 
BRANCH  12  13
ATOM     13  C   UNL     1       8.027  -2.379  -0.524  0.00  0.00    +0.000 A 
ATOM     14  C   UNL     1       7.947  -1.417   0.489  0.00  0.00    +0.000 A 
ATOM     15  C   UNL     1       9.032  -0.580   0.762  0.00  0.00    +0.000 A 
ATOM     16  C   UNL     1      10.225  -0.687   0.032  0.00  0.00    +0.000 A 
ATOM     17  C   UNL     1      10.323  -1.690  -0.941  0.00  0.00    +0.000 A 
ATOM     18  C   UNL     1       9.240  -2.533  -1.210  0.00  0.00    +0.000 A 
BRANCH  16  19
ATOM     19  C   UNL     1      11.294   0.364   0.208  0.00  0.00    +0.000 C 
BRANCH  19  20
ATOM     20  N   UNL     1      12.650  -0.131  -0.003  0.00  0.00    +0.000 NA
ATOM     21  H   UNL     1      12.855  -0.829   0.712  0.00  0.00    +0.000 HD
ATOM     22  H   UNL     1      13.305   0.634   0.142  0.00  0.00    +0.000 HD
ENDBRANCH  19  20
ENDBRANCH  16  19
ENDBRANCH  12  13
ENDBRANCH   7  12
TORSDOF 5
