REMARK  Name = 
REMARK  6 active torsions:
REMARK  status: ('A' for Active; 'I' for Inactive)
REMARK    1  A    between atoms: C_2  and  C_4
REMARK    2  A    between atoms: C_7  and  N_8
REMARK    3  A    between atoms: N_8  and  C_9
REMARK    4  A    between atoms: C_9  and  C_10
REMARK    5  A    between atoms: C_10  and  C_13
REMARK    6  A    between atoms: C_17  and  C_18
REMARK                            x       y       z     vdW  Elec       q    Type
REMARK                         _______ _______ _______ _____ _____    ______ ____
ROOT
ATOM      1  C   UNL     1       5.346  -7.007   2.000  0.00  0.00    +0.000 C 
ATOM      2  F   UNL     1       6.653  -6.772   1.655  0.00  0.00    +0.000 F 
ATOM      3  F   UNL     1       5.324  -6.916   3.365  0.00  0.00    +0.000 F 
ENDROOT
BRANCH   1   4
ATOM      4  C   UNL     1       4.869  -8.367   1.526  0.00  0.00    +0.000 A 
ATOM      5  C   UNL     1       3.948  -9.093   2.291  0.00  0.00    +0.000 A 
ATOM      6  C   UNL     1       3.489 -10.330   1.856  0.00  0.00    +0.000 A 
ATOM      7  C   UNL     1       3.928 -10.845   0.635  0.00  0.00    +0.000 A 
ATOM      8  C   UNL     1       4.829 -10.141  -0.182  0.00  0.00    +0.000 A 
ATOM      9  C   UNL     1       5.312  -8.908   0.305  0.00  0.00    +0.000 A 
BRANCH   8  10
ATOM     10  C   UNL     1       5.222 -10.658  -1.516  0.00  0.00    +0.000 A 
ATOM     11  C   UNL     1       6.505 -10.412  -2.047  0.00  0.00    +0.000 A 
ATOM     12  C   UNL     1       6.881 -10.884  -3.311  0.00  0.00    +0.000 A 
ATOM     13  C   UNL     1       5.986 -11.630  -4.071  0.00  0.00    +0.000 A 
ATOM     14  C   UNL     1       4.717 -11.881  -3.571  0.00  0.00    +0.000 A 
ATOM     15  F   UNL     1       3.853 -12.596  -4.305  0.00  0.00    +0.000 F 
ATOM     16  C   UNL     1       4.336 -11.396  -2.324  0.00  0.00    +0.000 A 
ATOM     17  F   UNL     1       3.077 -11.639  -1.915  0.00  0.00    +0.000 F 
ENDBRANCH   8  10
ENDBRANCH   1   4
BRANCH   1  18
ATOM     18  C   UNL     1       4.491  -5.852   1.411  0.00  0.00    +0.000 C 
BRANCH  18  19
ATOM     19  N   UNL     1       4.870  -4.539   1.984  0.00  0.00    +0.000 N 
ATOM     20  H   UNL     1       5.872  -4.372   1.944  0.00  0.00    +0.000 HD
BRANCH  19  24
ATOM     21  C   UNL     1       2.686  -1.248   0.844  0.00  0.00    +0.000 A 
ATOM     22  C   UNL     1       2.452  -2.492   0.274  0.00  0.00    +0.000 A 
ATOM     23  N   UNL     1       3.169  -3.601   0.603  0.00  0.00    +0.000 NA
ATOM     24  C   UNL     1       4.143  -3.438   1.526  0.00  0.00    +0.000 A 
ATOM     25  C   UNL     1       4.369  -2.170   2.082  0.00  0.00    +0.000 A 
ATOM     26  N   UNL     1       3.670  -1.046   1.759  0.00  0.00    +0.000 NA
BRANCH  21  28
ATOM     27  N   UNL     1       2.135   1.108   1.046  0.00  0.00    +0.000 N 
ATOM     28  C   UNL     1       1.824  -0.095   0.469  0.00  0.00    +0.000 C 
ATOM     29  O   UNL     1       0.886  -0.206  -0.312  0.00  0.00    +0.000 OA
ATOM     30  H   UNL     1       1.597   1.926   0.799  0.00  0.00    +0.000 HD
ATOM     31  H   UNL     1       2.958   1.195   1.631  0.00  0.00    +0.000 HD
ENDBRANCH  21  28
ENDBRANCH  19  24
ENDBRANCH  18  19
ENDBRANCH   1  18
TORSDOF 6
