REMARK  Name = 
REMARK  6 active torsions:
REMARK  status: ('A' for Active; 'I' for Inactive)
REMARK    1  A    between atoms: C_1  and  C_2
REMARK    2  A    between atoms: N_9  and  C_10
REMARK    3  A    between atoms: C_10  and  C_11
REMARK    4  A    between atoms: C_14  and  C_15
REMARK    5  A    between atoms: C_15  and  N_16
REMARK    6  A    between atoms: C_17  and  C_19
REMARK                            x       y       z     vdW  Elec       q    Type
REMARK                         _______ _______ _______ _____ _____    ______ ____
ROOT
ATOM      1  C   UNL     1      -0.649  -4.247  -0.015  0.00  0.00    +0.000 A 
ATOM      2  C   UNL     1      -1.292  -5.489   0.043  0.00  0.00    +0.000 A 
ATOM      3  C   UNL     1      -2.688  -5.568   0.104  0.00  0.00    +0.000 A 
ATOM      4  C   UNL     1      -3.473  -4.407   0.088  0.00  0.00    +0.000 A 
ATOM      5  C   UNL     1      -2.829  -3.164   0.061  0.00  0.00    +0.000 A 
ATOM      6  C   UNL     1      -1.433  -3.084   0.003  0.00  0.00    +0.000 A 
ENDROOT
BRANCH   1   7
ATOM      7  C   UNL     1       0.854  -4.165  -0.082  0.00  0.00    +0.000 C 
BRANCH   7  16
ATOM      8  C   UNL     1       2.057  -6.262  -3.821  0.00  0.00    +0.000 C 
ATOM      9  C   UNL     1       2.790  -4.980  -4.010  0.00  0.00    +0.000 A 
ATOM     10  C   UNL     1       3.408  -4.517  -5.159  0.00  0.00    +0.000 A 
ATOM     11  C   UNL     1       4.105  -3.335  -4.837  0.00  0.00    +0.000 A 
ATOM     12  C   UNL     1       3.927  -3.120  -3.494  0.00  0.00    +0.000 A 
ATOM     13  N   UNL     1       3.090  -4.096  -2.972  0.00  0.00    +0.000 N 
ATOM     14  C   UNL     1       2.724  -4.154  -1.609  0.00  0.00    +0.000 C 
ATOM     15  O   UNL     1       3.559  -3.913  -0.748  0.00  0.00    +0.000 OA
ATOM     16  N   UNL     1       1.371  -4.336  -1.423  0.00  0.00    +0.000 N 
ATOM     17  H   UNL     1       0.754  -4.134  -2.202  0.00  0.00    +0.000 HD
ENDBRANCH   7  16
ENDBRANCH   1   7
BRANCH   4  18
ATOM     18  C   UNL     1      -4.978  -4.494   0.118  0.00  0.00    +0.000 C 
BRANCH  18  19
ATOM     19  N   UNL     1      -5.494  -4.393   1.461  0.00  0.00    +0.000 N 
ATOM     20  C   UNL     1      -6.848  -4.390   1.697  0.00  0.00    +0.000 C 
ATOM     21  O   UNL     1      -7.666  -4.318   0.785  0.00  0.00    +0.000 OA
ATOM     22  H   UNL     1      -4.859  -4.632   2.214  0.00  0.00    +0.000 HD
BRANCH  20  23
ATOM     23  C   UNL     1      -7.272  -4.460   3.099  0.00  0.00    +0.000 A 
ATOM     24  C   UNL     1      -8.505  -3.946   3.480  0.00  0.00    +0.000 A 
ATOM     25  S   UNL     1      -8.861  -4.178   5.131  0.00  0.00    +0.000 S 
ATOM     26  C   UNL     1      -7.413  -5.035   5.381  0.00  0.00    +0.000 A 
ATOM     27  N   UNL     1      -7.137  -5.613   6.580  0.00  0.00    +0.000 NA
ATOM     28  C   UNL     1      -6.019  -6.258   6.619  0.00  0.00    +0.000 A 
ATOM     29  N   UNL     1      -5.133  -6.346   5.573  0.00  0.00    +0.000 N 
ATOM     30  C   UNL     1      -5.347  -5.730   4.364  0.00  0.00    +0.000 A 
ATOM     31  O   UNL     1      -4.486  -5.740   3.484  0.00  0.00    +0.000 OA
ATOM     32  C   UNL     1      -6.624  -5.062   4.242  0.00  0.00    +0.000 A 
ATOM     33  H   UNL     1      -4.253  -6.828   5.684  0.00  0.00    +0.000 HD
ENDBRANCH  20  23
ENDBRANCH  18  19
ENDBRANCH   4  18
TORSDOF 5
