REMARK  Name = 
REMARK  9 active torsions:
REMARK  status: ('A' for Active; 'I' for Inactive)
REMARK    1  A    between atoms: C_1  and  O_2
REMARK    2  A    between atoms: O_2  and  C_3
REMARK    3  A    between atoms: C_8  and  C_9
REMARK    4  A    between atoms: C_9  and  N_10
REMARK    5  A    between atoms: N_10  and  C_11
REMARK    6  A    between atoms: C_11  and  C_12
REMARK    7  A    between atoms: C_15  and  C_16
REMARK    8  A    between atoms: C_16  and  N_17
REMARK    9  A    between atoms: C_18  and  C_20
REMARK                            x       y       z     vdW  Elec       q    Type
REMARK                         _______ _______ _______ _____ _____    ______ ____
ROOT
ATOM      1  C   UNL     1       2.857   3.717  -1.967  0.00  0.00    +0.000 A 
ATOM      2  C   UNL     1       2.185   2.641  -2.546  0.00  0.00    +0.000 A 
ATOM      3  C   UNL     1       1.235   2.888  -3.535  0.00  0.00    +0.000 A 
ATOM      4  C   UNL     1       0.974   4.200  -3.933  0.00  0.00    +0.000 A 
ATOM      5  C   UNL     1       1.661   5.212  -3.270  0.00  0.00    +0.000 A 
ATOM      6  N   UNL     1       2.593   5.003  -2.310  0.00  0.00    +0.000 NA
ENDROOT
BRANCH   1   7
ATOM      7  C   UNL     1       3.955   3.475  -0.945  0.00  0.00    +0.000 C 
BRANCH   7   8
ATOM      8  N   UNL     1       5.049   2.611  -1.423  0.00  0.00    +0.000 NA
ATOM      9  H   UNL     1       5.700   2.458  -0.652  0.00  0.00    +0.000 HD
BRANCH   8  10
ATOM     10  C   UNL     1       5.809   3.269  -2.492  0.00  0.00    +0.000 C 
BRANCH  10  16
ATOM     11  C   UNL     1       8.222   2.425  -2.617  0.00  0.00    +0.000 A 
ATOM     12  C   UNL     1       9.185   1.620  -3.240  0.00  0.00    +0.000 A 
ATOM     13  C   UNL     1       8.827   0.745  -4.269  0.00  0.00    +0.000 A 
ATOM     14  C   UNL     1       7.500   0.648  -4.671  0.00  0.00    +0.000 A 
ATOM     15  C   UNL     1       6.534   1.447  -4.062  0.00  0.00    +0.000 A 
ATOM     16  C   UNL     1       6.885   2.361  -3.051  0.00  0.00    +0.000 A 
BRANCH  11  18
ATOM     17  C   UNL     1       9.846   3.630  -1.363  0.00  0.00    +0.000 C 
ATOM     18  O   UNL     1       8.485   3.270  -1.570  0.00  0.00    +0.000 OA
ENDBRANCH  11  18
ENDBRANCH  10  16
ENDBRANCH   8  10
ENDBRANCH   7   8
ENDBRANCH   1   7
BRANCH   4  19
ATOM     19  C   UNL     1      -0.036   4.520  -4.995  0.00  0.00    +0.000 C 
BRANCH  19  20
ATOM     20  N   UNL     1      -1.343   4.695  -4.420  0.00  0.00    +0.000 N 
ATOM     21  C   UNL     1      -2.454   4.921  -5.192  0.00  0.00    +0.000 C 
ATOM     22  O   UNL     1      -2.408   4.920  -6.418  0.00  0.00    +0.000 OA
ATOM     23  H   UNL     1      -1.378   4.925  -3.432  0.00  0.00    +0.000 HD
BRANCH  21  24
ATOM     24  C   UNL     1      -3.718   5.102  -4.465  0.00  0.00    +0.000 A 
ATOM     25  C   UNL     1      -4.925   4.852  -5.102  0.00  0.00    +0.000 A 
ATOM     26  S   UNL     1      -6.284   5.037  -4.086  0.00  0.00    +0.000 S 
ATOM     27  C   UNL     1      -5.310   5.516  -2.776  0.00  0.00    +0.000 A 
ATOM     28  N   UNL     1      -5.858   5.842  -1.575  0.00  0.00    +0.000 NA
ATOM     29  C   UNL     1      -5.004   6.215  -0.681  0.00  0.00    +0.000 A 
ATOM     30  N   UNL     1      -3.652   6.291  -0.877  0.00  0.00    +0.000 N 
ATOM     31  C   UNL     1      -3.051   5.947  -2.063  0.00  0.00    +0.000 A 
ATOM     32  O   UNL     1      -1.830   5.994  -2.197  0.00  0.00    +0.000 OA
ATOM     33  C   UNL     1      -3.966   5.521  -3.106  0.00  0.00    +0.000 A 
ATOM     34  H   UNL     1      -3.034   6.587  -0.136  0.00  0.00    +0.000 HD
ENDBRANCH  21  24
ENDBRANCH  19  20
ENDBRANCH   4  19
TORSDOF 8
