REMARK  Name = 
REMARK  6 active torsions:
REMARK  status: ('A' for Active; 'I' for Inactive)
REMARK    1  A    between atoms: C_2  and  C_3
REMARK    2  A    between atoms: N_7  and  C_8
REMARK    3  A    between atoms: C_8  and  C_9
REMARK    4  A    between atoms: C_9  and  C_12
REMARK    5  A    between atoms: C_16  and  O_17
REMARK    6  A    between atoms: O_17  and  C_18
REMARK                            x       y       z     vdW  Elec       q    Type
REMARK                         _______ _______ _______ _____ _____    ______ ____
ROOT
ATOM      1  C   UNL     1      -5.873   1.134  -0.354  0.00  0.00    +0.000 C 
ATOM      2  F   UNL     1      -4.788   1.218  -1.179  0.00  0.00    +0.000 F 
ATOM      3  F   UNL     1      -6.619   0.099  -0.845  0.00  0.00    +0.000 F 
ENDROOT
BRANCH   1   4
ATOM      4  C   UNL     1      -6.659   2.431  -0.300  0.00  0.00    +0.000 A 
ATOM      5  C   UNL     1      -8.046   2.417  -0.094  0.00  0.00    +0.000 A 
ATOM      6  C   UNL     1      -8.753   3.614   0.032  0.00  0.00    +0.000 A 
ATOM      7  C   UNL     1      -8.088   4.841  -0.048  0.00  0.00    +0.000 A 
ATOM      8  C   UNL     1      -6.713   4.869  -0.263  0.00  0.00    +0.000 A 
ATOM      9  C   UNL     1      -6.004   3.670  -0.385  0.00  0.00    +0.000 A 
BRANCH   8  10
ATOM     10  O   UNL     1      -5.944   6.003  -0.319  0.00  0.00    +0.000 OA
BRANCH  10  11
ATOM     11  C   UNL     1      -6.564   7.273  -0.612  0.00  0.00    +0.000 C 
ATOM     12  C   UNL     1      -7.059   7.503  -2.063  0.00  0.00    +0.000 C 
ATOM     13  C   UNL     1      -6.447   8.913  -2.006  0.00  0.00    +0.000 C 
ATOM     14  C   UNL     1      -5.548   8.420  -0.862  0.00  0.00    +0.000 C 
ENDBRANCH  10  11
ENDBRANCH   8  10
ENDBRANCH   1   4
BRANCH   1  15
ATOM     15  C   UNL     1      -5.390   0.767   1.071  0.00  0.00    +0.000 C 
BRANCH  15  20
ATOM     16  C   UNL     1      -3.228  -2.272   4.607  0.00  0.00    +0.000 A 
ATOM     17  C   UNL     1      -3.814  -1.018   4.710  0.00  0.00    +0.000 A 
ATOM     18  C   UNL     1      -4.321  -0.407   3.562  0.00  0.00    +0.000 A 
ATOM     19  C   UNL     1      -4.233  -1.054   2.332  0.00  0.00    +0.000 A 
ATOM     20  N   UNL     1      -4.686  -0.509   1.163  0.00  0.00    +0.000 N 
ATOM     21  N   UNL     1      -3.670  -2.274   2.227  0.00  0.00    +0.000 NA
ATOM     22  C   UNL     1      -3.185  -2.857   3.353  0.00  0.00    +0.000 A 
ATOM     23  H   UNL     1      -4.581  -1.094   0.341  0.00  0.00    +0.000 HD
BRANCH  16  25
ATOM     24  N   UNL     1      -2.249  -3.465   6.684  0.00  0.00    +0.000 NA
ATOM     25  C   UNL     1      -2.688  -2.935   5.749  0.00  0.00    +0.000 C 
ENDBRANCH  16  25
ENDBRANCH  15  20
ENDBRANCH   1  15
TORSDOF 6
