REMARK  Name = 
REMARK  8 active torsions:
REMARK  status: ('A' for Active; 'I' for Inactive)
REMARK    1  A    between atoms: C_1  and  C_2
REMARK    2  A    between atoms: N_7  and  C_8
REMARK    3  A    between atoms: C_12  and  C_13
REMARK    4  A    between atoms: C_13  and  C_14
REMARK    5  A    between atoms: C_14  and  N_15
REMARK    6  A    between atoms: N_15  and  C_16
REMARK    7  A    between atoms: C_19  and  C_20
REMARK    8  A    between atoms: C_20  and  O_22
REMARK                            x       y       z     vdW  Elec       q    Type
REMARK                         _______ _______ _______ _____ _____    ______ ____
ROOT
ATOM      1  C   UNL     1       6.765  -4.660  -0.022  0.00  0.00    +0.000 C 
ENDROOT
BRANCH   1   6
ATOM      2  C   UNL     1       3.766  -2.283   0.384  0.00  0.00    +0.000 A 
ATOM      3  C   UNL     1       3.380  -2.618   1.691  0.00  0.00    +0.000 A 
ATOM      4  C   UNL     1       4.078  -3.568   2.445  0.00  0.00    +0.000 A 
ATOM      5  C   UNL     1       5.180  -4.222   1.904  0.00  0.00    +0.000 A 
ATOM      6  C   UNL     1       5.602  -3.924   0.607  0.00  0.00    +0.000 A 
ATOM      7  C   UNL     1       4.905  -2.941  -0.120  0.00  0.00    +0.000 A 
BRANCH   2  14
ATOM      8  C   UNL     1       3.519  -0.441  -2.620  0.00  0.00    +0.000 C 
ATOM      9  C   UNL     1       2.871  -1.580  -1.832  0.00  0.00    +0.000 C 
ATOM     10  C   UNL     1       1.358  -1.685  -2.138  0.00  0.00    +0.000 C 
ATOM     11  O   UNL     1       0.619  -0.564  -1.630  0.00  0.00    +0.000 OA
ATOM     12  C   UNL     1       0.763  -0.486  -0.203  0.00  0.00    +0.000 C 
ATOM     13  C   UNL     1       2.229  -0.307   0.212  0.00  0.00    +0.000 C 
ATOM     14  N   UNL     1       3.079  -1.353  -0.382  0.00  0.00    +0.000 N 
ENDBRANCH   2  14
ENDBRANCH   1   6
BRANCH   1  15
ATOM     15  C   UNL     1       8.123  -4.003   0.252  0.00  0.00    +0.000 C 
BRANCH  15  16
ATOM     16  N   UNL     1       9.215  -4.775  -0.349  0.00  0.00    +0.000 N 
ATOM     17  H   UNL     1       8.972  -5.389  -1.120  0.00  0.00    +0.000 HD
BRANCH  16  18
ATOM     18  C   UNL     1      10.525  -4.311  -0.334  0.00  0.00    +0.000 A 
ATOM     19  C   UNL     1      10.948  -3.224   0.440  0.00  0.00    +0.000 A 
ATOM     20  C   UNL     1      12.299  -2.857   0.534  0.00  0.00    +0.000 A 
ATOM     21  C   UNL     1      13.272  -3.584  -0.157  0.00  0.00    +0.000 A 
ATOM     22  C   UNL     1      12.870  -4.683  -0.925  0.00  0.00    +0.000 A 
ATOM     23  C   UNL     1      11.521  -5.041  -1.008  0.00  0.00    +0.000 A 
BRANCH  21  24
ATOM     24  C   UNL     1      14.726  -3.296  -0.057  0.00  0.00    +0.000 C 
ATOM     25  O   UNL     1      15.581  -4.153  -0.193  0.00  0.00    +0.000 OA
BRANCH  24  26
ATOM     26  O   UNL     1      15.025  -1.996   0.160  0.00  0.00    +0.000 OA
ATOM     27  H   UNL     1      14.278  -1.376   0.100  0.00  0.00    +0.000 HD
ENDBRANCH  24  26
ENDBRANCH  21  24
ENDBRANCH  16  18
ENDBRANCH  15  16
ENDBRANCH   1  15
TORSDOF 7
