REMARK  Name = 
REMARK  7 active torsions:
REMARK  status: ('A' for Active; 'I' for Inactive)
REMARK    1  A    between atoms: C_1  and  C_2
REMARK    2  A    between atoms: C_5  and  O_6
REMARK    3  A    between atoms: O_6  and  C_7
REMARK    4  A    between atoms: C_7  and  C_8
REMARK    5  A    between atoms: C_11  and  C_12
REMARK    6  A    between atoms: C_12  and  N_13
REMARK    7  A    between atoms: C_14  and  C_16
REMARK                            x       y       z     vdW  Elec       q    Type
REMARK                         _______ _______ _______ _____ _____    ______ ____
ROOT
ATOM      1  C   UNL     1      -9.543   0.412   0.031  0.00  0.00    +0.000 C 
ENDROOT
BRANCH   1   5
ATOM      2  C   UNL     1      -5.271   1.124  -0.065  0.00  0.00    +0.000 A 
ATOM      3  C   UNL     1      -5.774  -0.184  -0.071  0.00  0.00    +0.000 A 
ATOM      4  C   UNL     1      -7.153  -0.417  -0.031  0.00  0.00    +0.000 A 
ATOM      5  C   UNL     1      -8.056   0.653  -0.006  0.00  0.00    +0.000 A 
ATOM      6  C   UNL     1      -7.552   1.960   0.018  0.00  0.00    +0.000 A 
ATOM      7  C   UNL     1      -6.174   2.194  -0.023  0.00  0.00    +0.000 A 
BRANCH   2   8
ATOM      8  C   UNL     1      -3.781   1.380  -0.097  0.00  0.00    +0.000 C 
BRANCH   8   9
ATOM      9  O   UNL     1      -3.341   1.483  -1.452  0.00  0.00    +0.000 OA
BRANCH   9  14
ATOM     10  C   UNL     1       2.186   2.433  -1.847  0.00  0.00    +0.000 C 
ATOM     11  C   UNL     1       0.712   2.183  -1.786  0.00  0.00    +0.000 A 
ATOM     12  C   UNL     1      -0.074   2.073  -2.934  0.00  0.00    +0.000 A 
ATOM     13  C   UNL     1      -1.444   1.837  -2.811  0.00  0.00    +0.000 A 
ATOM     14  C   UNL     1      -1.982   1.720  -1.540  0.00  0.00    +0.000 A 
ATOM     15  N   UNL     1      -1.249   1.824  -0.411  0.00  0.00    +0.000 NA
ATOM     16  C   UNL     1       0.072   2.052  -0.558  0.00  0.00    +0.000 A 
ENDBRANCH   9  14
ENDBRANCH   8   9
ENDBRANCH   2   8
ENDBRANCH   1   5
BRANCH   1  17
ATOM     17  N   UNL     1     -10.023   0.324   1.386  0.00  0.00    +0.000 N 
ATOM     18  C   UNL     1     -11.334   0.026   1.659  0.00  0.00    +0.000 C 
ATOM     19  O   UNL     1     -12.143  -0.224   0.770  0.00  0.00    +0.000 OA
ATOM     20  H   UNL     1      -9.445   0.746   2.106  0.00  0.00    +0.000 HD
BRANCH  18  21
ATOM     21  C   UNL     1     -11.709  -0.042   3.077  0.00  0.00    +0.000 A 
ATOM     22  C   UNL     1     -12.822  -0.780   3.459  0.00  0.00    +0.000 A 
ATOM     23  S   UNL     1     -13.083  -0.803   5.144  0.00  0.00    +0.000 S 
ATOM     24  C   UNL     1     -11.748   0.214   5.420  0.00  0.00    +0.000 A 
ATOM     25  N   UNL     1     -11.419   0.611   6.679  0.00  0.00    +0.000 NA
ATOM     26  C   UNL     1     -10.402   1.406   6.739  0.00  0.00    +0.000 A 
ATOM     27  N   UNL     1      -9.683   1.837   5.656  0.00  0.00    +0.000 N 
ATOM     28  C   UNL     1      -9.964   1.445   4.369  0.00  0.00    +0.000 A 
ATOM     29  O   UNL     1      -9.282   1.825   3.425  0.00  0.00    +0.000 OA
ATOM     30  C   UNL     1     -11.103   0.555   4.243  0.00  0.00    +0.000 A 
ATOM     31  H   UNL     1      -8.894   2.456   5.770  0.00  0.00    +0.000 HD
ENDBRANCH  18  21
ENDBRANCH   1  17
TORSDOF 6
