REMARK  Name = 
REMARK  6 active torsions:
REMARK  status: ('A' for Active; 'I' for Inactive)
REMARK    1  A    between atoms: C_1  and  C_2
REMARK    2  A    between atoms: C_2  and  N_3
REMARK    3  A    between atoms: N_3  and  C_4
REMARK    4  A    between atoms: N_3  and  C_11
REMARK    5  A    between atoms: C_4  and  C_5
REMARK    6  A    between atoms: C_14  and  C_15
REMARK                            x       y       z     vdW  Elec       q    Type
REMARK                         _______ _______ _______ _____ _____    ______ ____
ROOT
ATOM      1  C   UNL     1       4.335  -0.038  -1.670  0.00  0.00    +0.000 A 
ATOM      2  C   UNL     1       4.778  -0.036  -3.002  0.00  0.00    +0.000 A 
ATOM      3  C   UNL     1       6.137  -0.076  -3.329  0.00  0.00    +0.000 A 
ATOM      4  C   UNL     1       7.057  -0.118  -2.298  0.00  0.00    +0.000 A 
ATOM      5  N   UNL     1       6.709  -0.121  -0.987  0.00  0.00    +0.000 NA
ATOM      6  C   UNL     1       5.374  -0.085  -0.726  0.00  0.00    +0.000 A 
ENDROOT
BRANCH   4   7
ATOM      7  C   UNL     1       8.522  -0.165  -2.602  0.00  0.00    +0.000 C 
ATOM      8  N   UNL     1       9.345  -0.189  -1.511  0.00  0.00    +0.000 N 
ATOM      9  O   UNL     1       8.961  -0.181  -3.747  0.00  0.00    +0.000 OA
ATOM     10  H   UNL     1       8.936  -0.182  -0.583  0.00  0.00    +0.000 HD
ATOM     11  H   UNL     1      10.345  -0.236  -1.635  0.00  0.00    +0.000 HD
ENDBRANCH   4   7
BRANCH   1  12
ATOM     12  N   UNL     1       2.986   0.007  -1.327  0.00  0.00    +0.000 N 
BRANCH  12  14
ATOM     13  C   UNL     1       2.428  -1.150   0.797  0.00  0.00    +0.000 C 
ATOM     14  C   UNL     1       2.550   0.180   0.067  0.00  0.00    +0.000 C 
ENDBRANCH  12  14
BRANCH  12  15
ATOM     15  C   UNL     1       1.922  -0.010  -2.349  0.00  0.00    +0.000 C 
BRANCH  15  16
ATOM     16  C   UNL     1       1.663   1.329  -3.004  0.00  0.00    +0.000 A 
ATOM     17  C   UNL     1       2.156   2.549  -2.532  0.00  0.00    +0.000 A 
ATOM     18  C   UNL     1       1.890   3.729  -3.225  0.00  0.00    +0.000 A 
ATOM     19  C   UNL     1       1.119   3.658  -4.372  0.00  0.00    +0.000 A 
ATOM     20  N   UNL     1       0.595   2.510  -4.846  0.00  0.00    +0.000 NA
ATOM     21  C   UNL     1       0.875   1.380  -4.154  0.00  0.00    +0.000 A 
ENDBRANCH  15  16
ENDBRANCH  12  15
ENDBRANCH   1  12
TORSDOF 5
