REMARK  Name = 
REMARK  4 active torsions:
REMARK  status: ('A' for Active; 'I' for Inactive)
REMARK    1  A    between atoms: C_2  and  C_4
REMARK    2  A    between atoms: N_8  and  C_9
REMARK    3  A    between atoms: C_9  and  C_10
REMARK    4  A    between atoms: C_14  and  C_15
REMARK                            x       y       z     vdW  Elec       q    Type
REMARK                         _______ _______ _______ _____ _____    ______ ____
ROOT
ATOM      1  C   UNL     1       4.958   4.955   3.328  0.00  0.00    +0.000 C 
ENDROOT
BRANCH   1   6
ATOM      2  C   UNL     1       4.686   1.805   7.409  0.00  0.00    +0.000 A 
ATOM      3  C   UNL     1       4.144   3.068   7.203  0.00  0.00    +0.000 A 
ATOM      4  C   UNL     1       4.353   3.706   5.981  0.00  0.00    +0.000 A 
ATOM      5  C   UNL     1       5.108   3.084   4.993  0.00  0.00    +0.000 A 
ATOM      6  N   UNL     1       5.339   3.632   3.760  0.00  0.00    +0.000 N 
ATOM      7  N   UNL     1       5.668   1.877   5.197  0.00  0.00    +0.000 NA
ATOM      8  C   UNL     1       5.456   1.263   6.392  0.00  0.00    +0.000 A 
ATOM      9  H   UNL     1       6.002   3.106   3.205  0.00  0.00    +0.000 HD
BRANCH   2  11
ATOM     10  N   UNL     1       3.358   1.327   9.382  0.00  0.00    +0.000 N 
ATOM     11  C   UNL     1       4.483   1.044   8.657  0.00  0.00    +0.000 C 
ATOM     12  O   UNL     1       5.264   0.172   9.012  0.00  0.00    +0.000 OA
ATOM     13  H   UNL     1       3.175   0.734  10.181  0.00  0.00    +0.000 HD
ATOM     14  H   UNL     1       2.581   1.851   9.004  0.00  0.00    +0.000 HD
ENDBRANCH   2  11
ENDBRANCH   1   6
BRANCH   1  15
ATOM     15  C   UNL     1       5.858   6.066   3.830  0.00  0.00    +0.000 A 
ATOM     16  C   UNL     1       5.517   7.391   3.526  0.00  0.00    +0.000 A 
ATOM     17  C   UNL     1       6.293   8.448   3.994  0.00  0.00    +0.000 A 
ATOM     18  C   UNL     1       7.416   8.196   4.786  0.00  0.00    +0.000 A 
ATOM     19  C   UNL     1       7.788   6.885   5.126  0.00  0.00    +0.000 A 
ATOM     20  C   UNL     1       7.005   5.836   4.610  0.00  0.00    +0.000 A 
BRANCH  19  21
ATOM     21  C   UNL     1       8.924   6.611   6.030  0.00  0.00    +0.000 A 
ATOM     22  C   UNL     1       9.198   7.425   7.138  0.00  0.00    +0.000 A 
ATOM     23  N   UNL     1      10.199   7.222   8.035  0.00  0.00    +0.000 NA
ATOM     24  C   UNL     1      10.972   6.132   7.831  0.00  0.00    +0.000 A 
ATOM     25  C   UNL     1      10.789   5.261   6.776  0.00  0.00    +0.000 A 
ATOM     26  F   UNL     1      11.582   4.192   6.630  0.00  0.00    +0.000 F 
ATOM     27  C   UNL     1       9.765   5.500   5.867  0.00  0.00    +0.000 A 
ENDBRANCH  19  21
ENDBRANCH   1  15
TORSDOF 4
