REMARK  Name = 
REMARK  6 active torsions:
REMARK  status: ('A' for Active; 'I' for Inactive)
REMARK    1  A    between atoms: N_1  and  C_2
REMARK    2  A    between atoms: C_2  and  C_3
REMARK    3  A    between atoms: C_3  and  C_4
REMARK    4  A    between atoms: C_7  and  C_8
REMARK    5  A    between atoms: C_8  and  N_9
REMARK    6  A    between atoms: C_14  and  C_15
REMARK                            x       y       z     vdW  Elec       q    Type
REMARK                         _______ _______ _______ _____ _____    ______ ____
ROOT
ATOM      1  N   UNL     1       9.973   1.798   0.841  0.00  0.00    +0.000 N 
ATOM      2  C   UNL     1       9.859   2.763  -0.125  0.00  0.00    +0.000 A 
ATOM      3  N   UNL     1      11.028   3.247  -0.477  0.00  0.00    +0.000 NA
ATOM      4  C   UNL     1      11.939   2.586   0.304  0.00  0.00    +0.000 A 
ATOM      5  C   UNL     1      13.339   2.605   0.241  0.00  0.00    +0.000 A 
ATOM      6  C   UNL     1      14.076   1.788   1.114  0.00  0.00    +0.000 A 
ATOM      7  C   UNL     1      13.414   1.064   2.118  0.00  0.00    +0.000 A 
ATOM      8  C   UNL     1      12.011   1.037   2.196  0.00  0.00    +0.000 A 
ATOM      9  C   UNL     1      11.303   1.759   1.227  0.00  0.00    +0.000 A 
ENDROOT
BRANCH   6  10
ATOM     10  C   UNL     1      15.541   1.671   0.841  0.00  0.00    +0.000 C 
ATOM     11  N   UNL     1      16.311   0.898   1.667  0.00  0.00    +0.000 N 
ATOM     12  O   UNL     1      16.057   2.209  -0.129  0.00  0.00    +0.000 OA
ATOM     13  H   UNL     1      15.998   0.438   2.505  0.00  0.00    +0.000 HD
ATOM     14  H   UNL     1      17.284   0.804   1.405  0.00  0.00    +0.000 HD
ENDBRANCH   6  10
BRANCH   1  15
ATOM     15  C   UNL     1       9.019   0.716   1.063  0.00  0.00    +0.000 C 
BRANCH  15  19
ATOM     16  C   UNL     1       4.828   1.822   1.258  0.00  0.00    +0.000 A 
ATOM     17  C   UNL     1       5.417   1.479   0.033  0.00  0.00    +0.000 A 
ATOM     18  C   UNL     1       6.771   1.133  -0.031  0.00  0.00    +0.000 A 
ATOM     19  C   UNL     1       7.568   1.125   1.126  0.00  0.00    +0.000 A 
ATOM     20  C   UNL     1       6.976   1.460   2.349  0.00  0.00    +0.000 A 
ATOM     21  C   UNL     1       5.618   1.794   2.414  0.00  0.00    +0.000 A 
BRANCH  16  22
ATOM     22  C   UNL     1       3.376   2.237   1.332  0.00  0.00    +0.000 C 
BRANCH  22  23
ATOM     23  C   UNL     1       2.419   1.061   1.555  0.00  0.00    +0.000 C 
BRANCH  23  24
ATOM     24  N   UNL     1       1.033   1.530   1.638  0.00  0.00    +0.000 NA
ATOM     25  H   UNL     1       0.413   0.736   1.776  0.00  0.00    +0.000 HD
ATOM     26  H   UNL     1       0.762   1.953   0.750  0.00  0.00    +0.000 HD
ENDBRANCH  23  24
ENDBRANCH  22  23
ENDBRANCH  16  22
ENDBRANCH  15  19
ENDBRANCH   1  15
TORSDOF 6
