REMARK  Name = 
REMARK  7 active torsions:
REMARK  status: ('A' for Active; 'I' for Inactive)
REMARK    1  A    between atoms: C_1  and  N_2
REMARK    2  A    between atoms: C_5  and  C_6
REMARK    3  A    between atoms: N_8  and  C_9
REMARK    4  A    between atoms: C_9  and  C_10
REMARK    5  A    between atoms: C_13  and  C_14
REMARK    6  A    between atoms: C_14  and  N_15
REMARK    7  A    between atoms: C_16  and  C_18
REMARK                            x       y       z     vdW  Elec       q    Type
REMARK                         _______ _______ _______ _____ _____    ______ ____
ROOT
ATOM      1  C   UNL     1       6.230   1.213  -0.206  0.00  0.00    +0.000 A 
ATOM      2  C   UNL     1       7.440   1.918  -0.135  0.00  0.00    +0.000 A 
ATOM      3  C   UNL     1       8.666   1.241  -0.121  0.00  0.00    +0.000 A 
ATOM      4  C   UNL     1       8.712  -0.157  -0.198  0.00  0.00    +0.000 A 
ATOM      5  C   UNL     1       7.503  -0.863  -0.258  0.00  0.00    +0.000 A 
ATOM      6  C   UNL     1       6.277  -0.186  -0.274  0.00  0.00    +0.000 A 
ENDROOT
BRANCH   1   7
ATOM      7  C   UNL     1       4.911   1.944  -0.189  0.00  0.00    +0.000 C 
BRANCH   7  10
ATOM      8  C   UNL     1       3.304   3.059  -1.679  0.00  0.00    +0.000 C 
ATOM      9  O   UNL     1       2.607   3.454  -0.751  0.00  0.00    +0.000 OA
ATOM     10  N   UNL     1       4.460   2.326  -1.501  0.00  0.00    +0.000 N 
ATOM     11  H   UNL     1       4.938   2.018  -2.343  0.00  0.00    +0.000 HD
BRANCH   8  16
ATOM     12  C   UNL     1       3.661   2.992  -6.513  0.00  0.00    +0.000 C 
ATOM     13  N   UNL     1       3.118   3.311  -5.215  0.00  0.00    +0.000 N 
ATOM     14  C   UNL     1       1.986   4.026  -4.959  0.00  0.00    +0.000 A 
ATOM     15  C   UNL     1       1.861   4.048  -3.590  0.00  0.00    +0.000 A 
ATOM     16  C   UNL     1       2.977   3.322  -3.093  0.00  0.00    +0.000 A 
ATOM     17  N   UNL     1       3.745   2.871  -4.107  0.00  0.00    +0.000 NA
ENDBRANCH   8  16
ENDBRANCH   7  10
ENDBRANCH   1   7
BRANCH   4  18
ATOM     18  C   UNL     1      10.027  -0.897  -0.202  0.00  0.00    +0.000 C 
BRANCH  18  19
ATOM     19  N   UNL     1      10.456  -1.243   1.131  0.00  0.00    +0.000 N 
ATOM     20  C   UNL     1      11.652  -1.882   1.348  0.00  0.00    +0.000 C 
ATOM     21  O   UNL     1      12.425  -2.149   0.432  0.00  0.00    +0.000 OA
ATOM     22  H   UNL     1       9.744  -1.260   1.853  0.00  0.00    +0.000 HD
BRANCH  20  23
ATOM     23  C   UNL     1      11.992  -2.179   2.746  0.00  0.00    +0.000 A 
ATOM     24  C   UNL     1      13.323  -2.335   3.116  0.00  0.00    +0.000 A 
ATOM     25  S   UNL     1      13.541  -2.616   4.784  0.00  0.00    +0.000 S 
ATOM     26  C   UNL     1      11.863  -2.595   5.063  0.00  0.00    +0.000 A 
ATOM     27  N   UNL     1      11.357  -2.804   6.308  0.00  0.00    +0.000 NA
ATOM     28  C   UNL     1      10.067  -2.787   6.372  0.00  0.00    +0.000 A 
ATOM     29  N   UNL     1       9.238  -2.577   5.300  0.00  0.00    +0.000 N 
ATOM     30  C   UNL     1       9.704  -2.337   4.031  0.00  0.00    +0.000 A 
ATOM     31  O   UNL     1       8.933  -2.115   3.101  0.00  0.00    +0.000 OA
ATOM     32  C   UNL     1      11.148  -2.355   3.903  0.00  0.00    +0.000 A 
ATOM     33  H   UNL     1       8.235  -2.569   5.416  0.00  0.00    +0.000 HD
ENDBRANCH  20  23
ENDBRANCH  18  19
ENDBRANCH   4  18
TORSDOF 6
