REMARK  Name = 
REMARK  7 active torsions:
REMARK  status: ('A' for Active; 'I' for Inactive)
REMARK    1  A    between atoms: C_1  and  C_2
REMARK    2  A    between atoms: C_2  and  C_3
REMARK    3  A    between atoms: C_2  and  C_4
REMARK    4  A    between atoms: C_2  and  C_5
REMARK    5  A    between atoms: C_8  and  C_9
REMARK    6  A    between atoms: C_16  and  C_17
REMARK    7  A    between atoms: C_17  and  N_18
REMARK                            x       y       z     vdW  Elec       q    Type
REMARK                         _______ _______ _______ _____ _____    ______ ____
ROOT
ATOM      1  C   UNL     1       2.675   1.458  -0.333  0.00  0.00    +0.000 A 
ATOM      2  N   UNL     1       3.570   1.430  -1.427  0.00  0.00    +0.000 NA
ATOM      3  C   UNL     1       3.707   2.682  -1.866  0.00  0.00    +0.000 A 
ATOM      4  C   UNL     1       4.466   3.339  -2.884  0.00  0.00    +0.000 A 
ATOM      5  C   UNL     1       4.282   4.661  -3.077  0.00  0.00    +0.000 A 
ATOM      6  N   UNL     1       3.375   5.456  -2.398  0.00  0.00    +0.000 NA
ATOM      7  C   UNL     1       2.689   4.857  -1.474  0.00  0.00    +0.000 A 
ATOM      8  N   UNL     1       2.873   3.509  -1.147  0.00  0.00    +0.000 N 
ATOM      9  C   UNL     1       2.329   2.800  -0.088  0.00  0.00    +0.000 A 
ENDROOT
BRANCH   4  10
ATOM     10  C   UNL     1       5.454   2.723  -3.814  0.00  0.00    +0.000 C 
ATOM     11  N   UNL     1       5.696   1.401  -3.646  0.00  0.00    +0.000 N 
ATOM     12  O   UNL     1       6.030   3.343  -4.702  0.00  0.00    +0.000 OA
ATOM     13  H   UNL     1       5.222   0.855  -2.933  0.00  0.00    +0.000 HD
ATOM     14  H   UNL     1       6.339   0.956  -4.289  0.00  0.00    +0.000 HD
ENDBRANCH   4  10
BRANCH   1  16
ATOM     15  C   UNL     1       3.465  -0.693   0.889  0.00  0.00    +0.000 C 
ATOM     16  C   UNL     1       2.252   0.100   0.343  0.00  0.00    +0.000 C 
ATOM     17  C   UNL     1       1.532  -0.829  -0.675  0.00  0.00    +0.000 C 
ATOM     18  C   UNL     1       1.276   0.237   1.535  0.00  0.00    +0.000 C 
ENDBRANCH   1  16
BRANCH   9  19
ATOM     19  C   UNL     1       1.524   3.535   0.948  0.00  0.00    +0.000 C 
BRANCH  19  20
ATOM     20  N   UNL     1       2.338   4.136   2.013  0.00  0.00    +0.000 NA
ATOM     21  C   UNL     1       1.520   4.532   3.181  0.00  0.00    +0.000 C 
ATOM     22  C   UNL     1       0.919   5.947   3.113  0.00  0.00    +0.000 C 
ATOM     23  O   UNL     1       1.933   6.935   2.927  0.00  0.00    +0.000 OA
ATOM     24  C   UNL     1       2.686   6.687   1.739  0.00  0.00    +0.000 C 
ATOM     25  C   UNL     1       3.258   5.251   1.693  0.00  0.00    +0.000 C 
ENDBRANCH  19  20
ENDBRANCH   9  19
TORSDOF 4
