REMARK  Name = 
REMARK  4 active torsions:
REMARK  status: ('A' for Active; 'I' for Inactive)
REMARK    1  A    between atoms: C_2  and  C_4
REMARK    2  A    between atoms: N_8  and  C_9
REMARK    3  A    between atoms: C_9  and  C_10
REMARK    4  A    between atoms: C_14  and  C_15
REMARK                            x       y       z     vdW  Elec       q    Type
REMARK                         _______ _______ _______ _____ _____    ______ ____
ROOT
ATOM      1  C   UNL     1       7.518   0.693  -1.654  0.00  0.00    +0.000 A 
ATOM      2  C   UNL     1       7.431   1.568  -2.729  0.00  0.00    +0.000 A 
ATOM      3  C   UNL     1       6.678   1.197  -3.843  0.00  0.00    +0.000 A 
ATOM      4  C   UNL     1       6.041  -0.039  -3.872  0.00  0.00    +0.000 A 
ATOM      5  N   UNL     1       5.232  -0.448  -4.893  0.00  0.00    +0.000 N 
ATOM      6  N   UNL     1       6.152  -0.908  -2.846  0.00  0.00    +0.000 NA
ATOM      7  C   UNL     1       6.885  -0.532  -1.765  0.00  0.00    +0.000 A 
ATOM      8  H   UNL     1       4.953  -1.416  -4.819  0.00  0.00    +0.000 HD
ENDROOT
BRANCH   1  10
ATOM      9  N   UNL     1       8.378   2.356  -0.115  0.00  0.00    +0.000 N 
ATOM     10  C   UNL     1       8.260   1.028  -0.423  0.00  0.00    +0.000 C 
ATOM     11  O   UNL     1       8.719   0.163   0.309  0.00  0.00    +0.000 OA
ATOM     12  H   UNL     1       8.802   2.579   0.776  0.00  0.00    +0.000 HD
ATOM     13  H   UNL     1       7.807   3.069  -0.551  0.00  0.00    +0.000 HD
ENDBRANCH   1  10
BRANCH   5  14
ATOM     14  C   UNL     1       4.956   0.277  -6.107  0.00  0.00    +0.000 C 
BRANCH  14  15
ATOM     15  C   UNL     1       5.984  -0.004  -7.172  0.00  0.00    +0.000 A 
ATOM     16  C   UNL     1       6.139  -1.293  -7.694  0.00  0.00    +0.000 A 
ATOM     17  C   UNL     1       7.054  -1.534  -8.714  0.00  0.00    +0.000 A 
ATOM     18  C   UNL     1       7.813  -0.484  -9.237  0.00  0.00    +0.000 A 
ATOM     19  C   UNL     1       7.685   0.830  -8.749  0.00  0.00    +0.000 A 
ATOM     20  C   UNL     1       6.771   1.037  -7.696  0.00  0.00    +0.000 A 
BRANCH  19  21
ATOM     21  C   UNL     1       8.444   1.954  -9.335  0.00  0.00    +0.000 A 
ATOM     22  N   UNL     1       9.166   1.718 -10.449  0.00  0.00    +0.000 NA
ATOM     23  C   UNL     1       9.800   2.773 -10.993  0.00  0.00    +0.000 A 
ATOM     24  C   UNL     1       9.745   4.043 -10.472  0.00  0.00    +0.000 A 
ATOM     25  C   UNL     1       8.987   4.183  -9.335  0.00  0.00    +0.000 A 
ATOM     26  N   UNL     1       8.328   3.166  -8.750  0.00  0.00    +0.000 NA
ENDBRANCH  19  21
ENDBRANCH  14  15
ENDBRANCH   5  14
TORSDOF 4
