REMARK  Name = 
REMARK  9 active torsions:
REMARK  status: ('A' for Active; 'I' for Inactive)
REMARK    1  A    between atoms: C_1  and  O_2
REMARK    2  A    between atoms: O_2  and  C_3
REMARK    3  A    between atoms: C_10  and  C_11
REMARK    4  A    between atoms: N_13  and  C_14
REMARK    5  A    between atoms: C_14  and  C_15
REMARK    6  A    between atoms: C_18  and  N_19
REMARK    7  A    between atoms: N_19  and  C_20
REMARK    8  A    between atoms: C_20  and  C_21
REMARK    9  A    between atoms: N_24  and  C_25
REMARK                            x       y       z     vdW  Elec       q    Type
REMARK                         _______ _______ _______ _____ _____    ______ ____
ROOT
ATOM      1  C   UNL     1       3.184  -2.883   1.611  0.00  0.00    +0.000 C 
ENDROOT
BRANCH   1   2
ATOM      2  C   UNL     1       2.164  -2.290   2.543  0.00  0.00    +0.000 A 
ATOM      3  C   UNL     1       1.221  -3.102   3.177  0.00  0.00    +0.000 A 
ATOM      4  C   UNL     1       0.283  -2.550   4.055  0.00  0.00    +0.000 A 
ATOM      5  C   UNL     1       0.235  -1.174   4.312  0.00  0.00    +0.000 A 
ATOM      6  C   UNL     1       1.176  -0.368   3.657  0.00  0.00    +0.000 A 
ATOM      7  C   UNL     1       2.119  -0.912   2.776  0.00  0.00    +0.000 A 
BRANCH   5   8
ATOM      8  N   UNL     1      -0.583  -0.587   5.280  0.00  0.00    +0.000 N 
ATOM      9  H   UNL     1      -0.892   0.347   5.021  0.00  0.00    +0.000 HD
BRANCH   8  10
ATOM     10  C   UNL     1      -1.569  -1.372   6.007  0.00  0.00    +0.000 C 
BRANCH  10  11
ATOM     11  C   UNL     1      -1.934  -0.719   7.355  0.00  0.00    +0.000 C 
ATOM     12  C   UNL     1      -0.718  -0.478   8.264  0.00  0.00    +0.000 C 
ATOM     13  C   UNL     1      -0.093  -1.786   8.752  0.00  0.00    +0.000 C 
ATOM     14  N   UNL     1      -1.077  -2.627   9.451  0.00  0.00    +0.000 NA
ATOM     15  C   UNL     1      -0.450  -3.877   9.885  0.00  0.00    +0.000 C 
ATOM     16  C   UNL     1      -2.264  -2.905   8.635  0.00  0.00    +0.000 C 
ATOM     17  C   UNL     1      -2.923  -1.617   8.119  0.00  0.00    +0.000 C 
ENDBRANCH  10  11
ENDBRANCH   8  10
ENDBRANCH   5   8
ENDBRANCH   1   2
BRANCH   1  20
ATOM     18  C   UNL     1       3.261  -2.440  -0.821  0.00  0.00    +0.000 C 
ATOM     19  O   UNL     1       4.325  -1.830  -0.728  0.00  0.00    +0.000 OA
ATOM     20  N   UNL     1       2.648  -2.978   0.276  0.00  0.00    +0.000 N 
ATOM     21  H   UNL     1       1.765  -3.459   0.173  0.00  0.00    +0.000 HD
BRANCH  18  29
ATOM     22  C   UNL     1       0.453  -4.164  -1.840  0.00  0.00    +0.000 A 
ATOM     23  N   UNL     1      -0.601  -4.693  -2.494  0.00  0.00    +0.000 NA
ATOM     24  C   UNL     1      -0.723  -4.439  -3.800  0.00  0.00    +0.000 A 
ATOM     25  N   UNL     1       0.101  -3.718  -4.555  0.00  0.00    +0.000 NA
ATOM     26  C   UNL     1       1.131  -3.201  -3.864  0.00  0.00    +0.000 A 
ATOM     27  S   UNL     1       2.291  -2.261  -4.672  0.00  0.00    +0.000 S 
ATOM     28  C   UNL     1       3.157  -2.007  -3.235  0.00  0.00    +0.000 A 
ATOM     29  C   UNL     1       2.591  -2.614  -2.120  0.00  0.00    +0.000 A 
ATOM     30  C   UNL     1       1.387  -3.348  -2.504  0.00  0.00    +0.000 A 
BRANCH  22  32
ATOM     31  C   UNL     1      -0.106  -5.604  -0.082  0.00  0.00    +0.000 C 
ATOM     32  O   UNL     1       0.576  -4.420  -0.490  0.00  0.00    +0.000 OA
ENDBRANCH  22  32
ENDBRANCH  18  29
ENDBRANCH   1  20
TORSDOF 7
