REMARK  Name = 
REMARK  9 active torsions:
REMARK  status: ('A' for Active; 'I' for Inactive)
REMARK    1  A    between atoms: C_1  and  O_2
REMARK    2  A    between atoms: O_2  and  C_3
REMARK    3  A    between atoms: C_6  and  C_7
REMARK    4  A    between atoms: N_13  and  C_14
REMARK    5  A    between atoms: C_14  and  C_15
REMARK    6  A    between atoms: C_18  and  C_19
REMARK    7  A    between atoms: C_19  and  C_20
REMARK    8  A    between atoms: C_19  and  C_21
REMARK    9  A    between atoms: C_19  and  O_22
REMARK                            x       y       z     vdW  Elec       q    Type
REMARK                         _______ _______ _______ _____ _____    ______ ____
ROOT
ATOM      1  C   UNL     1       3.559   3.074  -2.479  0.00  0.00    +0.000 A 
ATOM      2  N   UNL     1       3.402   4.406  -2.274  0.00  0.00    +0.000 NA
ATOM      3  C   UNL     1       4.079   5.034  -1.296  0.00  0.00    +0.000 A 
ATOM      4  C   UNL     1       4.935   4.402  -0.420  0.00  0.00    +0.000 A 
ATOM      5  C   UNL     1       5.061   2.995  -0.556  0.00  0.00    +0.000 A 
ATOM      6  C   UNL     1       5.825   1.996   0.118  0.00  0.00    +0.000 A 
ATOM      7  C   UNL     1       5.556   0.782  -0.458  0.00  0.00    +0.000 A 
ATOM      8  N   UNL     1       4.673   0.969  -1.504  0.00  0.00    +0.000 N 
ATOM      9  C   UNL     1       4.352   2.326  -1.592  0.00  0.00    +0.000 A 
ENDROOT
BRANCH   4  10
ATOM     10  C   UNL     1       5.661   5.272   0.515  0.00  0.00    +0.000 C 
ATOM     11  N   UNL     1       6.018   4.780   1.735  0.00  0.00    +0.000 N 
ATOM     12  O   UNL     1       5.891   6.440   0.244  0.00  0.00    +0.000 OA
ATOM     13  H   UNL     1       5.630   3.922   2.109  0.00  0.00    +0.000 HD
ATOM     14  H   UNL     1       6.363   5.465   2.399  0.00  0.00    +0.000 HD
ENDBRANCH   4  10
BRANCH   1  16
ATOM     15  C   UNL     1       2.754   3.568  -4.582  0.00  0.00    +0.000 C 
ATOM     16  O   UNL     1       2.937   2.539  -3.589  0.00  0.00    +0.000 OA
ENDBRANCH   1  16
BRANCH   8  17
ATOM     17  C   UNL     1       4.304  -0.142  -2.395  0.00  0.00    +0.000 C 
BRANCH  17  18
ATOM     18  C   UNL     1       3.160  -0.978  -1.868  0.00  0.00    +0.000 A 
ATOM     19  C   UNL     1       1.870  -0.460  -1.774  0.00  0.00    +0.000 A 
ATOM     20  C   UNL     1       0.884  -1.183  -1.100  0.00  0.00    +0.000 A 
ATOM     21  C   UNL     1       1.198  -2.419  -0.535  0.00  0.00    +0.000 A 
ATOM     22  N   UNL     1       2.404  -3.002  -0.766  0.00  0.00    +0.000 NA
ATOM     23  C   UNL     1       3.344  -2.277  -1.417  0.00  0.00    +0.000 A 
BRANCH  21  24
ATOM     24  C   UNL     1       0.291  -3.058   0.518  0.00  0.00    +0.000 C 
ATOM     25  C   UNL     1       0.353  -4.588   0.488  0.00  0.00    +0.000 C 
ATOM     26  C   UNL     1       0.728  -2.549   1.899  0.00  0.00    +0.000 C 
BRANCH  24  27
ATOM     27  O   UNL     1      -1.082  -2.676   0.346  0.00  0.00    +0.000 OA
ATOM     28  H   UNL     1      -1.366  -3.020  -0.518  0.00  0.00    +0.000 HD
ENDBRANCH  24  27
ENDBRANCH  21  24
ENDBRANCH  17  18
ENDBRANCH   8  17
TORSDOF 6
