REMARK  Name = 
REMARK  4 active torsions:
REMARK  status: ('A' for Active; 'I' for Inactive)
REMARK    1  A    between atoms: C_2  and  C_3
REMARK    2  A    between atoms: C_6  and  C_7
REMARK    3  A    between atoms: C_7  and  N_8
REMARK    4  A    between atoms: C_12  and  C_13
REMARK                            x       y       z     vdW  Elec       q    Type
REMARK                         _______ _______ _______ _____ _____    ______ ____
ROOT
ATOM      1  N   UNL     1      -4.153  -1.055   0.709  0.00  0.00    +0.000 N 
ATOM      2  C   UNL     1      -4.309  -1.109   2.088  0.00  0.00    +0.000 A 
ATOM      3  N   UNL     1      -5.130  -2.075   2.519  0.00  0.00    +0.000 NA
ATOM      4  C   UNL     1      -5.314  -2.185   3.852  0.00  0.00    +0.000 A 
ATOM      5  C   UNL     1      -4.688  -1.385   4.777  0.00  0.00    +0.000 A 
ATOM      6  C   UNL     1      -3.883  -0.406   4.244  0.00  0.00    +0.000 A 
ATOM      7  N   UNL     1      -3.680  -0.245   2.912  0.00  0.00    +0.000 NA
ATOM      8  H   UNL     1      -4.771  -1.716   0.262  0.00  0.00    +0.000 HD
ENDROOT
BRANCH   5   9
ATOM      9  C   UNL     1      -4.925  -1.611   6.209  0.00  0.00    +0.000 C 
ATOM     10  N   UNL     1      -3.960  -1.228   7.096  0.00  0.00    +0.000 N 
ATOM     11  O   UNL     1      -5.942  -2.174   6.593  0.00  0.00    +0.000 OA
ATOM     12  H   UNL     1      -3.023  -0.954   6.835  0.00  0.00    +0.000 HD
ATOM     13  H   UNL     1      -4.104  -1.518   8.057  0.00  0.00    +0.000 HD
ENDBRANCH   5   9
BRANCH   1  14
ATOM     14  C   UNL     1      -3.675   0.132   0.005  0.00  0.00    +0.000 C 
ATOM     15  C   UNL     1      -4.453   0.632  -1.209  0.00  0.00    +0.000 C 
ATOM     16  C   UNL     1      -4.516   1.390   0.075  0.00  0.00    +0.000 C 
BRANCH  14  20
ATOM     17  C   UNL     1       0.607   0.001  -0.291  0.00  0.00    +0.000 A 
ATOM     18  C   UNL     1       0.028   0.832   0.662  0.00  0.00    +0.000 A 
ATOM     19  C   UNL     1      -1.363   0.915   0.739  0.00  0.00    +0.000 A 
ATOM     20  C   UNL     1      -2.154   0.169  -0.137  0.00  0.00    +0.000 A 
ATOM     21  N   UNL     1      -1.581  -0.617  -1.096  0.00  0.00    +0.000 NA
ATOM     22  C   UNL     1      -0.232  -0.693  -1.146  0.00  0.00    +0.000 A 
BRANCH  17  24
ATOM     23  N   UNL     1       3.171  -0.278  -0.449  0.00  0.00    +0.000 NA
ATOM     24  C   UNL     1       2.022  -0.153  -0.381  0.00  0.00    +0.000 C 
ENDBRANCH  17  24
ENDBRANCH  14  20
ENDBRANCH   1  14
TORSDOF 4
