REMARK  Name = 
REMARK  6 active torsions:
REMARK  status: ('A' for Active; 'I' for Inactive)
REMARK    1  A    between atoms: C_2  and  C_21
REMARK    2  A    between atoms: N_3  and  C_4
REMARK    3  A    between atoms: C_4  and  C_5
REMARK    4  A    between atoms: C_8  and  C_9
REMARK    5  A    between atoms: C_9  and  N_10
REMARK    6  A    between atoms: C_11  and  C_13
REMARK                            x       y       z     vdW  Elec       q    Type
REMARK                         _______ _______ _______ _____ _____    ______ ____
ROOT
ATOM      1  C   UNL     1       3.166   2.677  -2.750  0.00  0.00    +0.000 C 
ATOM      2  C   UNL     1       4.605   2.157  -2.556  0.00  0.00    +0.000 C 
ATOM      3  C   UNL     1       5.683   3.130  -3.033  0.00  0.00    +0.000 C 
ATOM      4  C   UNL     1       5.505   4.562  -2.504  0.00  0.00    +0.000 C 
ATOM      5  C   UNL     1       4.082   5.056  -2.816  0.00  0.00    +0.000 C 
ATOM      6  C   UNL     1       2.994   4.126  -2.280  0.00  0.00    +0.000 C 
ENDROOT
BRANCH   1   7
ATOM      7  C   UNL     1       2.710   2.560  -4.211  0.00  0.00    +0.000 C 
BRANCH   7  10
ATOM      8  O   UNL     1       0.574   0.735  -3.920  0.00  0.00    +0.000 OA
ATOM      9  C   UNL     1       1.599   0.378  -4.490  0.00  0.00    +0.000 C 
ATOM     10  N   UNL     1       2.688   1.192  -4.645  0.00  0.00    +0.000 N 
ATOM     11  H   UNL     1       3.475   0.887  -5.206  0.00  0.00    +0.000 HD
BRANCH   9  12
ATOM     12  C   UNL     1       1.762  -0.974  -5.015  0.00  0.00    +0.000 A 
ATOM     13  C   UNL     1       1.048  -2.033  -4.478  0.00  0.00    +0.000 A 
ATOM     14  S   UNL     1       1.397  -3.527  -5.229  0.00  0.00    +0.000 S 
ATOM     15  C   UNL     1       2.487  -2.795  -6.313  0.00  0.00    +0.000 A 
ATOM     16  N   UNL     1       3.143  -3.522  -7.258  0.00  0.00    +0.000 NA
ATOM     17  C   UNL     1       3.906  -2.826  -8.033  0.00  0.00    +0.000 A 
ATOM     18  N   UNL     1       4.079  -1.472  -7.950  0.00  0.00    +0.000 N 
ATOM     19  C   UNL     1       3.507  -0.708  -6.971  0.00  0.00    +0.000 A 
ATOM     20  O   UNL     1       3.796   0.472  -6.845  0.00  0.00    +0.000 OA
ATOM     21  C   UNL     1       2.599  -1.438  -6.093  0.00  0.00    +0.000 A 
ATOM     22  H   UNL     1       4.725  -0.990  -8.557  0.00  0.00    +0.000 HD
ENDBRANCH   9  12
ENDBRANCH   7  10
ENDBRANCH   1   7
BRANCH   4  23
ATOM     23  C   UNL     1       5.828   4.714  -1.003  0.00  0.00    +0.000 C 
BRANCH  23  24
ATOM     24  N   UNL     1       7.202   4.383  -0.671  0.00  0.00    +0.000 N 
ATOM     25  C   UNL     1       8.235   5.295  -0.754  0.00  0.00    +0.000 C 
ATOM     26  O   UNL     1       8.067   6.469  -1.067  0.00  0.00    +0.000 OA
ATOM     27  H   UNL     1       7.374   3.505  -0.203  0.00  0.00    +0.000 HD
BRANCH  25  28
ATOM     28  C   UNL     1       9.600   4.701  -0.403  0.00  0.00    +0.000 C 
ATOM     29  C   UNL     1      10.696   5.773  -0.453  0.00  0.00    +0.000 C 
ATOM     30  C   UNL     1      12.085   5.163  -0.348  0.00  0.00    +0.000 C 
ATOM     31  O   UNL     1      12.275   4.171  -1.354  0.00  0.00    +0.000 OA
ATOM     32  C   UNL     1      11.374   3.080  -1.204  0.00  0.00    +0.000 C 
ATOM     33  C   UNL     1       9.933   3.542  -1.354  0.00  0.00    +0.000 C 
ENDBRANCH  25  28
ENDBRANCH  23  24
ENDBRANCH   4  23
TORSDOF 6
