REMARK  Name = 
REMARK  7 active torsions:
REMARK  status: ('A' for Active; 'I' for Inactive)
REMARK    1  A    between atoms: C_1  and  C_2
REMARK    2  A    between atoms: C_5  and  O_6
REMARK    3  A    between atoms: O_6  and  C_7
REMARK    4  A    between atoms: C_11  and  C_12
REMARK    5  A    between atoms: C_12  and  C_13
REMARK    6  A    between atoms: C_13  and  N_14
REMARK    7  A    between atoms: C_18  and  C_19
REMARK                            x       y       z     vdW  Elec       q    Type
REMARK                         _______ _______ _______ _____ _____    ______ ____
ROOT
ATOM      1  C   UNL     1       0.049   5.781   3.456  0.00  0.00    +0.000 C 
ENDROOT
BRANCH   1   6
ATOM      2  C   UNL     1       1.273   2.581   1.808  0.00  0.00    +0.000 A 
ATOM      3  C   UNL     1       0.249   2.339   0.893  0.00  0.00    +0.000 A 
ATOM      4  C   UNL     1      -0.772   3.271   0.722  0.00  0.00    +0.000 A 
ATOM      5  C   UNL     1      -0.792   4.430   1.496  0.00  0.00    +0.000 A 
ATOM      6  C   UNL     1       0.196   4.648   2.466  0.00  0.00    +0.000 A 
ATOM      7  C   UNL     1       1.239   3.718   2.611  0.00  0.00    +0.000 A 
BRANCH   2   8
ATOM      8  O   UNL     1       2.260   1.632   1.850  0.00  0.00    +0.000 OA
BRANCH   8  13
ATOM      9  C   UNL     1       3.785   4.023   0.390  0.00  0.00    +0.000 C 
ATOM     10  C   UNL     1       4.426   3.013   1.319  0.00  0.00    +0.000 C 
ATOM     11  N   UNL     1       4.931   1.824   0.586  0.00  0.00    +0.000 NA
ATOM     12  C   UNL     1       4.699   1.016   1.805  0.00  0.00    +0.000 C 
ATOM     13  C   UNL     1       3.602   2.035   2.224  0.00  0.00    +0.000 C 
ATOM     14  H   UNL     1       5.897   1.881   0.271  0.00  0.00    +0.000 HD
ENDBRANCH   8  13
ENDBRANCH   2   8
ENDBRANCH   1   6
BRANCH   1  15
ATOM     15  C   UNL     1      -0.731   5.248   4.662  0.00  0.00    +0.000 C 
BRANCH  15  16
ATOM     16  N   UNL     1      -0.862   6.240   5.718  0.00  0.00    +0.000 N 
ATOM     17  C   UNL     1      -1.565   5.848   6.854  0.00  0.00    +0.000 A 
ATOM     18  C   UNL     1      -1.507   4.565   7.414  0.00  0.00    +0.000 A 
ATOM     19  N   UNL     1      -2.168   4.182   8.536  0.00  0.00    +0.000 NA
ATOM     20  C   UNL     1      -2.895   5.171   9.119  0.00  0.00    +0.000 A 
ATOM     21  C   UNL     1      -2.957   6.452   8.593  0.00  0.00    +0.000 A 
ATOM     22  N   UNL     1      -2.304   6.809   7.452  0.00  0.00    +0.000 NA
ATOM     23  H   UNL     1      -1.230   7.148   5.437  0.00  0.00    +0.000 HD
BRANCH  20  24
ATOM     24  C   UNL     1      -3.639   4.825  10.361  0.00  0.00    +0.000 C 
ATOM     25  N   UNL     1      -3.529   3.522  10.766  0.00  0.00    +0.000 N 
ATOM     26  O   UNL     1      -4.303   5.647  10.978  0.00  0.00    +0.000 OA
ATOM     27  H   UNL     1      -2.972   2.870  10.226  0.00  0.00    +0.000 HD
ATOM     28  H   UNL     1      -4.009   3.216  11.600  0.00  0.00    +0.000 HD
ENDBRANCH  20  24
ENDBRANCH  15  16
ENDBRANCH   1  15
TORSDOF 6
