REMARK  Name = 
REMARK  3 active torsions:
REMARK  status: ('A' for Active; 'I' for Inactive)
REMARK    1  A    between atoms: C_3  and  C_4
REMARK    2  A    between atoms: C_4  and  N_5
REMARK    3  A    between atoms: C_13  and  C_14
REMARK                            x       y       z     vdW  Elec       q    Type
REMARK                         _______ _______ _______ _____ _____    ______ ____
ROOT
ATOM      1  C   UNL     1       1.536  -0.189  -0.260  0.00  0.00    +0.000 A 
ATOM      2  C   UNL     1       0.750  -1.336  -0.376  0.00  0.00    +0.000 A 
ATOM      3  C   UNL     1      -0.643  -1.227  -0.384  0.00  0.00    +0.000 A 
ATOM      4  C   UNL     1      -1.225   0.049  -0.309  0.00  0.00    +0.000 A 
ATOM      5  C   UNL     1      -0.456   1.205  -0.087  0.00  0.00    +0.000 A 
ATOM      6  C   UNL     1       0.938   1.069  -0.103  0.00  0.00    +0.000 A 
ENDROOT
BRANCH   5   7
ATOM      7  C   UNL     1      -1.188   2.455   0.400  0.00  0.00    +0.000 C 
ATOM      8  C   UNL     1      -2.288   2.978  -0.543  0.00  0.00    +0.000 C 
ATOM      9  C   UNL     1      -1.735   3.888  -1.634  0.00  0.00    +0.000 C 
ATOM     10  N   UNL     1      -0.983   5.011  -1.074  0.00  0.00    +0.000 NA
ATOM     11  C   UNL     1       0.137   4.536  -0.261  0.00  0.00    +0.000 C 
ATOM     12  C   UNL     1      -0.326   3.635   0.882  0.00  0.00    +0.000 C 
ATOM     13  H   UNL     1      -1.604   5.574  -0.491  0.00  0.00    +0.000 HD
ENDBRANCH   5   7
BRANCH   3  14
ATOM     14  C   UNL     1      -1.532  -2.442  -0.260  0.00  0.00    +0.000 C 
BRANCH  14  15
ATOM     15  N   UNL     1      -1.734  -3.127  -1.530  0.00  0.00    +0.000 N 
ATOM     16  C   UNL     1      -2.567  -4.259  -1.381  0.00  0.00    +0.000 A 
ATOM     17  C   UNL     1      -2.825  -5.040  -2.493  0.00  0.00    +0.000 A 
ATOM     18  C   UNL     1      -3.671  -6.111  -2.310  0.00  0.00    +0.000 A 
ATOM     19  N   UNL     1      -4.243  -6.419  -1.133  0.00  0.00    +0.000 NA
ATOM     20  C   UNL     1      -3.945  -5.594  -0.123  0.00  0.00    +0.000 A 
ATOM     21  N   UNL     1      -3.138  -4.531  -0.191  0.00  0.00    +0.000 NA
ATOM     22  H   UNL     1      -0.855  -3.395  -1.960  0.00  0.00    +0.000 HD
ENDBRANCH  14  15
ENDBRANCH   3  14
TORSDOF 3
