REMARK  Name = 
REMARK  6 active torsions:
REMARK  status: ('A' for Active; 'I' for Inactive)
REMARK    1  A    between atoms: C_2  and  C_3
REMARK    2  A    between atoms: C_6  and  N_7
REMARK    3  A    between atoms: N_7  and  C_8
REMARK    4  A    between atoms: C_8  and  C_9
REMARK    5  A    between atoms: C_12  and  O_13
REMARK    6  A    between atoms: O_13  and  C_14
REMARK                            x       y       z     vdW  Elec       q    Type
REMARK                         _______ _______ _______ _____ _____    ______ ____
ROOT
ATOM      1  C   UNL     1       8.668  -1.016  -0.528  0.00  0.00    +0.000 C 
ATOM      2  C   UNL     1       8.501  -2.194  -1.487  0.00  0.00    +0.000 C 
ATOM      3  C   UNL     1       8.760  -2.451  -0.041  0.00  0.00    +0.000 C 
ENDROOT
BRANCH   1   4
ATOM      4  C   UNL     1       9.974  -0.240  -0.617  0.00  0.00    +0.000 A 
ATOM      5  C   UNL     1      10.753   0.008   0.524  0.00  0.00    +0.000 A 
ATOM      6  C   UNL     1      12.049   0.516   0.417  0.00  0.00    +0.000 A 
ATOM      7  C   UNL     1      12.593   0.797  -0.836  0.00  0.00    +0.000 A 
ATOM      8  C   UNL     1      11.783   0.711  -1.963  0.00  0.00    +0.000 A 
ATOM      9  C   UNL     1      10.491   0.190  -1.852  0.00  0.00    +0.000 A 
BRANCH   7  10
ATOM     10  O   UNL     1      13.895   1.192  -0.839  0.00  0.00    +0.000 OA
BRANCH  10  11
ATOM     11  C   UNL     1      14.731   0.738  -1.900  0.00  0.00    +0.000 C 
ATOM     12  F   UNL     1      14.117  -0.051  -2.807  0.00  0.00    +0.000 F 
ATOM     13  F   UNL     1      15.240   1.812  -2.542  0.00  0.00    +0.000 F 
ATOM     14  F   UNL     1      15.760   0.035  -1.375  0.00  0.00    +0.000 F 
ENDBRANCH  10  11
ENDBRANCH   7  10
ENDBRANCH   1   4
BRANCH   1  15
ATOM     15  N   UNL     1       7.493  -0.171  -0.367  0.00  0.00    +0.000 N 
ATOM     16  H   UNL     1       7.043   0.219  -1.190  0.00  0.00    +0.000 HD
BRANCH  15  20
ATOM     17  C   UNL     1       4.840   0.109   2.744  0.00  0.00    +0.000 A 
ATOM     18  C   UNL     1       4.551   0.564   1.472  0.00  0.00    +0.000 A 
ATOM     19  N   UNL     1       5.435   0.472   0.447  0.00  0.00    +0.000 NA
ATOM     20  C   UNL     1       6.631  -0.098   0.714  0.00  0.00    +0.000 A 
ATOM     21  C   UNL     1       6.914  -0.542   2.007  0.00  0.00    +0.000 A 
ATOM     22  N   UNL     1       6.034  -0.456   3.046  0.00  0.00    +0.000 NA
BRANCH  17  24
ATOM     23  N   UNL     1       3.054   0.323   4.614  0.00  0.00    +0.000 NA
ATOM     24  C   UNL     1       3.873   0.217   3.797  0.00  0.00    +0.000 C 
ENDBRANCH  17  24
ENDBRANCH  15  20
ENDBRANCH   1  15
TORSDOF 6
