REMARK  Name = 
REMARK  7 active torsions:
REMARK  status: ('A' for Active; 'I' for Inactive)
REMARK    1  A    between atoms: N_1  and  C_2
REMARK    2  A    between atoms: C_2  and  C_3
REMARK    3  A    between atoms: C_6  and  O_7
REMARK    4  A    between atoms: O_7  and  C_8
REMARK    5  A    between atoms: C_8  and  C_9
REMARK    6  A    between atoms: C_13  and  C_14
REMARK    7  A    between atoms: C_14  and  O_16
REMARK                            x       y       z     vdW  Elec       q    Type
REMARK                         _______ _______ _______ _____ _____    ______ ____
ROOT
ATOM      1  O   UNL     1       3.893   3.673  -4.113  0.00  0.00    +0.000 OA
ENDROOT
BRANCH   1   5
ATOM      2  C   UNL     1       2.847   1.337  -0.806  0.00  0.00    +0.000 A 
ATOM      3  C   UNL     1       3.248   0.767  -2.023  0.00  0.00    +0.000 A 
ATOM      4  C   UNL     1       3.616   1.578  -3.100  0.00  0.00    +0.000 A 
ATOM      5  C   UNL     1       3.575   2.966  -2.980  0.00  0.00    +0.000 A 
ATOM      6  C   UNL     1       3.220   3.538  -1.757  0.00  0.00    +0.000 A 
ATOM      7  C   UNL     1       2.846   2.730  -0.681  0.00  0.00    +0.000 A 
BRANCH   2   8
ATOM      8  C   UNL     1       2.422   0.468   0.350  0.00  0.00    +0.000 C 
BRANCH   8   9
ATOM      9  N   UNL     1       3.506  -0.399   0.790  0.00  0.00    +0.000 NA
ATOM     10  H   UNL     1       3.217  -0.893   1.631  0.00  0.00    +0.000 HD
ATOM     11  H   UNL     1       4.302   0.180   1.053  0.00  0.00    +0.000 HD
ENDBRANCH   8   9
ENDBRANCH   2   8
ENDBRANCH   1   5
BRANCH   1  12
ATOM     12  C   UNL     1       3.387   5.010  -4.137  0.00  0.00    +0.000 C 
BRANCH  12  13
ATOM     13  C   UNL     1       3.372   5.542  -5.542  0.00  0.00    +0.000 A 
ATOM     14  C   UNL     1       2.334   6.377  -5.951  0.00  0.00    +0.000 A 
ATOM     15  N   UNL     1       2.255   6.947  -7.172  0.00  0.00    +0.000 NA
ATOM     16  C   UNL     1       3.266   6.682  -8.034  0.00  0.00    +0.000 A 
ATOM     17  C   UNL     1       4.342   5.860  -7.730  0.00  0.00    +0.000 A 
ATOM     18  C   UNL     1       4.406   5.298  -6.453  0.00  0.00    +0.000 A 
BRANCH  17  19
ATOM     19  C   UNL     1       5.381   5.671  -8.759  0.00  0.00    +0.000 C 
ATOM     20  O   UNL     1       5.613   6.504  -9.621  0.00  0.00    +0.000 OA
BRANCH  19  21
ATOM     21  O   UNL     1       6.032   4.487  -8.688  0.00  0.00    +0.000 OA
ATOM     22  H   UNL     1       5.654   3.836  -8.070  0.00  0.00    +0.000 HD
ENDBRANCH  19  21
ENDBRANCH  17  19
ENDBRANCH  12  13
ENDBRANCH   1  12
TORSDOF 7
