REMARK  Name = 
REMARK  5 active torsions:
REMARK  status: ('A' for Active; 'I' for Inactive)
REMARK    1  A    between atoms: N_5  and  C_6
REMARK    2  A    between atoms: C_6  and  C_7
REMARK    3  A    between atoms: C_10  and  C_11
REMARK    4  A    between atoms: C_11  and  N_12
REMARK    5  A    between atoms: C_13  and  C_15
REMARK                            x       y       z     vdW  Elec       q    Type
REMARK                         _______ _______ _______ _____ _____    ______ ____
ROOT
ATOM      1  C   UNL     1      10.485   1.648  -0.063  0.00  0.00    +0.000 C 
ENDROOT
BRANCH   1   5
ATOM      2  C   UNL     1       6.955  -0.679  -0.005  0.00  0.00    +0.000 A 
ATOM      3  C   UNL     1       7.219   0.126   1.093  0.00  0.00    +0.000 A 
ATOM      4  C   UNL     1       8.381   0.890   1.098  0.00  0.00    +0.000 A 
ATOM      5  C   UNL     1       9.235   0.813   0.009  0.00  0.00    +0.000 A 
ATOM      6  N   UNL     1       8.954   0.013  -1.046  0.00  0.00    +0.000 NA
ATOM      7  N   UNL     1       7.811  -0.738  -1.051  0.00  0.00    +0.000 NA
BRANCH   2   8
ATOM      8  C   UNL     1       5.687  -1.470  -0.115  0.00  0.00    +0.000 C 
BRANCH   8  13
ATOM      9  N   UNL     1       1.636   0.858  -0.806  0.00  0.00    +0.000 N 
ATOM     10  C   UNL     1       2.840   0.320  -0.963  0.00  0.00    +0.000 A 
ATOM     11  N   UNL     1       3.460   0.459  -2.165  0.00  0.00    +0.000 NA
ATOM     12  C   UNL     1       4.597  -0.178  -1.990  0.00  0.00    +0.000 A 
ATOM     13  N   UNL     1       4.640  -0.676  -0.724  0.00  0.00    +0.000 N 
ATOM     14  N   UNL     1       3.503  -0.394  -0.057  0.00  0.00    +0.000 NA
ATOM     15  H   UNL     1       1.151   1.131  -1.649  0.00  0.00    +0.000 HD
ATOM     16  H   UNL     1       1.049   0.472  -0.081  0.00  0.00    +0.000 HD
ENDBRANCH   8  13
ENDBRANCH   2   8
ENDBRANCH   1   5
BRANCH   1  17
ATOM     17  N   UNL     1      10.266   2.910  -0.729  0.00  0.00    +0.000 N 
ATOM     18  C   UNL     1       9.893   4.052  -0.073  0.00  0.00    +0.000 C 
ATOM     19  O   UNL     1       9.661   4.067   1.131  0.00  0.00    +0.000 OA
ATOM     20  H   UNL     1      10.454   2.933  -1.726  0.00  0.00    +0.000 HD
BRANCH  18  21
ATOM     21  C   UNL     1       9.774   5.258  -0.900  0.00  0.00    +0.000 A 
ATOM     22  C   UNL     1       8.950   6.300  -0.501  0.00  0.00    +0.000 A 
ATOM     23  S   UNL     1       9.001   7.649  -1.546  0.00  0.00    +0.000 S 
ATOM     24  C   UNL     1      10.168   6.906  -2.538  0.00  0.00    +0.000 A 
ATOM     25  N   UNL     1      10.725   7.571  -3.586  0.00  0.00    +0.000 NA
ATOM     26  C   UNL     1      11.603   6.891  -4.243  0.00  0.00    +0.000 A 
ATOM     27  N   UNL     1      11.954   5.596  -3.968  0.00  0.00    +0.000 N 
ATOM     28  C   UNL     1      11.376   4.866  -2.956  0.00  0.00    +0.000 A 
ATOM     29  O   UNL     1      11.620   3.672  -2.817  0.00  0.00    +0.000 OA
ATOM     30  C   UNL     1      10.443   5.612  -2.133  0.00  0.00    +0.000 A 
ATOM     31  H   UNL     1      12.603   5.098  -4.560  0.00  0.00    +0.000 HD
ENDBRANCH  18  21
ENDBRANCH   1  17
TORSDOF 5
