REMARK  Name = 
REMARK  6 active torsions:
REMARK  status: ('A' for Active; 'I' for Inactive)
REMARK    1  A    between atoms: C_2  and  C_3
REMARK    2  A    between atoms: C_6  and  N_7
REMARK    3  A    between atoms: N_7  and  C_8
REMARK    4  A    between atoms: C_8  and  C_9
REMARK    5  A    between atoms: C_14  and  N_15
REMARK    6  A    between atoms: C_18  and  O_19
REMARK                            x       y       z     vdW  Elec       q    Type
REMARK                         _______ _______ _______ _____ _____    ______ ____
ROOT
ATOM      1  C   UNL     1      10.052  -0.851  -1.056  0.00  0.00    +0.000 A 
ATOM      2  C   UNL     1      10.942  -1.908  -1.264  0.00  0.00    +0.000 A 
ATOM      3  C   UNL     1      12.258  -1.639  -1.613  0.00  0.00    +0.000 A 
ATOM      4  F   UNL     1      13.102  -2.657  -1.828  0.00  0.00    +0.000 F 
ATOM      5  C   UNL     1      12.721  -0.333  -1.750  0.00  0.00    +0.000 A 
ATOM      6  C   UNL     1      11.874   0.763  -1.540  0.00  0.00    +0.000 A 
ATOM      7  C   UNL     1      10.537   0.469  -1.186  0.00  0.00    +0.000 A 
ENDROOT
BRANCH   6   8
ATOM      8  N   UNL     1      12.333   2.065  -1.669  0.00  0.00    +0.000 N 
ATOM      9  C   UNL     1      11.768   3.162  -0.883  0.00  0.00    +0.000 C 
ATOM     10  C   UNL     1      12.885   3.847  -0.097  0.00  0.00    +0.000 C 
ATOM     11  C   UNL     1      14.045   4.270  -0.993  0.00  0.00    +0.000 C 
ATOM     12  C   UNL     1      14.544   3.117  -1.863  0.00  0.00    +0.000 C 
ATOM     13  C   UNL     1      13.401   2.431  -2.609  0.00  0.00    +0.000 C 
BRANCH  11  14
ATOM     14  O   UNL     1      13.674   5.388  -1.800  0.00  0.00    +0.000 OA
ATOM     15  H   UNL     1      12.950   5.126  -2.393  0.00  0.00    +0.000 HD
ENDBRANCH  11  14
ENDBRANCH   6   8
BRANCH   1  16
ATOM     16  C   UNL     1       8.598  -1.131  -0.735  0.00  0.00    +0.000 C 
BRANCH  16  17
ATOM     17  N   UNL     1       8.416  -1.382   0.684  0.00  0.00    +0.000 N 
ATOM     18  H   UNL     1       8.897  -0.729   1.299  0.00  0.00    +0.000 HD
BRANCH  17  22
ATOM     19  C   UNL     1       4.676  -2.021   2.276  0.00  0.00    +0.000 A 
ATOM     20  C   UNL     1       5.659  -1.314   2.943  0.00  0.00    +0.000 A 
ATOM     21  N   UNL     1       6.892  -1.076   2.411  0.00  0.00    +0.000 NA
ATOM     22  C   UNL     1       7.135  -1.580   1.180  0.00  0.00    +0.000 A 
ATOM     23  C   UNL     1       6.133  -2.309   0.531  0.00  0.00    +0.000 A 
ATOM     24  N   UNL     1       4.890  -2.534   1.041  0.00  0.00    +0.000 NA
BRANCH  19  26
ATOM     25  N   UNL     1       2.348  -2.388   3.379  0.00  0.00    +0.000 NA
ATOM     26  C   UNL     1       3.383  -2.236   2.867  0.00  0.00    +0.000 C 
ENDBRANCH  19  26
ENDBRANCH  17  22
ENDBRANCH  16  17
ENDBRANCH   1  16
TORSDOF 6
