REMARK  Name = 
REMARK  7 active torsions:
REMARK  status: ('A' for Active; 'I' for Inactive)
REMARK    1  A    between atoms: C_2  and  C_3
REMARK    2  A    between atoms: C_6  and  C_7
REMARK    3  A    between atoms: C_7  and  N_8
REMARK    4  A    between atoms: C_9  and  C_11
REMARK    5  A    between atoms: C_22  and  C_23
REMARK    6  A    between atoms: C_23  and  N_24
REMARK    7  A    between atoms: C_25  and  C_27
REMARK                            x       y       z     vdW  Elec       q    Type
REMARK                         _______ _______ _______ _____ _____    ______ ____
ROOT
ATOM      1  C   UNL     1      -0.500  -0.147   0.073  0.00  0.00    +0.000 A 
ATOM      2  C   UNL     1       0.235  -1.342   0.073  0.00  0.00    +0.000 A 
ATOM      3  C   UNL     1       1.628  -1.319   0.087  0.00  0.00    +0.000 A 
ATOM      4  C   UNL     1       2.311  -0.099   0.105  0.00  0.00    +0.000 A 
ATOM      5  C   UNL     1       1.575   1.097   0.102  0.00  0.00    +0.000 A 
ATOM      6  C   UNL     1       0.167   1.094   0.059  0.00  0.00    +0.000 A 
ENDROOT
BRANCH   1   8
ATOM      7  N   UNL     1      -3.090  -0.313   0.118  0.00  0.00    +0.000 NA
ATOM      8  C   UNL     1      -1.932  -0.237   0.094  0.00  0.00    +0.000 C 
ENDBRANCH   1   8
BRANCH   4   9
ATOM      9  C   UNL     1       3.816  -0.082   0.168  0.00  0.00    +0.000 C 
BRANCH   9  10
ATOM     10  N   UNL     1       4.279  -0.037   1.532  0.00  0.00    +0.000 N 
ATOM     11  C   UNL     1       4.680  -1.154   2.218  0.00  0.00    +0.000 C 
ATOM     12  O   UNL     1       4.686  -2.272   1.709  0.00  0.00    +0.000 OA
ATOM     13  H   UNL     1       4.088   0.820   2.041  0.00  0.00    +0.000 HD
BRANCH  11  14
ATOM     14  C   UNL     1       5.174  -0.936   3.585  0.00  0.00    +0.000 A 
ATOM     15  C   UNL     1       6.016  -1.873   4.168  0.00  0.00    +0.000 A 
ATOM     16  S   UNL     1       6.535  -1.449   5.736  0.00  0.00    +0.000 S 
ATOM     17  C   UNL     1       5.613  -0.020   5.713  0.00  0.00    +0.000 A 
ATOM     18  N   UNL     1       5.589   0.815   6.786  0.00  0.00    +0.000 NA
ATOM     19  C   UNL     1       4.831   1.846   6.646  0.00  0.00    +0.000 A 
ATOM     20  N   UNL     1       4.093   2.125   5.523  0.00  0.00    +0.000 N 
ATOM     21  C   UNL     1       4.119   1.336   4.399  0.00  0.00    +0.000 A 
ATOM     22  O   UNL     1       3.507   1.656   3.386  0.00  0.00    +0.000 OA
ATOM     23  C   UNL     1       4.939   0.145   4.516  0.00  0.00    +0.000 A 
ATOM     24  H   UNL     1       3.535   2.964   5.465  0.00  0.00    +0.000 HD
ENDBRANCH  11  14
ENDBRANCH   9  10
ENDBRANCH   4   9
BRANCH   6  25
ATOM     25  C   UNL     1      -0.565   2.416  -0.020  0.00  0.00    +0.000 C 
BRANCH  25  26
ATOM     26  N   UNL     1      -0.890   2.964   1.273  0.00  0.00    +0.000 N 
ATOM     27  C   UNL     1      -0.078   3.855   1.941  0.00  0.00    +0.000 C 
ATOM     28  O   UNL     1       0.995   4.260   1.503  0.00  0.00    +0.000 OA
ATOM     29  H   UNL     1      -1.736   2.667   1.753  0.00  0.00    +0.000 HD
BRANCH  27  30
ATOM     30  C   UNL     1      -0.697   4.373   3.253  0.00  0.00    +0.000 C 
ATOM     31  C   UNL     1       0.351   4.714   4.304  0.00  0.00    +0.000 C 
ATOM     32  C   UNL     1      -0.331   4.342   5.597  0.00  0.00    +0.000 C 
ATOM     33  C   UNL     1      -1.173   3.158   5.183  0.00  0.00    +0.000 C 
ATOM     34  O   UNL     1      -1.597   3.415   3.840  0.00  0.00    +0.000 OA
ENDBRANCH  27  30
ENDBRANCH  25  26
ENDBRANCH   6  25
TORSDOF 7
