REMARK  Name = 
REMARK  6 active torsions:
REMARK  status: ('A' for Active; 'I' for Inactive)
REMARK    1  A    between atoms: C_1  and  C_2
REMARK    2  A    between atoms: C_2  and  N_3
REMARK    3  A    between atoms: C_2  and  C_16
REMARK    4  A    between atoms: C_4  and  C_6
REMARK    5  A    between atoms: C_19  and  O_20
REMARK    6  A    between atoms: O_20  and  C_21
REMARK                            x       y       z     vdW  Elec       q    Type
REMARK                         _______ _______ _______ _____ _____    ______ ____
ROOT
ATOM      1  C   UNL     1       2.995  -1.528  -0.160  0.00  0.00    +0.000 C 
ATOM      2  C   UNL     1       2.524  -0.071  -0.090  0.00  0.00    +0.000 C 
ENDROOT
BRANCH   2   3
ATOM      3  C   UNL     1       2.979   0.803  -1.247  0.00  0.00    +0.000 A 
ATOM      4  C   UNL     1       3.182   2.171  -1.003  0.00  0.00    +0.000 A 
ATOM      5  C   UNL     1       3.557   3.037  -2.030  0.00  0.00    +0.000 A 
ATOM      6  C   UNL     1       3.779   2.549  -3.318  0.00  0.00    +0.000 A 
ATOM      7  C   UNL     1       3.547   1.199  -3.585  0.00  0.00    +0.000 A 
ATOM      8  C   UNL     1       3.144   0.334  -2.559  0.00  0.00    +0.000 A 
BRANCH   6   9
ATOM      9  O   UNL     1       4.147   3.344  -4.381  0.00  0.00    +0.000 OA
BRANCH   9  10
ATOM     10  C   UNL     1       5.040   4.383  -4.141  0.00  0.00    +0.000 A 
ATOM     11  C   UNL     1       4.999   5.461  -5.014  0.00  0.00    +0.000 A 
ATOM     12  C   UNL     1       5.871   6.524  -4.790  0.00  0.00    +0.000 A 
ATOM     13  C   UNL     1       6.747   6.474  -3.710  0.00  0.00    +0.000 A 
ATOM     14  C   UNL     1       6.727   5.349  -2.903  0.00  0.00    +0.000 A 
ATOM     15  N   UNL     1       5.910   4.297  -3.109  0.00  0.00    +0.000 NA
ENDBRANCH   9  10
ENDBRANCH   6   9
ENDBRANCH   2   3
BRANCH   2  16
ATOM     16  N   UNL     1       1.079  -0.002   0.014  0.00  0.00    +0.000 N 
ATOM     17  C   UNL     1       0.421  -0.155   1.206  0.00  0.00    +0.000 C 
ATOM     18  O   UNL     1       1.013  -0.289   2.274  0.00  0.00    +0.000 OA
ATOM     19  H   UNL     1       0.557  -0.035  -0.855  0.00  0.00    +0.000 HD
BRANCH  17  20
ATOM     20  C   UNL     1      -1.042  -0.090   1.152  0.00  0.00    +0.000 A 
ATOM     21  C   UNL     1      -1.754   0.367   2.252  0.00  0.00    +0.000 A 
ATOM     22  S   UNL     1      -3.442   0.380   2.014  0.00  0.00    +0.000 S 
ATOM     23  C   UNL     1      -3.281  -0.271   0.450  0.00  0.00    +0.000 A 
ATOM     24  N   UNL     1      -4.375  -0.555  -0.306  0.00  0.00    +0.000 NA
ATOM     25  C   UNL     1      -4.108  -1.088  -1.451  0.00  0.00    +0.000 A 
ATOM     26  N   UNL     1      -2.844  -1.348  -1.917  0.00  0.00    +0.000 N 
ATOM     27  C   UNL     1      -1.708  -1.023  -1.213  0.00  0.00    +0.000 A 
ATOM     28  O   UNL     1      -0.591  -1.177  -1.699  0.00  0.00    +0.000 OA
ATOM     29  C   UNL     1      -1.954  -0.464   0.100  0.00  0.00    +0.000 A 
ATOM     30  H   UNL     1      -2.705  -1.739  -2.836  0.00  0.00    +0.000 HD
ENDBRANCH  17  20
ENDBRANCH   2  16
TORSDOF 5
