REMARK  Name = 
REMARK  6 active torsions:
REMARK  status: ('A' for Active; 'I' for Inactive)
REMARK    1  A    between atoms: C_2  and  C_4
REMARK    2  A    between atoms: N_8  and  C_9
REMARK    3  A    between atoms: C_9  and  C_10
REMARK    4  A    between atoms: C_10  and  C_13
REMARK    5  A    between atoms: C_17  and  O_18
REMARK    6  A    between atoms: O_18  and  C_19
REMARK                            x       y       z     vdW  Elec       q    Type
REMARK                         _______ _______ _______ _____ _____    ______ ____
ROOT
ATOM      1  C   UNL     1       6.275   2.997   6.407  0.00  0.00    +0.000 C 
ATOM      2  F   UNL     1       7.488   2.481   6.043  0.00  0.00    +0.000 F 
ATOM      3  F   UNL     1       6.355   4.333   6.131  0.00  0.00    +0.000 F 
ENDROOT
BRANCH   1   4
ATOM      4  C   UNL     1       5.963   2.745   7.871  0.00  0.00    +0.000 A 
ATOM      5  C   UNL     1       6.437   1.600   8.522  0.00  0.00    +0.000 A 
ATOM      6  C   UNL     1       6.136   1.378   9.868  0.00  0.00    +0.000 A 
ATOM      7  C   UNL     1       5.351   2.290  10.579  0.00  0.00    +0.000 A 
ATOM      8  C   UNL     1       4.863   3.427   9.939  0.00  0.00    +0.000 A 
ATOM      9  C   UNL     1       5.174   3.654   8.596  0.00  0.00    +0.000 A 
BRANCH   8  10
ATOM     10  O   UNL     1       4.108   4.404  10.536  0.00  0.00    +0.000 OA
BRANCH  10  11
ATOM     11  C   UNL     1       3.348   4.084  11.725  0.00  0.00    +0.000 C 
ATOM     12  C   UNL     1       2.133   3.147  11.572  0.00  0.00    +0.000 C 
ATOM     13  N   UNL     1       1.261   4.139  12.217  0.00  0.00    +0.000 NA
ATOM     14  C   UNL     1       2.318   5.156  12.140  0.00  0.00    +0.000 C 
ATOM     15  H   UNL     1       0.983   3.900  13.168  0.00  0.00    +0.000 HD
ENDBRANCH  10  11
ENDBRANCH   8  10
ENDBRANCH   1   4
BRANCH   1  16
ATOM     16  C   UNL     1       5.187   2.360   5.504  0.00  0.00    +0.000 C 
BRANCH  16  21
ATOM     17  C   UNL     1       2.924   1.114   1.110  0.00  0.00    +0.000 A 
ATOM     18  C   UNL     1       2.363   1.367   2.356  0.00  0.00    +0.000 A 
ATOM     19  C   UNL     1       3.173   1.865   3.376  0.00  0.00    +0.000 A 
ATOM     20  C   UNL     1       4.529   2.083   3.143  0.00  0.00    +0.000 A 
ATOM     21  N   UNL     1       5.369   2.657   4.076  0.00  0.00    +0.000 N 
ATOM     22  N   UNL     1       5.089   1.806   1.949  0.00  0.00    +0.000 NA
ATOM     23  C   UNL     1       4.285   1.327   0.962  0.00  0.00    +0.000 A 
ATOM     24  H   UNL     1       6.327   2.600   3.732  0.00  0.00    +0.000 HD
BRANCH  17  26
ATOM     25  N   UNL     1       0.801   0.952  -0.053  0.00  0.00    +0.000 N 
ATOM     26  C   UNL     1       2.132   0.635  -0.040  0.00  0.00    +0.000 C 
ATOM     27  O   UNL     1       2.648   0.014  -0.958  0.00  0.00    +0.000 OA
ATOM     28  H   UNL     1       0.295   0.715  -0.898  0.00  0.00    +0.000 HD
ATOM     29  H   UNL     1       0.403   1.666   0.540  0.00  0.00    +0.000 HD
ENDBRANCH  17  26
ENDBRANCH  16  21
ENDBRANCH   1  16
TORSDOF 6
