REMARK  Name = 
REMARK  8 active torsions:
REMARK  status: ('A' for Active; 'I' for Inactive)
REMARK    1  A    between atoms: N_1  and  C_2
REMARK    2  A    between atoms: C_2  and  C_3
REMARK    3  A    between atoms: C_3  and  O_4
REMARK    4  A    between atoms: O_4  and  C_5
REMARK    5  A    between atoms: C_8  and  C_9
REMARK    6  A    between atoms: C_9  and  N_10
REMARK    7  A    between atoms: C_15  and  C_16
REMARK    8  A    between atoms: C_16  and  O_18
REMARK                            x       y       z     vdW  Elec       q    Type
REMARK                         _______ _______ _______ _____ _____    ______ ____
ROOT
ATOM      1  C   UNL     1       7.579   4.332   4.454  0.00  0.00    +0.000 C 
ENDROOT
BRANCH   1   2
ATOM      2  N   UNL     1       8.802   3.936   5.193  0.00  0.00    +0.000 N 
ATOM      3  C   UNL     1       9.657   4.855   5.825  0.00  0.00    +0.000 A 
ATOM      4  N   UNL     1      10.204   4.138   6.743  0.00  0.00    +0.000 NA
ATOM      5  C   UNL     1      10.522   3.196   5.852  0.00  0.00    +0.000 A 
ATOM      6  C   UNL     1      11.830   3.081   5.321  0.00  0.00    +0.000 A 
ATOM      7  C   UNL     1      12.234   1.853   4.911  0.00  0.00    +0.000 A 
ATOM      8  C   UNL     1      11.229   0.916   4.866  0.00  0.00    +0.000 A 
ATOM      9  C   UNL     1       9.861   1.322   5.078  0.00  0.00    +0.000 A 
ATOM     10  C   UNL     1       9.308   2.637   5.134  0.00  0.00    +0.000 A 
BRANCH   7  11
ATOM     11  C   UNL     1      13.670   1.509   4.763  0.00  0.00    +0.000 C 
ATOM     12  O   UNL     1      14.050   0.693   3.940  0.00  0.00    +0.000 OA
BRANCH  11  13
ATOM     13  O   UNL     1      14.530   2.112   5.617  0.00  0.00    +0.000 OA
ATOM     14  H   UNL     1      14.176   2.652   6.343  0.00  0.00    +0.000 HD
ENDBRANCH  11  13
ENDBRANCH   7  11
ENDBRANCH   1   2
BRANCH   1  18
ATOM     15  C   UNL     1       4.988   1.887   1.842  0.00  0.00    +0.000 A 
ATOM     16  C   UNL     1       4.593   2.053   3.175  0.00  0.00    +0.000 A 
ATOM     17  C   UNL     1       5.368   2.813   4.113  0.00  0.00    +0.000 A 
ATOM     18  C   UNL     1       6.557   3.443   3.716  0.00  0.00    +0.000 A 
ATOM     19  C   UNL     1       6.974   3.141   2.394  0.00  0.00    +0.000 A 
ATOM     20  C   UNL     1       6.190   2.455   1.455  0.00  0.00    +0.000 A 
BRANCH  15  21
ATOM     21  O   UNL     1       4.364   1.104   0.902  0.00  0.00    +0.000 OA
BRANCH  21  22
ATOM     22  C   UNL     1       2.949   0.938   1.047  0.00  0.00    +0.000 C 
BRANCH  22  23
ATOM     23  C   UNL     1       2.395   0.040  -0.073  0.00  0.00    +0.000 C 
BRANCH  23  24
ATOM     24  N   UNL     1       0.946  -0.140   0.059  0.00  0.00    +0.000 NA
ATOM     25  H   UNL     1       0.599  -0.709  -0.712  0.00  0.00    +0.000 HD
ATOM     26  H   UNL     1       0.481   0.764  -0.025  0.00  0.00    +0.000 HD
ENDBRANCH  23  24
ENDBRANCH  22  23
ENDBRANCH  21  22
ENDBRANCH  15  21
ENDBRANCH   1  18
TORSDOF 8
