REMARK  Name = 
REMARK  8 active torsions:
REMARK  status: ('A' for Active; 'I' for Inactive)
REMARK    1  A    between atoms: C_1  and  O_2
REMARK    2  A    between atoms: O_2  and  C_3
REMARK    3  A    between atoms: C_10  and  C_11
REMARK    4  A    between atoms: N_13  and  C_14
REMARK    5  A    between atoms: C_14  and  C_15
REMARK    6  A    between atoms: C_18  and  N_19
REMARK    7  A    between atoms: N_19  and  C_20
REMARK    8  A    between atoms: C_20  and  C_21
REMARK                            x       y       z     vdW  Elec       q    Type
REMARK                         _______ _______ _______ _____ _____    ______ ____
ROOT
ATOM      1  C   UNL     1       3.289  -3.083   0.897  0.00  0.00    +0.000 C 
ENDROOT
BRANCH   1   2
ATOM      2  C   UNL     1       2.288  -2.754   1.975  0.00  0.00    +0.000 A 
ATOM      3  C   UNL     1       1.490  -3.756   2.544  0.00  0.00    +0.000 A 
ATOM      4  C   UNL     1       0.590  -3.457   3.577  0.00  0.00    +0.000 A 
ATOM      5  C   UNL     1       0.466  -2.153   4.062  0.00  0.00    +0.000 A 
ATOM      6  C   UNL     1       1.196  -1.143   3.425  0.00  0.00    +0.000 A 
ATOM      7  C   UNL     1       2.108  -1.436   2.406  0.00  0.00    +0.000 A 
BRANCH   5   8
ATOM      8  N   UNL     1      -0.369  -1.781   5.111  0.00  0.00    +0.000 N 
ATOM      9  H   UNL     1      -1.198  -1.285   4.789  0.00  0.00    +0.000 HD
BRANCH   8  10
ATOM     10  C   UNL     1      -0.687  -2.740   6.170  0.00  0.00    +0.000 C 
BRANCH  10  11
ATOM     11  C   UNL     1      -0.985  -1.993   7.461  0.00  0.00    +0.000 A 
ATOM     12  C   UNL     1      -0.031  -1.116   7.984  0.00  0.00    +0.000 A 
ATOM     13  C   UNL     1      -0.310  -0.434   9.163  0.00  0.00    +0.000 A 
ATOM     14  C   UNL     1      -1.527  -0.648   9.796  0.00  0.00    +0.000 A 
ATOM     15  C   UNL     1      -2.417  -1.539   9.219  0.00  0.00    +0.000 A 
ATOM     16  N   UNL     1      -2.178  -2.213   8.070  0.00  0.00    +0.000 NA
ENDBRANCH  10  11
ENDBRANCH   8  10
ENDBRANCH   5   8
ENDBRANCH   1   2
BRANCH   1  19
ATOM     17  C   UNL     1       3.390  -3.272  -1.555  0.00  0.00    +0.000 C 
ATOM     18  O   UNL     1       4.568  -3.615  -1.516  0.00  0.00    +0.000 OA
ATOM     19  N   UNL     1       2.692  -2.995  -0.410  0.00  0.00    +0.000 N 
ATOM     20  H   UNL     1       1.715  -2.743  -0.459  0.00  0.00    +0.000 HD
BRANCH  17  28
ATOM     21  C   UNL     1       0.151  -2.427  -2.377  0.00  0.00    +0.000 A 
ATOM     22  N   UNL     1      -1.007  -2.077  -2.974  0.00  0.00    +0.000 NA
ATOM     23  C   UNL     1      -1.045  -2.057  -4.309  0.00  0.00    +0.000 A 
ATOM     24  N   UNL     1      -0.054  -2.356  -5.144  0.00  0.00    +0.000 NA
ATOM     25  C   UNL     1       1.083  -2.692  -4.511  0.00  0.00    +0.000 A 
ATOM     26  S   UNL     1       2.452  -3.115  -5.420  0.00  0.00    +0.000 S 
ATOM     27  C   UNL     1       3.371  -3.361  -4.013  0.00  0.00    +0.000 A 
ATOM     28  C   UNL     1       2.673  -3.126  -2.834  0.00  0.00    +0.000 A 
ATOM     29  C   UNL     1       1.292  -2.747  -3.136  0.00  0.00    +0.000 A 
BRANCH  21  31
ATOM     30  C   UNL     1      -1.017  -2.070  -0.363  0.00  0.00    +0.000 C 
ATOM     31  O   UNL     1       0.186  -2.492  -1.000  0.00  0.00    +0.000 OA
ENDBRANCH  21  31
ENDBRANCH  17  28
ENDBRANCH   1  19
TORSDOF 7
