REMARK  Name = 
REMARK  6 active torsions:
REMARK  status: ('A' for Active; 'I' for Inactive)
REMARK    1  A    between atoms: C_1  and  O_2
REMARK    2  A    between atoms: O_2  and  C_3
REMARK    3  A    between atoms: C_7  and  N_8
REMARK    4  A    between atoms: N_8  and  C_9
REMARK    5  A    between atoms: C_9  and  C_10
REMARK    6  A    between atoms: C_14  and  C_15
REMARK                            x       y       z     vdW  Elec       q    Type
REMARK                         _______ _______ _______ _____ _____    ______ ____
ROOT
ATOM      1  C   UNL     1       1.984  -4.856   4.528  0.00  0.00    +0.000 A 
ATOM      2  C   UNL     1       1.168  -5.951   4.222  0.00  0.00    +0.000 A 
ATOM      3  C   UNL     1       1.171  -7.076   5.041  0.00  0.00    +0.000 A 
ATOM      4  C   UNL     1       1.986  -7.116   6.175  0.00  0.00    +0.000 A 
ATOM      5  C   UNL     1       2.812  -6.032   6.520  0.00  0.00    +0.000 A 
ATOM      6  C   UNL     1       2.779  -4.899   5.686  0.00  0.00    +0.000 A 
ENDROOT
BRANCH   5   7
ATOM      7  C   UNL     1       3.713  -6.094   7.688  0.00  0.00    +0.000 A 
ATOM      8  C   UNL     1       4.441  -7.251   7.998  0.00  0.00    +0.000 A 
ATOM      9  N   UNL     1       5.305  -7.381   9.037  0.00  0.00    +0.000 NA
ATOM     10  C   UNL     1       5.468  -6.290   9.817  0.00  0.00    +0.000 A 
ATOM     11  C   UNL     1       4.806  -5.097   9.601  0.00  0.00    +0.000 A 
ATOM     12  F   UNL     1       5.014  -4.046  10.405  0.00  0.00    +0.000 F 
ATOM     13  C   UNL     1       3.920  -4.996   8.535  0.00  0.00    +0.000 A 
ENDBRANCH   5   7
BRANCH   1  14
ATOM     14  C   UNL     1       2.042  -3.663   3.604  0.00  0.00    +0.000 C 
BRANCH  14  15
ATOM     15  N   UNL     1       0.932  -2.760   3.863  0.00  0.00    +0.000 N 
ATOM     16  H   UNL     1       0.718  -2.647   4.852  0.00  0.00    +0.000 HD
BRANCH  15  21
ATOM     17  C   UNL     1       1.364  -0.100   1.273  0.00  0.00    +0.000 A 
ATOM     18  C   UNL     1       0.342   0.737   1.700  0.00  0.00    +0.000 A 
ATOM     19  N   UNL     1      -0.448   0.492   2.769  0.00  0.00    +0.000 NA
ATOM     20  C   UNL     1      -0.193  -0.656   3.446  0.00  0.00    +0.000 A 
ATOM     21  C   UNL     1       0.819  -1.570   3.138  0.00  0.00    +0.000 A 
ATOM     22  C   UNL     1       1.583  -1.272   2.002  0.00  0.00    +0.000 A 
BRANCH  17  24
ATOM     23  C   UNL     1       3.120  -0.531  -0.269  0.00  0.00    +0.000 C 
ATOM     24  O   UNL     1       2.057   0.307   0.169  0.00  0.00    +0.000 OA
ENDBRANCH  17  24
ENDBRANCH  15  21
ENDBRANCH  14  15
ENDBRANCH   1  14
TORSDOF 5
