REMARK  Name = 
REMARK  4 active torsions:
REMARK  status: ('A' for Active; 'I' for Inactive)
REMARK    1  A    between atoms: N_1  and  C_2
REMARK    2  A    between atoms: C_2  and  C_3
REMARK    3  A    between atoms: C_7  and  C_8
REMARK    4  A    between atoms: C_8  and  N_9
REMARK                            x       y       z     vdW  Elec       q    Type
REMARK                         _______ _______ _______ _____ _____    ______ ____
ROOT
ATOM      1  C   UNL     1       1.941  -2.281  -1.430  0.00  0.00    +0.000 A 
ATOM      2  C   UNL     1       2.396  -2.280  -0.117  0.00  0.00    +0.000 A 
ATOM      3  N   UNL     1       3.685  -2.470   0.242  0.00  0.00    +0.000 NA
ATOM      4  C   UNL     1       4.574  -2.654  -0.759  0.00  0.00    +0.000 A 
ATOM      5  C   UNL     1       4.239  -2.682  -2.109  0.00  0.00    +0.000 A 
ATOM      6  C   UNL     1       2.891  -2.498  -2.435  0.00  0.00    +0.000 A 
ENDROOT
BRANCH   1   7
ATOM      7  C   UNL     1       0.500  -2.011  -1.756  0.00  0.00    +0.000 C 
BRANCH   7   8
ATOM      8  N   UNL     1      -0.135  -3.145  -2.417  0.00  0.00    +0.000 NA
ATOM      9  H   UNL     1      -1.106  -2.908  -2.618  0.00  0.00    +0.000 HD
ATOM     10  H   UNL     1      -0.165  -3.932  -1.770  0.00  0.00    +0.000 HD
ENDBRANCH   7   8
ENDBRANCH   1   7
BRANCH   5  11
ATOM     11  C   UNL     1       5.292  -2.882  -3.161  0.00  0.00    +0.000 C 
BRANCH  11  12
ATOM     12  N   UNL     1       5.875  -1.618  -3.607  0.00  0.00    +0.000 N 
ATOM     13  C   UNL     1       6.968  -1.025  -3.022  0.00  0.00    +0.000 A 
ATOM     14  C   UNL     1       7.294   0.092  -3.757  0.00  0.00    +0.000 A 
ATOM     15  C   UNL     1       6.377   0.178  -4.838  0.00  0.00    +0.000 A 
ATOM     16  C   UNL     1       6.229   1.078  -5.913  0.00  0.00    +0.000 A 
ATOM     17  C   UNL     1       5.203   0.880  -6.842  0.00  0.00    +0.000 A 
ATOM     18  C   UNL     1       4.326  -0.192  -6.707  0.00  0.00    +0.000 A 
ATOM     19  C   UNL     1       4.453  -1.098  -5.649  0.00  0.00    +0.000 A 
ATOM     20  C   UNL     1       5.491  -0.899  -4.724  0.00  0.00    +0.000 A 
ENDBRANCH  11  12
ENDBRANCH   5  11
TORSDOF 4
