REMARK  Name = 
REMARK  5 active torsions:
REMARK  status: ('A' for Active; 'I' for Inactive)
REMARK    1  A    between atoms: C_2  and  C_4
REMARK    2  A    between atoms: N_8  and  C_9
REMARK    3  A    between atoms: C_9  and  C_10
REMARK    4  A    between atoms: C_10  and  C_13
REMARK    5  A    between atoms: C_15  and  C_16
REMARK                            x       y       z     vdW  Elec       q    Type
REMARK                         _______ _______ _______ _____ _____    ______ ____
ROOT
ATOM      1  C   UNL     1       6.688  -4.829   4.834  0.00  0.00    +0.000 C 
ATOM      2  F   UNL     1       7.872  -4.663   4.174  0.00  0.00    +0.000 F 
ATOM      3  F   UNL     1       6.794  -4.042   5.949  0.00  0.00    +0.000 F 
ENDROOT
BRANCH   1   4
ATOM      4  C   UNL     1       6.442  -6.281   5.183  0.00  0.00    +0.000 A 
ATOM      5  C   UNL     1       6.278  -6.699   6.517  0.00  0.00    +0.000 A 
ATOM      6  C   UNL     1       6.025  -8.049   6.844  0.00  0.00    +0.000 A 
ATOM      7  C   UNL     1       5.925  -8.970   5.787  0.00  0.00    +0.000 A 
ATOM      8  C   UNL     1       6.089  -8.570   4.462  0.00  0.00    +0.000 A 
ATOM      9  C   UNL     1       6.356  -7.238   4.176  0.00  0.00    +0.000 A 
ATOM     10  F   UNL     1       6.499  -6.882   2.892  0.00  0.00    +0.000 F 
BRANCH   6  11
ATOM     11  C   UNL     1       5.846  -8.469   8.249  0.00  0.00    +0.000 A 
ATOM     12  C   UNL     1       6.218  -9.733   8.711  0.00  0.00    +0.000 A 
ATOM     13  C   UNL     1       5.971 -10.074  10.039  0.00  0.00    +0.000 A 
ATOM     14  C   UNL     1       5.370  -9.146  10.876  0.00  0.00    +0.000 A 
ATOM     15  C   UNL     1       5.048  -7.907  10.352  0.00  0.00    +0.000 A 
ATOM     16  N   UNL     1       5.272  -7.552   9.067  0.00  0.00    +0.000 NA
ENDBRANCH   6  11
ENDBRANCH   1   4
BRANCH   1  17
ATOM     17  C   UNL     1       5.542  -4.267   3.955  0.00  0.00    +0.000 C 
BRANCH  17  22
ATOM     18  C   UNL     1       3.075  -0.613   1.321  0.00  0.00    +0.000 A 
ATOM     19  C   UNL     1       2.772  -1.952   1.537  0.00  0.00    +0.000 A 
ATOM     20  C   UNL     1       3.635  -2.724   2.316  0.00  0.00    +0.000 A 
ATOM     21  C   UNL     1       4.790  -2.157   2.850  0.00  0.00    +0.000 A 
ATOM     22  N   UNL     1       5.673  -2.851   3.629  0.00  0.00    +0.000 N 
ATOM     23  N   UNL     1       5.094  -0.863   2.636  0.00  0.00    +0.000 NA
ATOM     24  C   UNL     1       4.243  -0.120   1.881  0.00  0.00    +0.000 A 
ATOM     25  H   UNL     1       6.527  -2.352   3.857  0.00  0.00    +0.000 HD
BRANCH  18  27
ATOM     26  N   UNL     1       0.898  -0.021   0.425  0.00  0.00    +0.000 N 
ATOM     27  C   UNL     1       2.231   0.274   0.498  0.00  0.00    +0.000 C 
ATOM     28  O   UNL     1       2.697   1.249  -0.077  0.00  0.00    +0.000 OA
ATOM     29  H   UNL     1       0.317   0.646  -0.069  0.00  0.00    +0.000 HD
ATOM     30  H   UNL     1       0.442  -0.646   1.074  0.00  0.00    +0.000 HD
ENDBRANCH  18  27
ENDBRANCH  17  22
ENDBRANCH   1  17
TORSDOF 5
