REMARK  Name = 
REMARK  5 active torsions:
REMARK  status: ('A' for Active; 'I' for Inactive)
REMARK    1  A    between atoms: C_1  and  N_2
REMARK    2  A    between atoms: C_3  and  C_5
REMARK    3  A    between atoms: C_8  and  N_9
REMARK    4  A    between atoms: N_9  and  C_10
REMARK    5  A    between atoms: C_10  and  C_11
REMARK                            x       y       z     vdW  Elec       q    Type
REMARK                         _______ _______ _______ _____ _____    ______ ____
ROOT
ATOM      1  C   UNL     1       4.630   0.550   1.192  0.00  0.00    +0.000 A 
ATOM      2  C   UNL     1       5.284   0.898   0.017  0.00  0.00    +0.000 A 
ATOM      3  C   UNL     1       6.683   0.845  -0.013  0.00  0.00    +0.000 A 
ATOM      4  C   UNL     1       7.403   0.473   1.130  0.00  0.00    +0.000 A 
ATOM      5  C   UNL     1       6.637   0.154   2.250  0.00  0.00    +0.000 A 
ATOM      6  N   UNL     1       5.281   0.179   2.324  0.00  0.00    +0.000 NA
ENDROOT
BRANCH   1   9
ATOM      7  C   UNL     1       1.147   0.174   2.653  0.00  0.00    +0.000 C 
ATOM      8  N   UNL     1       2.573   0.204   2.476  0.00  0.00    +0.000 N 
ATOM      9  C   UNL     1       3.133   0.555   1.266  0.00  0.00    +0.000 C 
ATOM     10  O   UNL     1       2.453   0.871   0.280  0.00  0.00    +0.000 OA
ATOM     11  H   UNL     1       3.182   0.177   3.288  0.00  0.00    +0.000 HD
ENDBRANCH   1   9
BRANCH   4  12
ATOM     12  N   UNL     1       8.794   0.359   1.092  0.00  0.00    +0.000 N 
ATOM     13  H   UNL     1       9.113  -0.464   0.574  0.00  0.00    +0.000 HD
BRANCH  12  14
ATOM     14  C   UNL     1       9.571   0.587   2.312  0.00  0.00    +0.000 C 
BRANCH  14  15
ATOM     15  C   UNL     1      10.959   1.042   1.924  0.00  0.00    +0.000 A 
ATOM     16  C   UNL     1      11.139   2.204   1.157  0.00  0.00    +0.000 A 
ATOM     17  C   UNL     1      12.421   2.637   0.814  0.00  0.00    +0.000 A 
ATOM     18  C   UNL     1      13.536   1.920   1.242  0.00  0.00    +0.000 A 
ATOM     19  C   UNL     1      13.372   0.764   2.004  0.00  0.00    +0.000 A 
ATOM     20  C   UNL     1      12.090   0.326   2.342  0.00  0.00    +0.000 A 
ENDBRANCH  14  15
ENDBRANCH  12  14
ENDBRANCH   4  12
TORSDOF 4
