REMARK  Name = 
REMARK  7 active torsions:
REMARK  status: ('A' for Active; 'I' for Inactive)
REMARK    1  A    between atoms: C_1  and  C_2
REMARK    2  A    between atoms: C_2  and  N_3
REMARK    3  A    between atoms: C_2  and  C_21
REMARK    4  A    between atoms: C_4  and  C_6
REMARK    5  A    between atoms: C_9  and  C_10
REMARK    6  A    between atoms: C_10  and  N_11
REMARK    7  A    between atoms: C_12  and  C_14
REMARK                            x       y       z     vdW  Elec       q    Type
REMARK                         _______ _______ _______ _____ _____    ______ ____
ROOT
ATOM      1  N   UNL     1       0.833  -0.445   0.728  0.00  0.00    +0.000 N 
ATOM      2  C   UNL     1       0.222   0.762   0.995  0.00  0.00    +0.000 C 
ATOM      3  O   UNL     1       0.830   1.774   1.321  0.00  0.00    +0.000 OA
ATOM      4  H   UNL     1       0.315  -1.129   0.182  0.00  0.00    +0.000 HD
ENDROOT
BRANCH   2   5
ATOM      5  C   UNL     1      -1.264   0.790   0.844  0.00  0.00    +0.000 A 
ATOM      6  C   UNL     1      -2.047  -0.355   1.036  0.00  0.00    +0.000 A 
ATOM      7  C   UNL     1      -3.438  -0.293   0.899  0.00  0.00    +0.000 A 
ATOM      8  C   UNL     1      -4.071   0.912   0.561  0.00  0.00    +0.000 A 
ATOM      9  C   UNL     1      -3.286   2.064   0.406  0.00  0.00    +0.000 A 
ATOM     10  C   UNL     1      -1.894   2.005   0.548  0.00  0.00    +0.000 A 
BRANCH   8  11
ATOM     11  C   UNL     1      -5.565   0.968   0.379  0.00  0.00    +0.000 C 
BRANCH  11  12
ATOM     12  N   UNL     1      -6.262   1.275   1.596  0.00  0.00    +0.000 N 
ATOM     13  C   UNL     1      -7.636   1.385   1.624  0.00  0.00    +0.000 C 
ATOM     14  O   UNL     1      -8.346   1.245   0.632  0.00  0.00    +0.000 OA
ATOM     15  H   UNL     1      -5.769   1.407   2.476  0.00  0.00    +0.000 HD
BRANCH  13  16
ATOM     16  C   UNL     1      -8.163   1.687   2.954  0.00  0.00    +0.000 A 
ATOM     17  C   UNL     1      -9.490   1.873   3.293  0.00  0.00    +0.000 A 
ATOM     18  N   UNL     1      -9.495   2.128   4.635  0.00  0.00    +0.000 N 
ATOM     19  C   UNL     1      -8.199   2.086   5.068  0.00  0.00    +0.000 A 
ATOM     20  N   UNL     1      -7.370   1.827   4.085  0.00  0.00    +0.000 NA
ATOM     21  H   UNL     1     -10.307   2.313   5.211  0.00  0.00    +0.000 HD
ENDBRANCH  13  16
ENDBRANCH  11  12
ENDBRANCH   8  11
ENDBRANCH   2   5
BRANCH   1  23
ATOM     22  C   UNL     1       2.606  -2.048   1.213  0.00  0.00    +0.000 C 
ATOM     23  C   UNL     1       2.273  -0.628   0.768  0.00  0.00    +0.000 C 
BRANCH  23  24
ATOM     24  C   UNL     1       2.901  -0.278  -0.567  0.00  0.00    +0.000 A 
ATOM     25  C   UNL     1       4.197   0.205  -0.675  0.00  0.00    +0.000 A 
ATOM     26  S   UNL     1       4.605   0.700  -2.258  0.00  0.00    +0.000 S 
ATOM     27  C   UNL     1       3.065   0.277  -2.848  0.00  0.00    +0.000 A 
ATOM     28  N   UNL     1       2.692   0.558  -4.125  0.00  0.00    +0.000 NA
ATOM     29  C   UNL     1       1.490   0.185  -4.419  0.00  0.00    +0.000 A 
ATOM     30  N   UNL     1       0.650  -0.496  -3.573  0.00  0.00    +0.000 N 
ATOM     31  C   UNL     1       1.018  -0.875  -2.303  0.00  0.00    +0.000 A 
ATOM     32  O   UNL     1       0.315  -1.619  -1.622  0.00  0.00    +0.000 OA
ATOM     33  C   UNL     1       2.301  -0.347  -1.879  0.00  0.00    +0.000 A 
ATOM     34  H   UNL     1      -0.249  -0.819  -3.893  0.00  0.00    +0.000 HD
ENDBRANCH  23  24
ENDBRANCH   1  23
TORSDOF 6
