REMARK  Name = 
REMARK  9 active torsions:
REMARK  status: ('A' for Active; 'I' for Inactive)
REMARK    1  A    between atoms: N_1  and  C_2
REMARK    2  A    between atoms: C_2  and  C_3
REMARK    3  A    between atoms: C_3  and  N_4
REMARK    4  A    between atoms: N_4  and  C_5
REMARK    5  A    between atoms: C_5  and  C_6
REMARK    6  A    between atoms: C_5  and  C_20
REMARK    7  A    between atoms: C_6  and  C_7
REMARK    8  A    between atoms: C_10  and  C_11
REMARK    9  A    between atoms: C_11  and  C_12
REMARK                            x       y       z     vdW  Elec       q    Type
REMARK                         _______ _______ _______ _____ _____    ______ ____
ROOT
ATOM      1  C   UNL     1       4.961  -2.366   1.312  0.00  0.00    +0.000 C 
ENDROOT
BRANCH   1   2
ATOM      2  C   UNL     1       6.495  -2.539   1.291  0.00  0.00    +0.000 A 
ATOM      3  C   UNL     1       7.385  -1.553   0.873  0.00  0.00    +0.000 A 
ATOM      4  S   UNL     1       9.022  -2.009   0.929  0.00  0.00    +0.000 S 
ATOM      5  C   UNL     1       8.626  -3.550   1.517  0.00  0.00    +0.000 A 
ATOM      6  N   UNL     1       9.600  -4.469   1.751  0.00  0.00    +0.000 NA
ATOM      7  C   UNL     1       9.167  -5.598   2.197  0.00  0.00    +0.000 A 
ATOM      8  N   UNL     1       7.852  -5.883   2.459  0.00  0.00    +0.000 N 
ATOM      9  C   UNL     1       6.839  -4.955   2.313  0.00  0.00    +0.000 A 
ATOM     10  O   UNL     1       5.701  -5.187   2.709  0.00  0.00    +0.000 OA
ATOM     11  C   UNL     1       7.261  -3.696   1.722  0.00  0.00    +0.000 A 
ATOM     12  H   UNL     1       7.587  -6.770   2.854  0.00  0.00    +0.000 HD
ENDBRANCH   1   2
BRANCH   1  13
ATOM     13  N   UNL     1       4.687  -0.954   0.967  0.00  0.00    +0.000 NA
ATOM     14  H   UNL     1       5.088  -0.363   1.696  0.00  0.00    +0.000 HD
BRANCH  13  15
ATOM     15  C   UNL     1       3.309  -0.535   0.729  0.00  0.00    +0.000 C 
BRANCH  15  16
ATOM     16  C   UNL     1       2.405  -0.464   1.974  0.00  0.00    +0.000 C 
BRANCH  16  17
ATOM     17  N   UNL     1       1.078   0.039   1.614  0.00  0.00    +0.000 NA
ATOM     18  H   UNL     1       0.482   0.074   2.440  0.00  0.00    +0.000 HD
ATOM     19  H   UNL     1       0.632  -0.607   0.962  0.00  0.00    +0.000 HD
ENDBRANCH  16  17
ENDBRANCH  15  16
ENDBRANCH  13  15
ENDBRANCH   1  13
BRANCH   1  20
ATOM     20  C   UNL     1       4.159  -3.435   0.510  0.00  0.00    +0.000 C 
BRANCH  20  21
ATOM     21  C   UNL     1       4.338  -3.720  -0.969  0.00  0.00    +0.000 A 
ATOM     22  C   UNL     1       5.241  -3.078  -1.816  0.00  0.00    +0.000 A 
ATOM     23  C   UNL     1       5.337  -3.437  -3.174  0.00  0.00    +0.000 A 
ATOM     24  C   UNL     1       4.525  -4.445  -3.718  0.00  0.00    +0.000 A 
ATOM     25  C   UNL     1       3.632  -5.100  -2.865  0.00  0.00    +0.000 A 
ATOM     26  C   UNL     1       3.530  -4.732  -1.521  0.00  0.00    +0.000 A 
BRANCH  24  27
ATOM     27  C   UNL     1       4.508  -4.757  -5.197  0.00  0.00    +0.000 C 
BRANCH  27  28
ATOM     28  C   UNL     1       5.582  -5.669  -5.746  0.00  0.00    +0.000 A 
ATOM     29  C   UNL     1       6.749  -5.131  -6.288  0.00  0.00    +0.000 A 
ATOM     30  C   UNL     1       7.629  -5.969  -6.968  0.00  0.00    +0.000 A 
ATOM     31  C   UNL     1       7.341  -7.323  -7.074  0.00  0.00    +0.000 A 
ATOM     32  C   UNL     1       6.181  -7.787  -6.475  0.00  0.00    +0.000 A 
ATOM     33  N   UNL     1       5.299  -6.995  -5.824  0.00  0.00    +0.000 NA
ENDBRANCH  27  28
ENDBRANCH  24  27
ENDBRANCH  20  21
ENDBRANCH   1  20
TORSDOF 9
