REMARK  Name = 
REMARK  10 active torsions:
REMARK  status: ('A' for Active; 'I' for Inactive)
REMARK    1  A    between atoms: C_1  and  C_2
REMARK    2  A    between atoms: C_2  and  N_3
REMARK    3  A    between atoms: N_3  and  C_4
REMARK    4  A    between atoms: N_3  and  C_25
REMARK    5  A    between atoms: C_4  and  C_5
REMARK    6  A    between atoms: C_8  and  C_9
REMARK    7  A    between atoms: C_9  and  N_10
REMARK    8  A    between atoms: C_11  and  C_13
REMARK    9  A    between atoms: C_25  and  C_26
REMARK   10  A    between atoms: C_25  and  C_27
REMARK                            x       y       z     vdW  Elec       q    Type
REMARK                         _______ _______ _______ _____ _____    ______ ____
ROOT
ATOM      1  C   UNL     1       1.009  -0.129  -2.317  0.00  0.00    +0.000 A 
ATOM      2  C   UNL     1       0.338  -1.331  -2.077  0.00  0.00    +0.000 A 
ATOM      3  C   UNL     1      -1.052  -1.381  -2.139  0.00  0.00    +0.000 A 
ATOM      4  C   UNL     1      -1.754  -0.197  -2.322  0.00  0.00    +0.000 A 
ATOM      5  N   UNL     1      -1.134   0.994  -2.514  0.00  0.00    +0.000 NA
ATOM      6  C   UNL     1       0.219   0.995  -2.519  0.00  0.00    +0.000 A 
ENDROOT
BRANCH   1   7
ATOM      7  C   UNL     1       2.514  -0.071  -2.365  0.00  0.00    +0.000 C 
BRANCH   7   8
ATOM      8  N   UNL     1       3.166  -0.201  -3.676  0.00  0.00    +0.000 NA
BRANCH   8  10
ATOM      9  C   UNL     1       3.305   2.301  -4.080  0.00  0.00    +0.000 C 
ATOM     10  C   UNL     1       2.959   0.911  -4.612  0.00  0.00    +0.000 C 
ENDBRANCH   8  10
BRANCH   8  11
ATOM     11  C   UNL     1       3.067  -1.546  -4.316  0.00  0.00    +0.000 C 
ATOM     12  C   UNL     1       1.715  -1.937  -4.950  0.00  0.00    +0.000 C 
BRANCH  11  13
ATOM     13  C   UNL     1       4.120  -1.746  -5.423  0.00  0.00    +0.000 A 
ATOM     14  C   UNL     1       5.368  -2.308  -5.148  0.00  0.00    +0.000 A 
ATOM     15  C   UNL     1       6.261  -2.477  -6.197  0.00  0.00    +0.000 A 
ATOM     16  C   UNL     1       5.915  -2.070  -7.480  0.00  0.00    +0.000 A 
ATOM     17  C   UNL     1       4.661  -1.528  -7.673  0.00  0.00    +0.000 A 
ATOM     18  N   UNL     1       3.770  -1.355  -6.680  0.00  0.00    +0.000 NA
ENDBRANCH  11  13
ENDBRANCH   8  11
ENDBRANCH   7   8
ENDBRANCH   1   7
BRANCH   4  19
ATOM     19  C   UNL     1      -3.258  -0.193  -2.254  0.00  0.00    +0.000 C 
BRANCH  19  20
ATOM     20  N   UNL     1      -3.887  -0.305  -3.546  0.00  0.00    +0.000 N 
ATOM     21  C   UNL     1      -4.425  -1.475  -4.004  0.00  0.00    +0.000 C 
ATOM     22  O   UNL     1      -4.329  -2.527  -3.378  0.00  0.00    +0.000 OA
ATOM     23  H   UNL     1      -3.787   0.496  -4.163  0.00  0.00    +0.000 HD
BRANCH  21  24
ATOM     24  C   UNL     1      -5.206  -1.392  -5.246  0.00  0.00    +0.000 A 
ATOM     25  C   UNL     1      -6.148  -2.372  -5.527  0.00  0.00    +0.000 A 
ATOM     26  S   UNL     1      -7.012  -2.099  -6.972  0.00  0.00    +0.000 S 
ATOM     27  C   UNL     1      -6.126  -0.684  -7.297  0.00  0.00    +0.000 A 
ATOM     28  N   UNL     1      -6.361   0.042  -8.423  0.00  0.00    +0.000 NA
ATOM     29  C   UNL     1      -5.596   1.073  -8.562  0.00  0.00    +0.000 A 
ATOM     30  N   UNL     1      -4.624   1.449  -7.672  0.00  0.00    +0.000 N 
ATOM     31  C   UNL     1      -4.391   0.780  -6.494  0.00  0.00    +0.000 A 
ATOM     32  O   UNL     1      -3.582   1.201  -5.675  0.00  0.00    +0.000 OA
ATOM     33  C   UNL     1      -5.199  -0.410  -6.306  0.00  0.00    +0.000 A 
ATOM     34  H   UNL     1      -4.070   2.278  -7.827  0.00  0.00    +0.000 HD
ENDBRANCH  21  24
ENDBRANCH  19  20
ENDBRANCH   4  19
TORSDOF 8
