REMARK  Name = 
REMARK  6 active torsions:
REMARK  status: ('A' for Active; 'I' for Inactive)
REMARK    1  A    between atoms: C_2  and  C_4
REMARK    2  A    between atoms: N_8  and  C_9
REMARK    3  A    between atoms: C_9  and  C_10
REMARK    4  A    between atoms: C_10  and  C_13
REMARK    5  A    between atoms: C_18  and  O_19
REMARK    6  A    between atoms: O_19  and  C_20
REMARK                            x       y       z     vdW  Elec       q    Type
REMARK                         _______ _______ _______ _____ _____    ______ ____
ROOT
ATOM      1  C   UNL     1       5.434   5.049  -5.361  0.00  0.00    +0.000 C 
ATOM      2  F   UNL     1       6.773   4.948  -5.115  0.00  0.00    +0.000 F 
ATOM      3  F   UNL     1       5.201   4.231  -6.432  0.00  0.00    +0.000 F 
ENDROOT
BRANCH   1   4
ATOM      4  C   UNL     1       5.020   6.481  -5.649  0.00  0.00    +0.000 A 
ATOM      5  C   UNL     1       5.658   7.549  -5.002  0.00  0.00    +0.000 A 
ATOM      6  C   UNL     1       5.262   8.856  -5.266  0.00  0.00    +0.000 A 
ATOM      7  F   UNL     1       5.875   9.867  -4.638  0.00  0.00    +0.000 F 
ATOM      8  C   UNL     1       4.245   9.128  -6.171  0.00  0.00    +0.000 A 
ATOM      9  C   UNL     1       3.611   8.077  -6.830  0.00  0.00    +0.000 A 
ATOM     10  C   UNL     1       3.982   6.757  -6.559  0.00  0.00    +0.000 A 
BRANCH   9  11
ATOM     11  O   UNL     1       2.622   8.440  -7.710  0.00  0.00    +0.000 OA
BRANCH  11  12
ATOM     12  C   UNL     1       2.289   7.533  -8.786  0.00  0.00    +0.000 C 
ATOM     13  C   UNL     1       3.345   7.271  -9.869  0.00  0.00    +0.000 C 
ATOM     14  O   UNL     1       2.444   7.684 -10.922  0.00  0.00    +0.000 OA
ATOM     15  C   UNL     1       1.485   8.145  -9.942  0.00  0.00    +0.000 C 
ENDBRANCH  11  12
ENDBRANCH   9  11
ENDBRANCH   1   4
BRANCH   1  16
ATOM     16  C   UNL     1       4.658   4.496  -4.141  0.00  0.00    +0.000 C 
BRANCH  16  21
ATOM     17  C   UNL     1       3.146   0.771  -0.940  0.00  0.00    +0.000 A 
ATOM     18  C   UNL     1       2.814   2.120  -1.000  0.00  0.00    +0.000 A 
ATOM     19  C   UNL     1       3.427   2.928  -1.956  0.00  0.00    +0.000 A 
ATOM     20  C   UNL     1       4.352   2.381  -2.843  0.00  0.00    +0.000 A 
ATOM     21  N   UNL     1       4.989   3.115  -3.806  0.00  0.00    +0.000 N 
ATOM     22  N   UNL     1       4.691   1.081  -2.781  0.00  0.00    +0.000 NA
ATOM     23  C   UNL     1       4.100   0.306  -1.830  0.00  0.00    +0.000 A 
ATOM     24  H   UNL     1       5.579   2.568  -4.426  0.00  0.00    +0.000 HD
BRANCH  17  26
ATOM     25  N   UNL     1       1.277   0.148   0.472  0.00  0.00    +0.000 N 
ATOM     26  C   UNL     1       2.535  -0.157   0.028  0.00  0.00    +0.000 C 
ATOM     27  O   UNL     1       3.107  -1.175   0.392  0.00  0.00    +0.000 OA
ATOM     28  H   UNL     1       0.824  -0.547   1.052  0.00  0.00    +0.000 HD
ATOM     29  H   UNL     1       0.686   0.827   0.013  0.00  0.00    +0.000 HD
ENDBRANCH  17  26
ENDBRANCH  16  21
ENDBRANCH   1  16
TORSDOF 6
