REMARK  Name = 
REMARK  5 active torsions:
REMARK  status: ('A' for Active; 'I' for Inactive)
REMARK    1  A    between atoms: C_2  and  C_3
REMARK    2  A    between atoms: C_6  and  C_7
REMARK    3  A    between atoms: C_11  and  C_12
REMARK    4  A    between atoms: C_12  and  N_13
REMARK    5  A    between atoms: C_17  and  C_18
REMARK                            x       y       z     vdW  Elec       q    Type
REMARK                         _______ _______ _______ _____ _____    ______ ____
ROOT
ATOM      1  C   UNL     1      -6.416  -1.572   1.933  0.00  0.00    +0.000 C 
ATOM      2  C   UNL     1      -7.278  -2.810   1.760  0.00  0.00    +0.000 C 
ATOM      3  C   UNL     1      -7.935  -1.520   2.116  0.00  0.00    +0.000 C 
ENDROOT
BRANCH   1   4
ATOM      4  N   UNL     1      -5.670  -1.246   3.164  0.00  0.00    +0.000 N 
ATOM      5  C   UNL     1      -4.524  -1.908   3.605  0.00  0.00    +0.000 A 
ATOM      6  C   UNL     1      -4.370  -3.287   3.556  0.00  0.00    +0.000 A 
ATOM      7  C   UNL     1      -3.253  -3.874   4.159  0.00  0.00    +0.000 A 
ATOM      8  C   UNL     1      -2.310  -3.068   4.793  0.00  0.00    +0.000 A 
ATOM      9  C   UNL     1      -2.514  -1.701   4.755  0.00  0.00    +0.000 A 
ATOM     10  N   UNL     1      -3.600  -1.114   4.190  0.00  0.00    +0.000 NA
ATOM     11  H   UNL     1      -5.483  -0.251   3.287  0.00  0.00    +0.000 HD
BRANCH   8  12
ATOM     12  C   UNL     1      -1.140  -3.682   5.455  0.00  0.00    +0.000 C 
ATOM     13  N   UNL     1      -0.552  -2.999   6.484  0.00  0.00    +0.000 N 
ATOM     14  O   UNL     1      -0.730  -4.786   5.120  0.00  0.00    +0.000 OA
ATOM     15  H   UNL     1      -0.955  -2.188   6.932  0.00  0.00    +0.000 HD
ATOM     16  H   UNL     1       0.183  -3.486   6.984  0.00  0.00    +0.000 HD
ENDBRANCH   8  12
ENDBRANCH   1   4
BRANCH   1  21
ATOM     17  C   UNL     1      -5.946   0.856  -0.871  0.00  0.00    +0.000 A 
ATOM     18  C   UNL     1      -4.987   0.253  -1.683  0.00  0.00    +0.000 A 
ATOM     19  C   UNL     1      -4.443  -0.963  -1.293  0.00  0.00    +0.000 A 
ATOM     20  C   UNL     1      -4.881  -1.551  -0.112  0.00  0.00    +0.000 A 
ATOM     21  C   UNL     1      -5.855  -0.919   0.659  0.00  0.00    +0.000 A 
ATOM     22  N   UNL     1      -6.357   0.291   0.288  0.00  0.00    +0.000 NA
BRANCH  17  26
ATOM     23  C   UNL     1      -7.737   4.591  -1.758  0.00  0.00    +0.000 A 
ATOM     24  C   UNL     1      -7.413   3.758  -2.819  0.00  0.00    +0.000 A 
ATOM     25  C   UNL     1      -6.836   2.521  -2.538  0.00  0.00    +0.000 A 
ATOM     26  C   UNL     1      -6.586   2.133  -1.213  0.00  0.00    +0.000 A 
ATOM     27  C   UNL     1      -6.985   3.036  -0.225  0.00  0.00    +0.000 A 
ATOM     28  N   UNL     1      -7.540   4.253  -0.463  0.00  0.00    +0.000 NA
BRANCH  23  30
ATOM     29  N   UNL     1      -8.734   6.940  -2.240  0.00  0.00    +0.000 NA
ATOM     30  C   UNL     1      -8.292   5.892  -1.993  0.00  0.00    +0.000 C 
ENDBRANCH  23  30
ENDBRANCH  17  26
ENDBRANCH   1  21
TORSDOF 5
