REMARK  Name = 
REMARK  7 active torsions:
REMARK  status: ('A' for Active; 'I' for Inactive)
REMARK    1  A    between atoms: C_1  and  O_2
REMARK    2  A    between atoms: O_2  and  C_3
REMARK    3  A    between atoms: N_7  and  C_8
REMARK    4  A    between atoms: C_8  and  C_9
REMARK    5  A    between atoms: C_12  and  O_13
REMARK    6  A    between atoms: O_13  and  C_14
REMARK    7  A    between atoms: C_23  and  C_24
REMARK                            x       y       z     vdW  Elec       q    Type
REMARK                         _______ _______ _______ _____ _____    ______ ____
ROOT
ATOM      1  C   UNL     1       4.103  -3.057   0.511  0.00  0.00    +0.000 A 
ATOM      2  C   UNL     1       3.371  -3.520   1.580  0.00  0.00    +0.000 A 
ATOM      3  N   UNL     1       3.560  -3.141   2.859  0.00  0.00    +0.000 NA
ATOM      4  C   UNL     1       4.553  -2.279   3.111  0.00  0.00    +0.000 A 
ATOM      5  N   UNL     1       4.611  -1.840   4.428  0.00  0.00    +0.000 N 
ATOM      6  N   UNL     1       5.380  -1.812   2.168  0.00  0.00    +0.000 NA
ATOM      7  C   UNL     1       5.133  -2.210   0.883  0.00  0.00    +0.000 A 
ATOM      8  H   UNL     1       3.981  -2.441   4.950  0.00  0.00    +0.000 HD
ENDROOT
BRANCH   7   9
ATOM      9  C   UNL     1       6.066  -1.604  -0.136  0.00  0.00    +0.000 C 
ATOM     10  N   UNL     1       7.007  -0.746   0.380  0.00  0.00    +0.000 N 
ATOM     11  O   UNL     1       6.030  -1.820  -1.341  0.00  0.00    +0.000 OA
ATOM     12  H   UNL     1       7.013  -0.549   1.373  0.00  0.00    +0.000 HD
ATOM     13  H   UNL     1       7.646  -0.281  -0.245  0.00  0.00    +0.000 HD
ENDBRANCH   7   9
BRANCH   5  14
ATOM     14  C   UNL     1       5.865  -1.460   5.087  0.00  0.00    +0.000 C 
ATOM     15  C   UNL     1       5.828  -0.133   5.836  0.00  0.00    +0.000 C 
ATOM     16  C   UNL     1       6.699  -0.279   4.633  0.00  0.00    +0.000 C 
BRANCH  14  17
ATOM     17  C   UNL     1       6.610  -2.626   5.724  0.00  0.00    +0.000 A 
ATOM     18  C   UNL     1       7.511  -3.404   4.978  0.00  0.00    +0.000 A 
ATOM     19  C   UNL     1       8.287  -4.405   5.574  0.00  0.00    +0.000 A 
ATOM     20  C   UNL     1       8.200  -4.629   6.944  0.00  0.00    +0.000 A 
ATOM     21  C   UNL     1       7.238  -3.941   7.683  0.00  0.00    +0.000 A 
ATOM     22  C   UNL     1       6.450  -2.957   7.079  0.00  0.00    +0.000 A 
BRANCH  20  23
ATOM     23  O   UNL     1       8.948  -5.519   7.651  0.00  0.00    +0.000 OA
BRANCH  23  24
ATOM     24  C   UNL     1      10.307  -5.719   7.278  0.00  0.00    +0.000 C 
ATOM     25  F   UNL     1      10.750  -4.896   6.304  0.00  0.00    +0.000 F 
ATOM     26  F   UNL     1      11.086  -5.522   8.367  0.00  0.00    +0.000 F 
ATOM     27  F   UNL     1      10.469  -6.997   6.873  0.00  0.00    +0.000 F 
ENDBRANCH  23  24
ENDBRANCH  20  23
ENDBRANCH  14  17
ENDBRANCH   5  14
BRANCH   1  29
ATOM     28  C   UNL     1       2.543  -3.763  -1.110  0.00  0.00    +0.000 C 
ATOM     29  O   UNL     1       3.882  -3.402  -0.782  0.00  0.00    +0.000 OA
ENDBRANCH   1  29
TORSDOF 6
