REMARK  Name = 
REMARK  7 active torsions:
REMARK  status: ('A' for Active; 'I' for Inactive)
REMARK    1  A    between atoms: C_2  and  C_20
REMARK    2  A    between atoms: N_3  and  C_4
REMARK    3  A    between atoms: C_4  and  C_5
REMARK    4  A    between atoms: C_8  and  C_9
REMARK    5  A    between atoms: C_9  and  C_10
REMARK    6  A    between atoms: C_10  and  O_11
REMARK    7  A    between atoms: C_10  and  C_12
REMARK                            x       y       z     vdW  Elec       q    Type
REMARK                         _______ _______ _______ _____ _____    ______ ____
ROOT
ATOM      1  C   UNL     1       2.397  -2.356  -0.172  0.00  0.00    +0.000 C 
ENDROOT
BRANCH   1   2
ATOM      2  C   UNL     1       3.356  -3.512  -0.275  0.00  0.00    +0.000 A 
ATOM      3  C   UNL     1       4.736  -3.282  -0.336  0.00  0.00    +0.000 A 
ATOM      4  C   UNL     1       5.636  -4.350  -0.387  0.00  0.00    +0.000 A 
ATOM      5  C   UNL     1       5.172  -5.671  -0.397  0.00  0.00    +0.000 A 
ATOM      6  C   UNL     1       3.790  -5.901  -0.373  0.00  0.00    +0.000 A 
ATOM      7  C   UNL     1       2.889  -4.833  -0.321  0.00  0.00    +0.000 A 
BRANCH   5   8
ATOM      8  C   UNL     1       6.142  -6.834  -0.421  0.00  0.00    +0.000 C 
BRANCH   8   9
ATOM      9  C   UNL     1       6.560  -7.314   0.983  0.00  0.00    +0.000 C 
BRANCH   9  10
ATOM     10  C   UNL     1       7.586  -8.425   0.889  0.00  0.00    +0.000 A 
ATOM     11  C   UNL     1       8.839  -8.299   1.483  0.00  0.00    +0.000 A 
ATOM     12  N   UNL     1       9.776  -9.278   1.443  0.00  0.00    +0.000 NA
ATOM     13  C   UNL     1       9.408 -10.406   0.796  0.00  0.00    +0.000 A 
ATOM     14  C   UNL     1       8.161 -10.551   0.213  0.00  0.00    +0.000 A 
ATOM     15  N   UNL     1       7.224  -9.574   0.248  0.00  0.00    +0.000 NA
ENDBRANCH   9  10
BRANCH   9  16
ATOM     16  O   UNL     1       5.419  -7.828   1.682  0.00  0.00    +0.000 OA
ATOM     17  H   UNL     1       5.227  -8.691   1.270  0.00  0.00    +0.000 HD
ENDBRANCH   9  16
ENDBRANCH   8   9
ENDBRANCH   5   8
ENDBRANCH   1   2
BRANCH   1  20
ATOM     18  O   UNL     1       3.398  -0.165  -1.663  0.00  0.00    +0.000 OA
ATOM     19  C   UNL     1       2.517  -0.871  -2.146  0.00  0.00    +0.000 C 
ATOM     20  N   UNL     1       1.953  -1.918  -1.468  0.00  0.00    +0.000 N 
ATOM     21  H   UNL     1       1.358  -2.568  -1.968  0.00  0.00    +0.000 HD
BRANCH  19  22
ATOM     22  C   UNL     1       1.963  -0.601  -3.481  0.00  0.00    +0.000 A 
ATOM     23  C   UNL     1       2.090   0.662  -4.043  0.00  0.00    +0.000 A 
ATOM     24  S   UNL     1       1.386   0.794  -5.592  0.00  0.00    +0.000 S 
ATOM     25  C   UNL     1       0.921  -0.843  -5.582  0.00  0.00    +0.000 A 
ATOM     26  N   UNL     1       0.289  -1.397  -6.652  0.00  0.00    +0.000 NA
ATOM     27  C   UNL     1       0.026  -2.656  -6.523  0.00  0.00    +0.000 A 
ATOM     28  N   UNL     1       0.324  -3.407  -5.416  0.00  0.00    +0.000 N 
ATOM     29  C   UNL     1       0.886  -2.869  -4.287  0.00  0.00    +0.000 A 
ATOM     30  O   UNL     1       1.002  -3.539  -3.266  0.00  0.00    +0.000 OA
ATOM     31  C   UNL     1       1.261  -1.471  -4.399  0.00  0.00    +0.000 A 
ATOM     32  H   UNL     1       0.058  -4.377  -5.357  0.00  0.00    +0.000 HD
ENDBRANCH  19  22
ENDBRANCH   1  20
TORSDOF 7
