REMARK  Name = 
REMARK  8 active torsions:
REMARK  status: ('A' for Active; 'I' for Inactive)
REMARK    1  A    between atoms: N_1  and  C_2
REMARK    2  A    between atoms: C_2  and  C_3
REMARK    3  A    between atoms: C_6  and  O_7
REMARK    4  A    between atoms: O_7  and  C_8
REMARK    5  A    between atoms: C_8  and  C_9
REMARK    6  A    between atoms: C_12  and  C_13
REMARK    7  A    between atoms: C_13  and  N_14
REMARK    8  A    between atoms: C_15  and  C_17
REMARK                            x       y       z     vdW  Elec       q    Type
REMARK                         _______ _______ _______ _____ _____    ______ ____
ROOT
ATOM      1  C   UNL     1       3.736   6.012  -5.017  0.00  0.00    +0.000 A 
ATOM      2  C   UNL     1       3.311   7.346  -5.063  0.00  0.00    +0.000 A 
ATOM      3  C   UNL     1       3.580   8.142  -6.180  0.00  0.00    +0.000 A 
ATOM      4  C   UNL     1       4.258   7.611  -7.285  0.00  0.00    +0.000 A 
ATOM      5  C   UNL     1       4.712   6.287  -7.225  0.00  0.00    +0.000 A 
ATOM      6  C   UNL     1       4.442   5.490  -6.109  0.00  0.00    +0.000 A 
ENDROOT
BRANCH   1   7
ATOM      7  C   UNL     1       3.447   5.157  -3.807  0.00  0.00    +0.000 C 
BRANCH   7   8
ATOM      8  O   UNL     1       2.189   4.494  -3.954  0.00  0.00    +0.000 OA
BRANCH   8  12
ATOM      9  C   UNL     1       0.674   2.255  -0.832  0.00  0.00    +0.000 A 
ATOM     10  C   UNL     1       1.949   2.794  -0.675  0.00  0.00    +0.000 A 
ATOM     11  C   UNL     1       2.502   3.549  -1.706  0.00  0.00    +0.000 A 
ATOM     12  C   UNL     1       1.782   3.749  -2.879  0.00  0.00    +0.000 A 
ATOM     13  C   UNL     1       0.528   3.150  -2.962  0.00  0.00    +0.000 A 
ATOM     14  N   UNL     1      -0.042   2.416  -1.973  0.00  0.00    +0.000 NA
BRANCH   9  15
ATOM     15  C   UNL     1       0.029   1.516   0.321  0.00  0.00    +0.000 C 
BRANCH  15  16
ATOM     16  N   UNL     1      -0.167   2.391   1.484  0.00  0.00    +0.000 NA
ATOM     17  H   UNL     1      -0.702   1.888   2.188  0.00  0.00    +0.000 HD
ATOM     18  H   UNL     1      -0.756   3.169   1.184  0.00  0.00    +0.000 HD
ENDBRANCH  15  16
ENDBRANCH   9  15
ENDBRANCH   8  12
ENDBRANCH   7   8
ENDBRANCH   1   7
BRANCH   4  19
ATOM     19  C   UNL     1       4.496   8.444  -8.518  0.00  0.00    +0.000 C 
BRANCH  19  20
ATOM     20  N   UNL     1       5.734   9.175  -8.441  0.00  0.00    +0.000 N 
ATOM     21  C   UNL     1       6.108  10.032  -9.447  0.00  0.00    +0.000 C 
ATOM     22  O   UNL     1       5.390  10.253 -10.418  0.00  0.00    +0.000 OA
ATOM     23  H   UNL     1       6.428   8.840  -7.783  0.00  0.00    +0.000 HD
BRANCH  21  24
ATOM     24  C   UNL     1       7.392  10.724  -9.271  0.00  0.00    +0.000 A 
ATOM     25  C   UNL     1       7.619  11.930  -9.920  0.00  0.00    +0.000 A 
ATOM     26  S   UNL     1       9.140  12.618  -9.572  0.00  0.00    +0.000 S 
ATOM     27  C   UNL     1       9.569  11.303  -8.580  0.00  0.00    +0.000 A 
ATOM     28  N   UNL     1      10.786  11.252  -7.975  0.00  0.00    +0.000 NA
ATOM     29  C   UNL     1      10.988  10.187  -7.274  0.00  0.00    +0.000 A 
ATOM     30  N   UNL     1      10.081   9.170  -7.120  0.00  0.00    +0.000 N 
ATOM     31  C   UNL     1       8.830   9.193  -7.686  0.00  0.00    +0.000 A 
ATOM     32  O   UNL     1       8.025   8.290  -7.486  0.00  0.00    +0.000 OA
ATOM     33  C   UNL     1       8.557  10.365  -8.499  0.00  0.00    +0.000 A 
ATOM     34  H   UNL     1      10.295   8.367  -6.547  0.00  0.00    +0.000 HD
ENDBRANCH  21  24
ENDBRANCH  19  20
ENDBRANCH   4  19
TORSDOF 8
