REMARK  Name = 
REMARK  12 active torsions:
REMARK  status: ('A' for Active; 'I' for Inactive)
REMARK    1  A    between atoms: C_2  and  C_25
REMARK    2  A    between atoms: N_3  and  C_4
REMARK    3  A    between atoms: C_4  and  C_5
REMARK    4  A    between atoms: C_8  and  C_9
REMARK    5  A    between atoms: C_9  and  C_10
REMARK    6  A    between atoms: C_10  and  O_11
REMARK    7  A    between atoms: C_10  and  C_12
REMARK    8  A    between atoms: C_12  and  O_13
REMARK    9  A    between atoms: C_14  and  C_15
REMARK   10  A    between atoms: C_15  and  N_16
REMARK   11  A    between atoms: N_16  and  C_17
REMARK   12  A    between atoms: C_17  and  C_18
REMARK                            x       y       z     vdW  Elec       q    Type
REMARK                         _______ _______ _______ _____ _____    ______ ____
ROOT
ATOM      1  C   UNL     1       3.213   0.267  -3.582  0.00  0.00    +0.000 A 
ATOM      2  C   UNL     1       3.853  -0.820  -4.154  0.00  0.00    +0.000 A 
ATOM      3  N   UNL     1       4.743  -0.730  -5.173  0.00  0.00    +0.000 NA
ATOM      4  C   UNL     1       5.023   0.513  -5.671  0.00  0.00    +0.000 A 
ATOM      5  C   UNL     1       4.452   1.679  -5.140  0.00  0.00    +0.000 A 
ATOM      6  C   UNL     1       3.539   1.527  -4.083  0.00  0.00    +0.000 A 
ENDROOT
BRANCH   1   7
ATOM      7  C   UNL     1       2.234   0.114  -2.457  0.00  0.00    +0.000 C 
BRANCH   7  10
ATOM      8  O   UNL     1       2.815   2.450  -0.981  0.00  0.00    +0.000 OA
ATOM      9  C   UNL     1       3.110   1.355  -0.510  0.00  0.00    +0.000 C 
ATOM     10  N   UNL     1       2.884   0.178  -1.173  0.00  0.00    +0.000 N 
ATOM     11  H   UNL     1       3.048  -0.702  -0.699  0.00  0.00    +0.000 HD
BRANCH   9  12
ATOM     12  C   UNL     1       3.759   1.240   0.801  0.00  0.00    +0.000 A 
ATOM     13  C   UNL     1       4.490   2.305   1.310  0.00  0.00    +0.000 A 
ATOM     14  S   UNL     1       5.156   1.998   2.850  0.00  0.00    +0.000 S 
ATOM     15  C   UNL     1       4.459   0.444   2.904  0.00  0.00    +0.000 A 
ATOM     16  N   UNL     1       4.614  -0.355   3.993  0.00  0.00    +0.000 NA
ATOM     17  C   UNL     1       3.997  -1.487   3.916  0.00  0.00    +0.000 A 
ATOM     18  N   UNL     1       3.251  -1.898   2.841  0.00  0.00    +0.000 N 
ATOM     19  C   UNL     1       3.129  -1.156   1.694  0.00  0.00    +0.000 A 
ATOM     20  O   UNL     1       2.562  -1.609   0.702  0.00  0.00    +0.000 OA
ATOM     21  C   UNL     1       3.758   0.151   1.749  0.00  0.00    +0.000 A 
ATOM     22  H   UNL     1       2.822  -2.811   2.831  0.00  0.00    +0.000 HD
ENDBRANCH   9  12
ENDBRANCH   7  10
ENDBRANCH   1   7
BRANCH   4  23
ATOM     23  C   UNL     1       6.060   0.553  -6.777  0.00  0.00    +0.000 C 
BRANCH  23  24
ATOM     24  C   UNL     1       6.178  -0.698  -7.668  0.00  0.00    +0.000 C 
BRANCH  24  25
ATOM     25  O   UNL     1       6.526  -1.857  -6.905  0.00  0.00    +0.000 OA
ATOM     26  H   UNL     1       6.000  -1.810  -6.078  0.00  0.00    +0.000 HD
ENDBRANCH  24  25
BRANCH  24  27
ATOM     27  C   UNL     1       4.944  -0.981  -8.543  0.00  0.00    +0.000 C 
BRANCH  27  28
ATOM     28  O   UNL     1       3.753  -1.220  -7.803  0.00  0.00    +0.000 OA
ATOM     29  H   UNL     1       4.018  -1.534  -6.916  0.00  0.00    +0.000 HD
ENDBRANCH  27  28
ENDBRANCH  24  27
ENDBRANCH  23  24
ENDBRANCH   4  23
BRANCH   5  30
ATOM     30  C   UNL     1       4.684   3.067  -5.688  0.00  0.00    +0.000 C 
BRANCH  30  31
ATOM     31  N   UNL     1       5.172   4.011  -4.681  0.00  0.00    +0.000 NA
ATOM     32  H   UNL     1       6.078   3.696  -4.333  0.00  0.00    +0.000 HD
BRANCH  31  33
ATOM     33  C   UNL     1       5.352   5.334  -5.301  0.00  0.00    +0.000 C 
BRANCH  33  34
ATOM     34  C   UNL     1       5.931   6.362  -4.354  0.00  0.00    +0.000 A 
ATOM     35  C   UNL     1       5.238   6.729  -3.202  0.00  0.00    +0.000 A 
ATOM     36  C   UNL     1       5.795   7.687  -2.360  0.00  0.00    +0.000 A 
ATOM     37  C   UNL     1       7.020   8.254  -2.690  0.00  0.00    +0.000 A 
ATOM     38  C   UNL     1       7.640   7.839  -3.856  0.00  0.00    +0.000 A 
ATOM     39  N   UNL     1       7.128   6.909  -4.691  0.00  0.00    +0.000 NA
ENDBRANCH  33  34
ENDBRANCH  31  33
ENDBRANCH  30  31
ENDBRANCH   5  30
TORSDOF 12
