REMARK  Name = 
REMARK  7 active torsions:
REMARK  status: ('A' for Active; 'I' for Inactive)
REMARK    1  A    between atoms: N_1  and  C_2
REMARK    2  A    between atoms: C_2  and  C_3
REMARK    3  A    between atoms: C_6  and  O_7
REMARK    4  A    between atoms: O_7  and  C_8
REMARK    5  A    between atoms: C_8  and  C_9
REMARK    6  A    between atoms: C_12  and  C_13
REMARK    7  A    between atoms: N_15  and  O_16
REMARK                            x       y       z     vdW  Elec       q    Type
REMARK                         _______ _______ _______ _____ _____    ______ ____
ROOT
ATOM      1  C   UNL     1       4.282   4.118  -6.406  0.00  0.00    +0.000 A 
ATOM      2  C   UNL     1       3.866   3.368  -7.516  0.00  0.00    +0.000 A 
ATOM      3  C   UNL     1       4.278   3.715  -8.806  0.00  0.00    +0.000 A 
ATOM      4  C   UNL     1       5.115   4.817  -9.001  0.00  0.00    +0.000 A 
ATOM      5  C   UNL     1       5.533   5.574  -7.902  0.00  0.00    +0.000 A 
ATOM      6  C   UNL     1       5.114   5.228  -6.613  0.00  0.00    +0.000 A 
ENDROOT
BRANCH   4   7
ATOM      7  C   UNL     1       5.574   5.176 -10.377  0.00  0.00    +0.000 C 
ATOM      8  N   UNL     1       4.789   4.840 -11.455  0.00  0.00    +0.000 N 
ATOM      9  N   UNL     1       6.707   5.809 -10.515  0.00  0.00    +0.000 NA
ATOM     10  H   UNL     1       3.794   4.967 -11.316  0.00  0.00    +0.000 HD
ATOM     11  H   UNL     1       5.127   5.330 -12.281  0.00  0.00    +0.000 HD
BRANCH   9  12
ATOM     12  O   UNL     1       6.975   6.065 -11.871  0.00  0.00    +0.000 OA
ATOM     13  H   UNL     1       7.886   6.410 -11.833  0.00  0.00    +0.000 HD
ENDBRANCH   9  12
ENDBRANCH   4   7
BRANCH   1  14
ATOM     14  C   UNL     1       3.813   3.752  -5.017  0.00  0.00    +0.000 C 
BRANCH  14  15
ATOM     15  O   UNL     1       4.256   2.435  -4.692  0.00  0.00    +0.000 OA
BRANCH  15  19
ATOM     16  C   UNL     1       3.238   0.729  -1.002  0.00  0.00    +0.000 A 
ATOM     17  C   UNL     1       2.810   2.032  -1.294  0.00  0.00    +0.000 A 
ATOM     18  C   UNL     1       3.129   2.638  -2.513  0.00  0.00    +0.000 A 
ATOM     19  C   UNL     1       3.888   1.953  -3.462  0.00  0.00    +0.000 A 
ATOM     20  C   UNL     1       4.328   0.660  -3.172  0.00  0.00    +0.000 A 
ATOM     21  C   UNL     1       4.008   0.050  -1.954  0.00  0.00    +0.000 A 
BRANCH  16  22
ATOM     22  C   UNL     1       2.874   0.090   0.312  0.00  0.00    +0.000 C 
BRANCH  22  23
ATOM     23  N   UNL     1       1.427  -0.009   0.471  0.00  0.00    +0.000 NA
ATOM     24  H   UNL     1       1.217  -0.511   1.331  0.00  0.00    +0.000 HD
ATOM     25  H   UNL     1       1.054  -0.571  -0.293  0.00  0.00    +0.000 HD
ENDBRANCH  22  23
ENDBRANCH  16  22
ENDBRANCH  15  19
ENDBRANCH  14  15
ENDBRANCH   1  14
TORSDOF 7
