REMARK  Name = 
REMARK  6 active torsions:
REMARK  status: ('A' for Active; 'I' for Inactive)
REMARK    1  A    between atoms: C_2  and  C_4
REMARK    2  A    between atoms: N_8  and  C_9
REMARK    3  A    between atoms: C_9  and  C_10
REMARK    4  A    between atoms: C_10  and  C_13
REMARK    5  A    between atoms: C_18  and  O_19
REMARK    6  A    between atoms: O_19  and  C_20
REMARK                            x       y       z     vdW  Elec       q    Type
REMARK                         _______ _______ _______ _____ _____    ______ ____
ROOT
ATOM      1  C   UNL     1       6.721  -5.862   3.419  0.00  0.00    +0.000 C 
ATOM      2  F   UNL     1       7.923  -5.594   2.834  0.00  0.00    +0.000 F 
ATOM      3  F   UNL     1       6.815  -5.386   4.693  0.00  0.00    +0.000 F 
ENDROOT
BRANCH   1   4
ATOM      4  C   UNL     1       6.381  -7.346   3.390  0.00  0.00    +0.000 A 
ATOM      5  C   UNL     1       6.796  -8.163   2.332  0.00  0.00    +0.000 A 
ATOM      6  C   UNL     1       6.371  -9.492   2.265  0.00  0.00    +0.000 A 
ATOM      7  C   UNL     1       5.535 -10.016   3.257  0.00  0.00    +0.000 A 
ATOM      8 CL   UNL     1       5.001 -11.649   3.088  0.00  0.00    +0.000 Cl
ATOM      9  C   UNL     1       5.139  -9.222   4.341  0.00  0.00    +0.000 A 
ATOM     10  C   UNL     1       5.563  -7.890   4.397  0.00  0.00    +0.000 A 
BRANCH   9  11
ATOM     11  O   UNL     1       4.295  -9.779   5.276  0.00  0.00    +0.000 OA
BRANCH  11  12
ATOM     12  C   UNL     1       4.198  -9.168   6.574  0.00  0.00    +0.000 C 
ATOM     13  C   UNL     1       5.366  -9.384   7.561  0.00  0.00    +0.000 C 
ATOM     14  C   UNL     1       4.253  -9.577   8.605  0.00  0.00    +0.000 C 
ATOM     15  N   UNL     1       3.365  -9.979   7.494  0.00  0.00    +0.000 NA
ATOM     16  H   UNL     1       2.402  -9.663   7.569  0.00  0.00    +0.000 HD
ENDBRANCH  11  12
ENDBRANCH   9  11
ENDBRANCH   1   4
BRANCH   1  17
ATOM     17  C   UNL     1       5.610  -5.084   2.667  0.00  0.00    +0.000 C 
BRANCH  17  22
ATOM     18  C   UNL     1       3.352  -0.926   0.691  0.00  0.00    +0.000 A 
ATOM     19  C   UNL     1       2.996  -2.269   0.656  0.00  0.00    +0.000 A 
ATOM     20  C   UNL     1       3.782  -3.196   1.340  0.00  0.00    +0.000 A 
ATOM     21  C   UNL     1       4.917  -2.777   2.033  0.00  0.00    +0.000 A 
ATOM     22  N   UNL     1       5.725  -3.632   2.736  0.00  0.00    +0.000 N 
ATOM     23  N   UNL     1       5.271  -1.479   2.066  0.00  0.00    +0.000 NA
ATOM     24  C   UNL     1       4.494  -0.585   1.396  0.00  0.00    +0.000 A 
ATOM     25  H   UNL     1       6.567  -3.202   3.108  0.00  0.00    +0.000 HD
BRANCH  18  27
ATOM     26  N   UNL     1       1.275  -0.124  -0.293  0.00  0.00    +0.000 N 
ATOM     27  C   UNL     1       2.591   0.125  -0.014  0.00  0.00    +0.000 C 
ATOM     28  O   UNL     1       3.109   1.189  -0.326  0.00  0.00    +0.000 OA
ATOM     29  H   UNL     1       0.751   0.637  -0.707  0.00  0.00    +0.000 HD
ATOM     30  H   UNL     1       0.750  -0.867   0.146  0.00  0.00    +0.000 HD
ENDBRANCH  18  27
ENDBRANCH  17  22
ENDBRANCH   1  17
TORSDOF 6
