REMARK  Name = 
REMARK  7 active torsions:
REMARK  status: ('A' for Active; 'I' for Inactive)
REMARK    1  A    between atoms: C_1  and  O_2
REMARK    2  A    between atoms: O_2  and  C_3
REMARK    3  A    between atoms: C_5  and  O_6
REMARK    4  A    between atoms: O_6  and  C_7
REMARK    5  A    between atoms: C_10  and  C_11
REMARK    6  A    between atoms: C_11  and  N_12
REMARK    7  A    between atoms: C_13  and  C_15
REMARK                            x       y       z     vdW  Elec       q    Type
REMARK                         _______ _______ _______ _____ _____    ______ ____
ROOT
ATOM      1  C   UNL     1      -0.827   2.324  -6.316  0.00  0.00    +0.000 C 
ENDROOT
BRANCH   1   5
ATOM      2  C   UNL     1       2.104  -0.581  -5.059  0.00  0.00    +0.000 A 
ATOM      3  C   UNL     1       2.352   0.780  -4.875  0.00  0.00    +0.000 A 
ATOM      4  C   UNL     1       1.421   1.725  -5.318  0.00  0.00    +0.000 A 
ATOM      5  C   UNL     1       0.231   1.320  -5.941  0.00  0.00    +0.000 A 
ATOM      6  C   UNL     1       0.033  -0.042  -6.194  0.00  0.00    +0.000 A 
ATOM      7  C   UNL     1       0.970  -0.985  -5.770  0.00  0.00    +0.000 A 
BRANCH   2   8
ATOM      8  O   UNL     1       3.021  -1.480  -4.551  0.00  0.00    +0.000 OA
BRANCH   8  11
ATOM      9  C   UNL     1       2.635  -4.902  -3.542  0.00  0.00    +0.000 A 
ATOM     10  C   UNL     1       3.237  -3.783  -4.065  0.00  0.00    +0.000 A 
ATOM     11  C   UNL     1       2.503  -2.628  -3.955  0.00  0.00    +0.000 A 
ATOM     12  N   UNL     1       1.311  -2.556  -3.329  0.00  0.00    +0.000 NA
ATOM     13  C   UNL     1       0.826  -3.708  -2.864  0.00  0.00    +0.000 A 
ATOM     14  N   UNL     1       1.429  -4.897  -2.945  0.00  0.00    +0.000 NA
BRANCH   9  16
ATOM     15  C   UNL     1       2.598  -7.204  -3.129  0.00  0.00    +0.000 C 
ATOM     16  O   UNL     1       3.316  -6.092  -3.679  0.00  0.00    +0.000 OA
ENDBRANCH   9  16
ENDBRANCH   8  11
ENDBRANCH   2   8
ENDBRANCH   1   5
BRANCH   1  17
ATOM     17  N   UNL     1      -0.649   2.837  -7.649  0.00  0.00    +0.000 N 
ATOM     18  C   UNL     1      -1.581   3.684  -8.198  0.00  0.00    +0.000 C 
ATOM     19  O   UNL     1      -2.589   4.017  -7.580  0.00  0.00    +0.000 OA
ATOM     20  H   UNL     1       0.278   2.766  -8.058  0.00  0.00    +0.000 HD
BRANCH  18  21
ATOM     21  C   UNL     1      -1.366   4.109  -9.588  0.00  0.00    +0.000 A 
ATOM     22  C   UNL     1      -2.312   4.900 -10.228  0.00  0.00    +0.000 A 
ATOM     23  S   UNL     1      -2.042   5.056 -11.907  0.00  0.00    +0.000 S 
ATOM     24  C   UNL     1      -0.625   4.118 -11.817  0.00  0.00    +0.000 A 
ATOM     25  N   UNL     1       0.063   3.763 -12.935  0.00  0.00    +0.000 NA
ATOM     26  C   UNL     1       1.139   3.088 -12.704  0.00  0.00    +0.000 A 
ATOM     27  N   UNL     1       1.614   2.775 -11.456  0.00  0.00    +0.000 N 
ATOM     28  C   UNL     1       0.974   3.150 -10.300  0.00  0.00    +0.000 A 
ATOM     29  O   UNL     1       1.483   2.976  -9.198  0.00  0.00    +0.000 OA
ATOM     30  C   UNL     1      -0.304   3.798 -10.510  0.00  0.00    +0.000 A 
ATOM     31  H   UNL     1       2.507   2.318 -11.342  0.00  0.00    +0.000 HD
ENDBRANCH  18  21
ENDBRANCH   1  17
TORSDOF 6
