REMARK  Name = 
REMARK  6 active torsions:
REMARK  status: ('A' for Active; 'I' for Inactive)
REMARK    1  A    between atoms: C_1  and  O_2
REMARK    2  A    between atoms: O_2  and  C_3
REMARK    3  A    between atoms: C_9  and  C_10
REMARK    4  A    between atoms: C_10  and  C_11
REMARK    5  A    between atoms: C_14  and  C_15
REMARK    6  A    between atoms: C_15  and  N_16
REMARK                            x       y       z     vdW  Elec       q    Type
REMARK                         _______ _______ _______ _____ _____    ______ ____
ROOT
ATOM      1  C   UNL     1       2.606  -4.130   3.715  0.00  0.00    +0.000 A 
ATOM      2  C   UNL     1       2.263  -4.928   2.628  0.00  0.00    +0.000 A 
ATOM      3  C   UNL     1       3.055  -4.952   1.472  0.00  0.00    +0.000 A 
ATOM      4  C   UNL     1       4.198  -4.144   1.445  0.00  0.00    +0.000 A 
ATOM      5  N   UNL     1       5.139  -3.970   0.457  0.00  0.00    +0.000 N 
ATOM      6  C   UNL     1       6.095  -3.080   0.865  0.00  0.00    +0.000 A 
ATOM      7  C   UNL     1       5.781  -2.645   2.138  0.00  0.00    +0.000 A 
ATOM      8  C   UNL     1       4.576  -3.332   2.515  0.00  0.00    +0.000 A 
ATOM      9  C   UNL     1       3.759  -3.334   3.667  0.00  0.00    +0.000 A 
ATOM     10  H   UNL     1       5.121  -4.439  -0.438  0.00  0.00    +0.000 HD
ENDROOT
BRANCH   1  12
ATOM     11  C   UNL     1       0.897  -4.996   5.123  0.00  0.00    +0.000 C 
ATOM     12  O   UNL     1       1.891  -4.010   4.879  0.00  0.00    +0.000 OA
ENDBRANCH   1  12
BRANCH   7  13
ATOM     13  C   UNL     1       6.577  -1.672   2.973  0.00  0.00    +0.000 C 
BRANCH  13  14
ATOM     14  C   UNL     1       6.206  -0.175   2.832  0.00  0.00    +0.000 C 
ATOM     15  C   UNL     1       4.752   0.101   3.247  0.00  0.00    +0.000 C 
ATOM     16  C   UNL     1       4.274   1.518   2.945  0.00  0.00    +0.000 C 
ATOM     17  C   UNL     1       4.534   1.897   1.481  0.00  0.00    +0.000 C 
ATOM     18  C   UNL     1       6.038   1.794   1.195  0.00  0.00    +0.000 C 
ATOM     19  C   UNL     1       6.565   0.382   1.445  0.00  0.00    +0.000 C 
BRANCH  17  20
ATOM     20  C   UNL     1       4.024   3.309   1.147  0.00  0.00    +0.000 C 
BRANCH  20  21
ATOM     21  N   UNL     1       2.578   3.419   1.310  0.00  0.00    +0.000 NA
ATOM     22  H   UNL     1       2.112   2.733   0.716  0.00  0.00    +0.000 HD
ATOM     23  H   UNL     1       2.268   4.335   0.992  0.00  0.00    +0.000 HD
ENDBRANCH  20  21
ENDBRANCH  17  20
ENDBRANCH  13  14
ENDBRANCH   7  13
TORSDOF 5
