REMARK  Name = 
REMARK  5 active torsions:
REMARK  status: ('A' for Active; 'I' for Inactive)
REMARK    1  A    between atoms: C_2  and  C_4
REMARK    2  A    between atoms: C_7  and  O_8
REMARK    3  A    between atoms: O_8  and  C_9
REMARK    4  A    between atoms: C_9  and  C_10
REMARK    5  A    between atoms: C_14  and  C_15
REMARK                            x       y       z     vdW  Elec       q    Type
REMARK                         _______ _______ _______ _____ _____    ______ ____
ROOT
ATOM      1  C   UNL     1       5.031   4.118   4.220  0.00  0.00    +0.000 C 
ENDROOT
BRANCH   1   2
ATOM      2  C   UNL     1       6.021   5.078   4.833  0.00  0.00    +0.000 A 
ATOM      3  C   UNL     1       7.373   5.017   4.519  0.00  0.00    +0.000 A 
ATOM      4  N   UNL     1       8.294   5.827   5.084  0.00  0.00    +0.000 NA
ATOM      5  C   UNL     1       7.807   6.710   5.989  0.00  0.00    +0.000 A 
ATOM      6  C   UNL     1       6.458   6.802   6.332  0.00  0.00    +0.000 A 
ATOM      7  N   UNL     1       5.554   5.963   5.760  0.00  0.00    +0.000 NA
BRANCH   6   8
ATOM      8  C   UNL     1       5.938   7.766   7.313  0.00  0.00    +0.000 A 
ATOM      9  C   UNL     1       4.819   7.487   8.113  0.00  0.00    +0.000 A 
ATOM     10  C   UNL     1       4.368   8.415   9.054  0.00  0.00    +0.000 A 
ATOM     11  C   UNL     1       5.046   9.614   9.172  0.00  0.00    +0.000 A 
ATOM     12  N   UNL     1       6.115   9.941   8.420  0.00  0.00    +0.000 NA
ATOM     13  C   UNL     1       6.524   9.018   7.512  0.00  0.00    +0.000 A 
ENDBRANCH   6   8
ENDBRANCH   1   2
BRANCH   1  14
ATOM     14  O   UNL     1       5.431   3.737   2.897  0.00  0.00    +0.000 OA
BRANCH  14  18
ATOM     15  C   UNL     1       2.764   1.184   1.076  0.00  0.00    +0.000 A 
ATOM     16  C   UNL     1       3.918   1.576   0.396  0.00  0.00    +0.000 A 
ATOM     17  C   UNL     1       4.819   2.438   1.024  0.00  0.00    +0.000 A 
ATOM     18  C   UNL     1       4.531   2.873   2.311  0.00  0.00    +0.000 A 
ATOM     19  N   UNL     1       3.429   2.503   2.993  0.00  0.00    +0.000 NA
ATOM     20  C   UNL     1       2.560   1.680   2.357  0.00  0.00    +0.000 A 
BRANCH  15  22
ATOM     21  N   UNL     1       2.126  -0.586  -0.463  0.00  0.00    +0.000 N 
ATOM     22  C   UNL     1       1.731   0.304   0.496  0.00  0.00    +0.000 C 
ATOM     23  O   UNL     1       0.571   0.344   0.881  0.00  0.00    +0.000 OA
ATOM     24  H   UNL     1       1.424  -1.248  -0.772  0.00  0.00    +0.000 HD
ATOM     25  H   UNL     1       3.094  -0.823  -0.626  0.00  0.00    +0.000 HD
ENDBRANCH  15  22
ENDBRANCH  14  18
ENDBRANCH   1  14
TORSDOF 5
