REMARK  Name = 
REMARK  5 active torsions:
REMARK  status: ('A' for Active; 'I' for Inactive)
REMARK    1  A    between atoms: C_2  and  C_4
REMARK    2  A    between atoms: C_7  and  O_8
REMARK    3  A    between atoms: O_8  and  C_9
REMARK    4  A    between atoms: C_9  and  C_10
REMARK    5  A    between atoms: C_14  and  C_15
REMARK                            x       y       z     vdW  Elec       q    Type
REMARK                         _______ _______ _______ _____ _____    ______ ____
ROOT
ATOM      1  C   UNL     1       4.513   5.217  -3.136  0.00  0.00    +0.000 C 
ENDROOT
BRANCH   1   2
ATOM      2  C   UNL     1       5.256   6.188  -4.028  0.00  0.00    +0.000 A 
ATOM      3  C   UNL     1       4.912   7.540  -4.094  0.00  0.00    +0.000 A 
ATOM      4  C   UNL     1       5.656   8.412  -4.883  0.00  0.00    +0.000 A 
ATOM      5  C   UNL     1       6.770   7.945  -5.586  0.00  0.00    +0.000 A 
ATOM      6  C   UNL     1       7.190   6.605  -5.500  0.00  0.00    +0.000 A 
ATOM      7  C   UNL     1       6.395   5.740  -4.726  0.00  0.00    +0.000 A 
BRANCH   6   8
ATOM      8  C   UNL     1       8.463   6.150  -6.115  0.00  0.00    +0.000 A 
ATOM      9  C   UNL     1       9.576   7.015  -6.170  0.00  0.00    +0.000 A 
ATOM     10  C   UNL     1      10.816   6.596  -6.665  0.00  0.00    +0.000 A 
ATOM     11  C   UNL     1      10.982   5.291  -7.114  0.00  0.00    +0.000 A 
ATOM     12  C   UNL     1       9.901   4.416  -7.088  0.00  0.00    +0.000 A 
ATOM     13  C   UNL     1       8.662   4.847  -6.604  0.00  0.00    +0.000 A 
ATOM     14  F   UNL     1       7.656   3.958  -6.616  0.00  0.00    +0.000 F 
ENDBRANCH   6   8
ENDBRANCH   1   2
BRANCH   1  15
ATOM     15  O   UNL     1       3.156   5.629  -2.929  0.00  0.00    +0.000 OA
BRANCH  15  19
ATOM     16  C   UNL     1       1.069   3.050  -0.494  0.00  0.00    +0.000 A 
ATOM     17  C   UNL     1       0.428   4.175  -1.019  0.00  0.00    +0.000 A 
ATOM     18  C   UNL     1       1.148   5.049  -1.835  0.00  0.00    +0.000 A 
ATOM     19  C   UNL     1       2.480   4.763  -2.095  0.00  0.00    +0.000 A 
ATOM     20  N   UNL     1       3.128   3.693  -1.581  0.00  0.00    +0.000 NA
ATOM     21  C   UNL     1       2.412   2.868  -0.784  0.00  0.00    +0.000 A 
BRANCH  16  23
ATOM     22  N   UNL     1      -0.947   1.871   0.156  0.00  0.00    +0.000 N 
ATOM     23  C   UNL     1       0.391   2.046   0.351  0.00  0.00    +0.000 C 
ATOM     24  O   UNL     1       1.015   1.363   1.156  0.00  0.00    +0.000 OA
ATOM     25  H   UNL     1      -1.368   1.088   0.644  0.00  0.00    +0.000 HD
ATOM     26  H   UNL     1      -1.422   2.210  -0.668  0.00  0.00    +0.000 HD
ENDBRANCH  16  23
ENDBRANCH  15  19
ENDBRANCH   1  15
TORSDOF 5
