REMARK  Name = 
REMARK  4 active torsions:
REMARK  status: ('A' for Active; 'I' for Inactive)
REMARK    1  A    between atoms: C_2  and  C_3
REMARK    2  A    between atoms: N_7  and  C_8
REMARK    3  A    between atoms: C_8  and  C_9
REMARK    4  A    between atoms: C_14  and  C_15
REMARK                            x       y       z     vdW  Elec       q    Type
REMARK                         _______ _______ _______ _____ _____    ______ ____
ROOT
ATOM      1  C   UNL     1      -5.385   0.116   0.229  0.00  0.00    +0.000 A 
ATOM      2  C   UNL     1      -5.698  -0.934  -0.645  0.00  0.00    +0.000 A 
ATOM      3  C   UNL     1      -6.292  -2.089  -0.162  0.00  0.00    +0.000 A 
ATOM      4  F   UNL     1      -6.443  -3.139  -0.980  0.00  0.00    +0.000 F 
ATOM      5  C   UNL     1      -6.651  -2.209   1.177  0.00  0.00    +0.000 A 
ATOM      6  C   UNL     1      -6.469  -1.143   2.066  0.00  0.00    +0.000 A 
ATOM      7  C   UNL     1      -5.850   0.019   1.559  0.00  0.00    +0.000 A 
ENDROOT
BRANCH   6   8
ATOM      8  C   UNL     1      -6.811  -1.259   3.503  0.00  0.00    +0.000 A 
ATOM      9  C   UNL     1      -6.585  -2.450   4.214  0.00  0.00    +0.000 A 
ATOM     10  C   UNL     1      -6.876  -2.558   5.577  0.00  0.00    +0.000 A 
ATOM     11  C   UNL     1      -7.391  -1.461   6.261  0.00  0.00    +0.000 A 
ATOM     12  C   UNL     1      -7.619  -0.274   5.582  0.00  0.00    +0.000 A 
ATOM     13 CL   UNL     1      -8.229   1.095   6.433  0.00  0.00    +0.000 Cl
ATOM     14  C   UNL     1      -7.339  -0.164   4.217  0.00  0.00    +0.000 A 
ENDBRANCH   6   8
BRANCH   1  15
ATOM     15  C   UNL     1      -4.344   1.150  -0.166  0.00  0.00    +0.000 C 
ATOM     16  C   UNL     1      -4.660   2.240  -1.172  0.00  0.00    +0.000 C 
ATOM     17  C   UNL     1      -4.508   2.588   0.273  0.00  0.00    +0.000 C 
BRANCH  15  22
ATOM     18  C   UNL     1      -0.159  -0.963   2.176  0.00  0.00    +0.000 A 
ATOM     19  C   UNL     1      -1.143  -0.146   2.731  0.00  0.00    +0.000 A 
ATOM     20  C   UNL     1      -2.174   0.338   1.917  0.00  0.00    +0.000 A 
ATOM     21  C   UNL     1      -2.188  -0.010   0.573  0.00  0.00    +0.000 A 
ATOM     22  N   UNL     1      -3.030   0.542  -0.381  0.00  0.00    +0.000 N 
ATOM     23  N   UNL     1      -1.278  -0.859   0.047  0.00  0.00    +0.000 NA
ATOM     24  C   UNL     1      -0.287  -1.309   0.845  0.00  0.00    +0.000 A 
ATOM     25  H   UNL     1      -2.901  -0.010  -1.226  0.00  0.00    +0.000 HD
BRANCH  18  27
ATOM     26  N   UNL     1       1.926  -1.739   3.496  0.00  0.00    +0.000 NA
ATOM     27  C   UNL     1       0.979  -1.398   2.921  0.00  0.00    +0.000 C 
ENDBRANCH  18  27
ENDBRANCH  15  22
ENDBRANCH   1  15
TORSDOF 4
