REMARK  Name = 
REMARK  9 active torsions:
REMARK  status: ('A' for Active; 'I' for Inactive)
REMARK    1  A    between atoms: C_1  and  O_2
REMARK    2  A    between atoms: O_2  and  C_3
REMARK    3  A    between atoms: C_10  and  C_11
REMARK    4  A    between atoms: N_13  and  C_14
REMARK    5  A    between atoms: C_14  and  C_15
REMARK    6  A    between atoms: C_18  and  C_19
REMARK    7  A    between atoms: C_19  and  C_20
REMARK    8  A    between atoms: C_20  and  C_21
REMARK    9  A    between atoms: C_21  and  C_22
REMARK                            x       y       z     vdW  Elec       q    Type
REMARK                         _______ _______ _______ _____ _____    ______ ____
ROOT
ATOM      1  C   UNL     1       3.034  -2.047   2.762  0.00  0.00    +0.000 C 
ENDROOT
BRANCH   1   2
ATOM      2  C   UNL     1       1.921  -1.175   3.285  0.00  0.00    +0.000 A 
ATOM      3  C   UNL     1       0.744  -1.743   3.789  0.00  0.00    +0.000 A 
ATOM      4  C   UNL     1      -0.296  -0.934   4.259  0.00  0.00    +0.000 A 
ATOM      5  C   UNL     1      -0.183   0.462   4.233  0.00  0.00    +0.000 A 
ATOM      6  C   UNL     1       0.979   1.030   3.696  0.00  0.00    +0.000 A 
ATOM      7  C   UNL     1       2.019   0.221   3.225  0.00  0.00    +0.000 A 
BRANCH   5   8
ATOM      8  C   UNL     1      -1.293   1.348   4.750  0.00  0.00    +0.000 C 
BRANCH   8   9
ATOM      9  C   UNL     1      -1.668   1.121   6.221  0.00  0.00    +0.000 C 
BRANCH   9  10
ATOM     10  C   UNL     1      -0.518   1.397   7.196  0.00  0.00    +0.000 C 
BRANCH  10  11
ATOM     11  C   UNL     1      -0.927   1.129   8.624  0.00  0.00    +0.000 A 
ATOM     12  C   UNL     1      -0.794  -0.151   9.169  0.00  0.00    +0.000 A 
ATOM     13  C   UNL     1      -1.198  -0.366  10.478  0.00  0.00    +0.000 A 
ATOM     14  N   UNL     1      -1.720   0.593  11.270  0.00  0.00    +0.000 NA
ATOM     15  C   UNL     1      -1.845   1.822  10.724  0.00  0.00    +0.000 A 
ATOM     16  C   UNL     1      -1.472   2.136   9.426  0.00  0.00    +0.000 A 
ENDBRANCH  10  11
ENDBRANCH   9  10
ENDBRANCH   8   9
ENDBRANCH   5   8
ENDBRANCH   1   2
BRANCH   1  19
ATOM     17  C   UNL     1       3.700  -3.128   0.649  0.00  0.00    +0.000 C 
ATOM     18  O   UNL     1       4.676  -3.655   1.179  0.00  0.00    +0.000 OA
ATOM     19  N   UNL     1       2.850  -2.326   1.360  0.00  0.00    +0.000 N 
ATOM     20  H   UNL     1       2.078  -1.871   0.897  0.00  0.00    +0.000 HD
BRANCH  17  28
ATOM     21  C   UNL     1       1.141  -2.071  -1.400  0.00  0.00    +0.000 A 
ATOM     22  N   UNL     1       0.285  -1.798  -2.404  0.00  0.00    +0.000 NA
ATOM     23  C   UNL     1       0.548  -2.310  -3.609  0.00  0.00    +0.000 A 
ATOM     24  N   UNL     1       1.581  -3.078  -3.944  0.00  0.00    +0.000 NA
ATOM     25  C   UNL     1       2.413  -3.319  -2.917  0.00  0.00    +0.000 A 
ATOM     26  S   UNL     1       3.789  -4.283  -3.162  0.00  0.00    +0.000 S 
ATOM     27  C   UNL     1       4.258  -4.115  -1.538  0.00  0.00    +0.000 A 
ATOM     28  C   UNL     1       3.394  -3.332  -0.779  0.00  0.00    +0.000 A 
ATOM     29  C   UNL     1       2.288  -2.858  -1.610  0.00  0.00    +0.000 A 
BRANCH  21  31
ATOM     30  C   UNL     1      -0.493  -1.217   0.042  0.00  0.00    +0.000 C 
ATOM     31  O   UNL     1       0.886  -1.514  -0.164  0.00  0.00    +0.000 OA
ENDBRANCH  21  31
ENDBRANCH  17  28
ENDBRANCH   1  19
TORSDOF 8
