REMARK  Name = 
REMARK  5 active torsions:
REMARK  status: ('A' for Active; 'I' for Inactive)
REMARK    1  A    between atoms: N_1  and  C_2
REMARK    2  A    between atoms: C_2  and  C_3
REMARK    3  A    between atoms: C_6  and  C_7
REMARK    4  A    between atoms: C_7  and  N_8
REMARK    5  A    between atoms: C_13  and  C_14
REMARK                            x       y       z     vdW  Elec       q    Type
REMARK                         _______ _______ _______ _____ _____    ______ ____
ROOT
ATOM      1  N   UNL     1       0.446  -4.589   2.619  0.00  0.00    +0.000 N 
ATOM      2  C   UNL     1       0.317  -5.086   1.345  0.00  0.00    +0.000 A 
ATOM      3  C   UNL     1      -0.084  -6.397   1.434  0.00  0.00    +0.000 A 
ATOM      4  C   UNL     1      -0.190  -6.720   2.811  0.00  0.00    +0.000 A 
ATOM      5  C   UNL     1      -0.563  -7.893   3.497  0.00  0.00    +0.000 A 
ATOM      6  C   UNL     1      -0.544  -7.905   4.898  0.00  0.00    +0.000 A 
ATOM      7  C   UNL     1      -0.196  -6.753   5.608  0.00  0.00    +0.000 A 
ATOM      8  C   UNL     1       0.162  -5.572   4.945  0.00  0.00    +0.000 A 
ATOM      9  C   UNL     1       0.161  -5.579   3.541  0.00  0.00    +0.000 A 
ENDROOT
BRANCH   6  10
ATOM     10  C   UNL     1      -0.900  -9.131   5.663  0.00  0.00    +0.000 C 
ATOM     11  N   UNL     1      -0.728 -10.333   5.034  0.00  0.00    +0.000 N 
ATOM     12  O   UNL     1      -1.289  -9.078   6.823  0.00  0.00    +0.000 OA
ATOM     13  H   UNL     1      -0.184 -10.430   4.189  0.00  0.00    +0.000 HD
ATOM     14  H   UNL     1      -0.862 -11.160   5.602  0.00  0.00    +0.000 HD
ENDBRANCH   6  10
BRANCH   1  15
ATOM     15  C   UNL     1       0.727  -3.191   2.915  0.00  0.00    +0.000 C 
BRANCH  15  19
ATOM     16  C   UNL     1       3.062  -0.783   1.123  0.00  0.00    +0.000 C 
ATOM     17  C   UNL     1       2.878  -2.267   0.762  0.00  0.00    +0.000 C 
ATOM     18  C   UNL     1       3.120  -3.193   1.953  0.00  0.00    +0.000 C 
ATOM     19  C   UNL     1       2.216  -2.862   3.152  0.00  0.00    +0.000 C 
ATOM     20  C   UNL     1       2.389  -1.379   3.530  0.00  0.00    +0.000 C 
ATOM     21  C   UNL     1       2.203  -0.422   2.348  0.00  0.00    +0.000 C 
BRANCH  16  22
ATOM     22  C   UNL     1       4.540  -0.395   1.343  0.00  0.00    +0.000 C 
BRANCH  22  23
ATOM     23  N   UNL     1       5.346  -0.652   0.153  0.00  0.00    +0.000 NA
ATOM     24  H   UNL     1       6.292  -0.299   0.297  0.00  0.00    +0.000 HD
ATOM     25  H   UNL     1       4.965  -0.139  -0.641  0.00  0.00    +0.000 HD
ENDBRANCH  22  23
ENDBRANCH  16  22
ENDBRANCH  15  19
ENDBRANCH   1  15
TORSDOF 5
