REMARK  Name = 
REMARK  7 active torsions:
REMARK  status: ('A' for Active; 'I' for Inactive)
REMARK    1  A    between atoms: C_2  and  C_19
REMARK    2  A    between atoms: N_3  and  C_4
REMARK    3  A    between atoms: C_4  and  C_5
REMARK    4  A    between atoms: C_8  and  C_9
REMARK    5  A    between atoms: C_9  and  N_10
REMARK    6  A    between atoms: N_10  and  C_11
REMARK    7  A    between atoms: C_11  and  C_12
REMARK                            x       y       z     vdW  Elec       q    Type
REMARK                         _______ _______ _______ _____ _____    ______ ____
ROOT
ATOM      1  C   UNL     1       2.248   1.619  -1.799  0.00  0.00    +0.000 C 
ENDROOT
BRANCH   1   2
ATOM      2  C   UNL     1       3.131   2.438  -2.679  0.00  0.00    +0.000 C 
ATOM      3  C   UNL     1       3.095   3.768  -2.830  0.00  0.00    +0.000 C 
ATOM      4  C   UNL     1       4.081   4.246  -3.840  0.00  0.00    +0.000 C 
ATOM      5  C   UNL     1       4.972   3.017  -4.096  0.00  0.00    +0.000 C 
ATOM      6  C   UNL     1       4.178   1.811  -3.549  0.00  0.00    +0.000 C 
BRANCH   5   7
ATOM      7  C   UNL     1       6.352   3.173  -3.425  0.00  0.00    +0.000 C 
BRANCH   7   8
ATOM      8  N   UNL     1       7.197   2.013  -3.720  0.00  0.00    +0.000 NA
ATOM      9  H   UNL     1       7.319   1.916  -4.727  0.00  0.00    +0.000 HD
BRANCH   8  10
ATOM     10  C   UNL     1       8.510   2.122  -3.087  0.00  0.00    +0.000 C 
BRANCH  10  11
ATOM     11  C   UNL     1       9.346   0.903  -3.371  0.00  0.00    +0.000 A 
ATOM     12  C   UNL     1       8.935  -0.375  -2.978  0.00  0.00    +0.000 A 
ATOM     13  C   UNL     1       9.741  -1.477  -3.247  0.00  0.00    +0.000 A 
ATOM     14  C   UNL     1      10.941  -1.265  -3.903  0.00  0.00    +0.000 A 
ATOM     15  N   UNL     1      11.377  -0.049  -4.298  0.00  0.00    +0.000 NA
ATOM     16  C   UNL     1      10.572   1.003  -4.021  0.00  0.00    +0.000 A 
ENDBRANCH  10  11
ENDBRANCH   8  10
ENDBRANCH   7   8
ENDBRANCH   5   7
ENDBRANCH   1   2
BRANCH   1  19
ATOM     17  O   UNL     1       0.190  -0.013  -0.872  0.00  0.00    +0.000 OA
ATOM     18  C   UNL     1       0.149   0.383  -2.033  0.00  0.00    +0.000 C 
ATOM     19  N   UNL     1       1.153   1.132  -2.595  0.00  0.00    +0.000 N 
ATOM     20  H   UNL     1       0.952   1.646  -3.445  0.00  0.00    +0.000 HD
BRANCH  18  21
ATOM     21  C   UNL     1      -0.961   0.032  -2.925  0.00  0.00    +0.000 A 
ATOM     22  C   UNL     1      -1.681  -1.137  -2.721  0.00  0.00    +0.000 A 
ATOM     23  S   UNL     1      -2.901  -1.395  -3.887  0.00  0.00    +0.000 S 
ATOM     24  C   UNL     1      -2.539   0.071  -4.673  0.00  0.00    +0.000 A 
ATOM     25  N   UNL     1      -3.241   0.476  -5.765  0.00  0.00    +0.000 NA
ATOM     26  C   UNL     1      -2.879   1.626  -6.233  0.00  0.00    +0.000 A 
ATOM     27  N   UNL     1      -1.882   2.406  -5.711  0.00  0.00    +0.000 N 
ATOM     28  C   UNL     1      -1.117   2.017  -4.637  0.00  0.00    +0.000 A 
ATOM     29  O   UNL     1      -0.185   2.706  -4.244  0.00  0.00    +0.000 OA
ATOM     30  C   UNL     1      -1.494   0.739  -4.064  0.00  0.00    +0.000 A 
ATOM     31  H   UNL     1      -1.639   3.290  -6.130  0.00  0.00    +0.000 HD
ENDBRANCH  18  21
ENDBRANCH   1  19
TORSDOF 7
