REMARK  Name = 
REMARK  9 active torsions:
REMARK  status: ('A' for Active; 'I' for Inactive)
REMARK    1  A    between atoms: C_1  and  O_2
REMARK    2  A    between atoms: O_2  and  C_3
REMARK    3  A    between atoms: C_10  and  C_11
REMARK    4  A    between atoms: N_13  and  C_14
REMARK    5  A    between atoms: C_14  and  C_15
REMARK    6  A    between atoms: C_18  and  N_19
REMARK    7  A    between atoms: N_19  and  C_20
REMARK    8  A    between atoms: C_20  and  C_21
REMARK    9  A    between atoms: N_24  and  C_25
REMARK                            x       y       z     vdW  Elec       q    Type
REMARK                         _______ _______ _______ _____ _____    ______ ____
ROOT
ATOM      1  C   UNL     1       2.815   1.652   2.868  0.00  0.00    +0.000 C 
ENDROOT
BRANCH   1   2
ATOM      2  C   UNL     1       1.752   2.508   2.227  0.00  0.00    +0.000 A 
ATOM      3  C   UNL     1       0.550   1.939   1.790  0.00  0.00    +0.000 A 
ATOM      4  C   UNL     1      -0.395   2.710   1.105  0.00  0.00    +0.000 A 
ATOM      5  C   UNL     1      -0.180   4.070   0.866  0.00  0.00    +0.000 A 
ATOM      6  C   UNL     1       1.027   4.631   1.306  0.00  0.00    +0.000 A 
ATOM      7  C   UNL     1       1.979   3.865   1.986  0.00  0.00    +0.000 A 
BRANCH   5   8
ATOM      8  N   UNL     1      -1.142   4.775   0.111  0.00  0.00    +0.000 N 
ATOM      9  H   UNL     1      -1.033   4.528  -0.873  0.00  0.00    +0.000 HD
BRANCH   8  10
ATOM     10  C   UNL     1      -1.152   6.222   0.302  0.00  0.00    +0.000 C 
BRANCH  10  11
ATOM     11  C   UNL     1      -2.496   6.869  -0.080  0.00  0.00    +0.000 C 
ATOM     12  C   UNL     1      -2.455   8.368   0.262  0.00  0.00    +0.000 C 
ATOM     13  C   UNL     1      -2.338   8.597   1.775  0.00  0.00    +0.000 C 
ATOM     14  N   UNL     1      -3.408   7.929   2.526  0.00  0.00    +0.000 NA
ATOM     15  C   UNL     1      -3.150   8.039   3.965  0.00  0.00    +0.000 C 
ATOM     16  C   UNL     1      -3.607   6.513   2.170  0.00  0.00    +0.000 C 
ATOM     17  C   UNL     1      -3.699   6.276   0.663  0.00  0.00    +0.000 C 
ENDBRANCH  10  11
ENDBRANCH   8  10
ENDBRANCH   5   8
ENDBRANCH   1   2
BRANCH   1  20
ATOM     18  C   UNL     1       4.330  -0.106   2.046  0.00  0.00    +0.000 C 
ATOM     19  O   UNL     1       4.178  -0.748   3.080  0.00  0.00    +0.000 OA
ATOM     20  N   UNL     1       3.685   1.091   1.855  0.00  0.00    +0.000 N 
ATOM     21  H   UNL     1       3.908   1.664   1.056  0.00  0.00    +0.000 HD
BRANCH  18  29
ATOM     22  C   UNL     1       5.207   1.100  -1.072  0.00  0.00    +0.000 A 
ATOM     23  N   UNL     1       5.714   1.318  -2.304  0.00  0.00    +0.000 NA
ATOM     24  C   UNL     1       6.546   0.409  -2.818  0.00  0.00    +0.000 A 
ATOM     25  N   UNL     1       6.944  -0.722  -2.244  0.00  0.00    +0.000 NA
ATOM     26  C   UNL     1       6.424  -0.898  -1.017  0.00  0.00    +0.000 A 
ATOM     27  S   UNL     1       6.829  -2.292  -0.139  0.00  0.00    +0.000 S 
ATOM     28  C   UNL     1       5.856  -1.811   1.165  0.00  0.00    +0.000 A 
ATOM     29  C   UNL     1       5.211  -0.592   0.972  0.00  0.00    +0.000 A 
ATOM     30  C   UNL     1       5.551  -0.049  -0.340  0.00  0.00    +0.000 A 
BRANCH  22  32
ATOM     31  C   UNL     1       3.671   2.793  -1.540  0.00  0.00    +0.000 C 
ATOM     32  O   UNL     1       4.387   2.071  -0.535  0.00  0.00    +0.000 OA
ENDBRANCH  22  32
ENDBRANCH  18  29
ENDBRANCH   1  20
TORSDOF 7
