REMARK  Name = 
REMARK  6 active torsions:
REMARK  status: ('A' for Active; 'I' for Inactive)
REMARK    1  A    between atoms: C_2  and  C_4
REMARK    2  A    between atoms: C_7  and  N_8
REMARK    3  A    between atoms: N_8  and  C_9
REMARK    4  A    between atoms: C_9  and  C_10
REMARK    5  A    between atoms: C_14  and  C_15
REMARK    6  A    between atoms: C_19  and  C_20
REMARK                            x       y       z     vdW  Elec       q    Type
REMARK                         _______ _______ _______ _____ _____    ______ ____
ROOT
ATOM      1  C   UNL     1       5.134  -6.008   4.510  0.00  0.00    +0.000 A 
ATOM      2  C   UNL     1       5.008  -7.398   4.523  0.00  0.00    +0.000 A 
ATOM      3  C   UNL     1       5.672  -8.109   5.507  0.00  0.00    +0.000 A 
ATOM      4  N   UNL     1       6.438  -7.541   6.464  0.00  0.00    +0.000 NA
ATOM      5  C   UNL     1       6.580  -6.192   6.446  0.00  0.00    +0.000 A 
ATOM      6  C   UNL     1       5.949  -5.406   5.478  0.00  0.00    +0.000 A 
ENDROOT
BRANCH   5   7
ATOM      7  C   UNL     1       7.382  -5.610   7.546  0.00  0.00    +0.000 A 
ATOM      8  C   UNL     1       8.146  -4.442   7.375  0.00  0.00    +0.000 A 
ATOM      9  C   UNL     1       8.846  -3.867   8.440  0.00  0.00    +0.000 A 
ATOM     10  C   UNL     1       8.798  -4.448   9.704  0.00  0.00    +0.000 A 
ATOM     11  C   UNL     1       8.063  -5.620   9.915  0.00  0.00    +0.000 A 
ATOM     12  C   UNL     1       7.377  -6.196   8.828  0.00  0.00    +0.000 A 
BRANCH  11  13
ATOM     13  C   UNL     1       7.978  -6.254  11.281  0.00  0.00    +0.000 C 
ATOM     14  F   UNL     1       8.638  -5.553  12.247  0.00  0.00    +0.000 F 
ATOM     15  F   UNL     1       6.694  -6.370  11.723  0.00  0.00    +0.000 F 
ATOM     16  F   UNL     1       8.501  -7.511  11.314  0.00  0.00    +0.000 F 
ENDBRANCH  11  13
ENDBRANCH   5   7
BRANCH   1  17
ATOM     17  C   UNL     1       4.415  -5.169   3.479  0.00  0.00    +0.000 C 
BRANCH  17  18
ATOM     18  N   UNL     1       5.267  -5.020   2.306  0.00  0.00    +0.000 N 
ATOM     19  H   UNL     1       5.587  -5.917   1.955  0.00  0.00    +0.000 HD
BRANCH  18  23
ATOM     20  C   UNL     1       3.750  -2.775  -0.793  0.00  0.00    +0.000 A 
ATOM     21  C   UNL     1       3.018  -2.960   0.368  0.00  0.00    +0.000 A 
ATOM     22  N   UNL     1       3.475  -3.706   1.411  0.00  0.00    +0.000 NA
ATOM     23  C   UNL     1       4.693  -4.272   1.265  0.00  0.00    +0.000 A 
ATOM     24  C   UNL     1       5.420  -4.064   0.082  0.00  0.00    +0.000 A 
ATOM     25  N   UNL     1       4.979  -3.332  -0.974  0.00  0.00    +0.000 NA
BRANCH  20  27
ATOM     26  N   UNL     1       3.984  -1.838  -3.013  0.00  0.00    +0.000 N 
ATOM     27  C   UNL     1       3.202  -1.935  -1.893  0.00  0.00    +0.000 C 
ATOM     28  O   UNL     1       2.121  -1.366  -1.807  0.00  0.00    +0.000 OA
ATOM     29  H   UNL     1       3.676  -1.270  -3.789  0.00  0.00    +0.000 HD
ATOM     30  H   UNL     1       4.877  -2.316  -3.051  0.00  0.00    +0.000 HD
ENDBRANCH  20  27
ENDBRANCH  18  23
ENDBRANCH  17  18
ENDBRANCH   1  17
TORSDOF 6
