REMARK  Name = 
REMARK  7 active torsions:
REMARK  status: ('A' for Active; 'I' for Inactive)
REMARK    1  A    between atoms: C_1  and  C_2
REMARK    2  A    between atoms: C_2  and  N_3
REMARK    3  A    between atoms: C_2  and  C_12
REMARK    4  A    between atoms: C_4  and  C_6
REMARK    5  A    between atoms: C_15  and  C_16
REMARK    6  A    between atoms: C_16  and  N_17
REMARK    7  A    between atoms: C_18  and  C_20
REMARK                            x       y       z     vdW  Elec       q    Type
REMARK                         _______ _______ _______ _____ _____    ______ ____
ROOT
ATOM      1  C   UNL     1       2.921  -0.773  -1.230  0.00  0.00    +0.000 A 
ATOM      2  C   UNL     1       3.430  -0.037  -2.300  0.00  0.00    +0.000 A 
ATOM      3  C   UNL     1       3.744  -0.692  -3.491  0.00  0.00    +0.000 A 
ATOM      4  C   UNL     1       3.529  -2.067  -3.602  0.00  0.00    +0.000 A 
ATOM      5  C   UNL     1       3.076  -2.730  -2.470  0.00  0.00    +0.000 A 
ATOM      6  N   UNL     1       2.765  -2.119  -1.304  0.00  0.00    +0.000 NA
ENDROOT
BRANCH   1   8
ATOM      7  C   UNL     1       3.553   0.726   0.716  0.00  0.00    +0.000 C 
ATOM      8  C   UNL     1       2.448  -0.095   0.049  0.00  0.00    +0.000 C 
BRANCH   8   9
ATOM      9  N   UNL     1       1.265   0.721  -0.207  0.00  0.00    +0.000 N 
ATOM     10  C   UNL     1       0.264   0.888   0.722  0.00  0.00    +0.000 C 
ATOM     11  O   UNL     1       0.296   0.397   1.847  0.00  0.00    +0.000 OA
ATOM     12  H   UNL     1       1.224   1.306  -1.032  0.00  0.00    +0.000 HD
BRANCH  10  13
ATOM     13  C   UNL     1      -0.917   1.760   0.245  0.00  0.00    +0.000 C 
ATOM     14  C   UNL     1      -1.663   1.106  -0.925  0.00  0.00    +0.000 C 
ATOM     15  C   UNL     1      -2.798   1.999  -1.425  0.00  0.00    +0.000 C 
ATOM     16  C   UNL     1      -2.294   3.411  -1.709  0.00  0.00    +0.000 C 
ATOM     17  C   UNL     1      -1.521   3.974  -0.519  0.00  0.00    +0.000 C 
ATOM     18  N   UNL     1      -0.405   3.097  -0.148  0.00  0.00    +0.000 NA
ATOM     19  H   UNL     1       0.065   3.501   0.665  0.00  0.00    +0.000 HD
ENDBRANCH  10  13
ENDBRANCH   8   9
ENDBRANCH   1   8
BRANCH   4  20
ATOM     20  C   UNL     1       3.803  -2.814  -4.875  0.00  0.00    +0.000 C 
BRANCH  20  21
ATOM     21  N   UNL     1       5.167  -3.267  -4.923  0.00  0.00    +0.000 N 
ATOM     22  C   UNL     1       5.673  -3.915  -6.022  0.00  0.00    +0.000 C 
ATOM     23  O   UNL     1       5.015  -4.083  -7.044  0.00  0.00    +0.000 OA
ATOM     24  H   UNL     1       5.640  -3.371  -4.032  0.00  0.00    +0.000 HD
BRANCH  22  25
ATOM     25  C   UNL     1       7.078  -4.331  -5.925  0.00  0.00    +0.000 A 
ATOM     26  C   UNL     1       7.828  -4.527  -7.076  0.00  0.00    +0.000 A 
ATOM     27  S   UNL     1       9.463  -4.903  -6.767  0.00  0.00    +0.000 S 
ATOM     28  C   UNL     1       9.210  -4.880  -5.084  0.00  0.00    +0.000 A 
ATOM     29  N   UNL     1      10.227  -5.127  -4.216  0.00  0.00    +0.000 NA
ATOM     30  C   UNL     1       9.883  -5.114  -2.971  0.00  0.00    +0.000 A 
ATOM     31  N   UNL     1       8.611  -4.876  -2.514  0.00  0.00    +0.000 N 
ATOM     32  C   UNL     1       7.562  -4.595  -3.351  0.00  0.00    +0.000 A 
ATOM     33  O   UNL     1       6.443  -4.357  -2.910  0.00  0.00    +0.000 OA
ATOM     34  C   UNL     1       7.897  -4.592  -4.763  0.00  0.00    +0.000 A 
ATOM     35  H   UNL     1       8.408  -4.881  -1.525  0.00  0.00    +0.000 HD
ENDBRANCH  22  25
ENDBRANCH  20  21
ENDBRANCH   4  20
TORSDOF 6
