REMARK  Name = 
REMARK  7 active torsions:
REMARK  status: ('A' for Active; 'I' for Inactive)
REMARK    1  A    between atoms: C_1  and  C_2
REMARK    2  A    between atoms: N_7  and  C_8
REMARK    3  A    between atoms: C_12  and  C_13
REMARK    4  A    between atoms: C_13  and  C_14
REMARK    5  A    between atoms: C_14  and  N_15
REMARK    6  A    between atoms: N_15  and  C_16
REMARK    7  A    between atoms: C_19  and  C_20
REMARK                            x       y       z     vdW  Elec       q    Type
REMARK                         _______ _______ _______ _____ _____    ______ ____
ROOT
ATOM      1  C   UNL     1       6.298  -5.925  -0.837  0.00  0.00    +0.000 C 
ENDROOT
BRANCH   1   2
ATOM      2  N   UNL     1       7.452  -6.623  -1.402  0.00  0.00    +0.000 N 
ATOM      3  H   UNL     1       8.228  -6.022  -1.672  0.00  0.00    +0.000 HD
BRANCH   2   4
ATOM      4  C   UNL     1       7.295  -7.726  -2.241  0.00  0.00    +0.000 A 
ATOM      5  C   UNL     1       6.062  -8.330  -2.514  0.00  0.00    +0.000 A 
ATOM      6  C   UNL     1       5.977  -9.499  -3.287  0.00  0.00    +0.000 A 
ATOM      7  C   UNL     1       7.133 -10.112  -3.779  0.00  0.00    +0.000 A 
ATOM      8  C   UNL     1       8.364  -9.529  -3.491  0.00  0.00    +0.000 A 
ATOM      9  F   UNL     1       9.512 -10.080  -3.917  0.00  0.00    +0.000 F 
ATOM     10  C   UNL     1       8.446  -8.356  -2.734  0.00  0.00    +0.000 A 
BRANCH   7  11
ATOM     11  C   UNL     1       6.990 -11.364  -4.568  0.00  0.00    +0.000 C 
ATOM     12  N   UNL     1       8.121 -11.970  -5.034  0.00  0.00    +0.000 N 
ATOM     13  O   UNL     1       5.889 -11.849  -4.799  0.00  0.00    +0.000 OA
ATOM     14  H   UNL     1       9.052 -11.614  -4.855  0.00  0.00    +0.000 HD
ATOM     15  H   UNL     1       8.019 -12.828  -5.559  0.00  0.00    +0.000 HD
ENDBRANCH   7  11
ENDBRANCH   2   4
ENDBRANCH   1   2
BRANCH   1  16
ATOM     16  C   UNL     1       6.752  -4.711  -0.015  0.00  0.00    +0.000 C 
BRANCH  16  21
ATOM     17  C   UNL     1       3.742  -2.362   0.354  0.00  0.00    +0.000 A 
ATOM     18  C   UNL     1       3.349  -2.684   1.658  0.00  0.00    +0.000 A 
ATOM     19  C   UNL     1       4.029  -3.642   2.420  0.00  0.00    +0.000 A 
ATOM     20  C   UNL     1       5.135  -4.306   1.891  0.00  0.00    +0.000 A 
ATOM     21  C   UNL     1       5.582  -3.987   0.609  0.00  0.00    +0.000 A 
ATOM     22  C   UNL     1       4.892  -3.009  -0.127  0.00  0.00    +0.000 A 
BRANCH  17  29
ATOM     23  C   UNL     1       0.793  -0.501  -0.035  0.00  0.00    +0.000 C 
ATOM     24  C   UNL     1       2.306  -0.308   0.113  0.00  0.00    +0.000 C 
ATOM     25  C   UNL     1       2.779   0.964  -0.635  0.00  0.00    +0.000 C 
ATOM     26  O   UNL     1       2.667   0.839  -2.063  0.00  0.00    +0.000 OA
ATOM     27  C   UNL     1       3.461  -0.265  -2.530  0.00  0.00    +0.000 C 
ATOM     28  C   UNL     1       3.009  -1.588  -1.900  0.00  0.00    +0.000 C 
ATOM     29  N   UNL     1       3.031  -1.476  -0.433  0.00  0.00    +0.000 N 
ENDBRANCH  17  29
ENDBRANCH  16  21
ENDBRANCH   1  16
TORSDOF 6
