REMARK  Name = 
REMARK  8 active torsions:
REMARK  status: ('A' for Active; 'I' for Inactive)
REMARK    1  A    between atoms: C_1  and  O_2
REMARK    2  A    between atoms: O_2  and  C_3
REMARK    3  A    between atoms: C_5  and  C_6
REMARK    4  A    between atoms: C_11  and  N_12
REMARK    5  A    between atoms: N_12  and  C_13
REMARK    6  A    between atoms: C_13  and  C_14
REMARK    7  A    between atoms: C_17  and  O_18
REMARK    8  A    between atoms: O_18  and  C_19
REMARK                            x       y       z     vdW  Elec       q    Type
REMARK                         _______ _______ _______ _____ _____    ______ ____
ROOT
ATOM      1  N   UNL     1       4.533  -1.315   0.665  0.00  0.00    +0.000 N 
ATOM      2  H   UNL     1       4.712  -2.315   0.758  0.00  0.00    +0.000 HD
ENDROOT
BRANCH   1   8
ATOM      3  C   UNL     1       5.411  -1.696  -1.582  0.00  0.00    +0.000 A 
ATOM      4  C   UNL     1       5.834  -1.202  -2.814  0.00  0.00    +0.000 A 
ATOM      5  C   UNL     1       5.914   0.172  -2.975  0.00  0.00    +0.000 A 
ATOM      6  N   UNL     1       5.608   1.072  -2.003  0.00  0.00    +0.000 NA
ATOM      7  C   UNL     1       5.183   0.552  -0.825  0.00  0.00    +0.000 A 
ATOM      8  C   UNL     1       5.065  -0.807  -0.540  0.00  0.00    +0.000 A 
BRANCH   5   9
ATOM      9  C   UNL     1       6.329   0.729  -4.299  0.00  0.00    +0.000 C 
ATOM     10  N   UNL     1       6.360   2.094  -4.378  0.00  0.00    +0.000 N 
ATOM     11  O   UNL     1       6.613   0.018  -5.256  0.00  0.00    +0.000 OA
ATOM     12  H   UNL     1       6.073   2.643  -3.580  0.00  0.00    +0.000 HD
ATOM     13  H   UNL     1       6.587   2.535  -5.253  0.00  0.00    +0.000 HD
ENDBRANCH   5   9
BRANCH   3  15
ATOM     14  C   UNL     1       5.898  -3.943  -2.219  0.00  0.00    +0.000 C 
ATOM     15  O   UNL     1       5.273  -3.040  -1.303  0.00  0.00    +0.000 OA
ENDBRANCH   3  15
ENDBRANCH   1   8
BRANCH   1  16
ATOM     16  C   UNL     1       4.252  -0.542   1.884  0.00  0.00    +0.000 C 
ATOM     17  C   UNL     1       2.875  -0.799   2.491  0.00  0.00    +0.000 C 
ATOM     18  C   UNL     1       3.192   0.547   1.934  0.00  0.00    +0.000 C 
BRANCH  16  19
ATOM     19  C   UNL     1       5.437  -0.358   2.832  0.00  0.00    +0.000 A 
ATOM     20  C   UNL     1       6.303   0.746   2.708  0.00  0.00    +0.000 A 
ATOM     21  C   UNL     1       7.321   1.006   3.635  0.00  0.00    +0.000 A 
ATOM     22  C   UNL     1       7.475   0.179   4.740  0.00  0.00    +0.000 A 
ATOM     23  C   UNL     1       6.685  -0.969   4.842  0.00  0.00    +0.000 A 
ATOM     24  C   UNL     1       5.685  -1.234   3.898  0.00  0.00    +0.000 A 
BRANCH  22  25
ATOM     25  O   UNL     1       8.366   0.353   5.754  0.00  0.00    +0.000 OA
BRANCH  25  26
ATOM     26  C   UNL     1       8.756   1.672   6.115  0.00  0.00    +0.000 C 
ATOM     27  F   UNL     1       7.995   2.648   5.573  0.00  0.00    +0.000 F 
ATOM     28  F   UNL     1       8.669   1.790   7.460  0.00  0.00    +0.000 F 
ATOM     29  F   UNL     1      10.043   1.875   5.760  0.00  0.00    +0.000 F 
ENDBRANCH  25  26
ENDBRANCH  22  25
ENDBRANCH  16  19
ENDBRANCH   1  16
TORSDOF 7
