REMARK  Name = 
REMARK  5 active torsions:
REMARK  status: ('A' for Active; 'I' for Inactive)
REMARK    1  A    between atoms: C_2  and  C_19
REMARK    2  A    between atoms: N_3  and  C_4
REMARK    3  A    between atoms: C_4  and  C_5
REMARK    4  A    between atoms: C_8  and  O_9
REMARK    5  A    between atoms: O_9  and  C_10
REMARK                            x       y       z     vdW  Elec       q    Type
REMARK                         _______ _______ _______ _____ _____    ______ ____
ROOT
ATOM      1  O   UNL     1       2.944  -0.163  -2.443  0.00  0.00    +0.000 OA
ATOM      2  C   UNL     1       2.010  -0.916  -2.707  0.00  0.00    +0.000 C 
ATOM      3  N   UNL     1       1.655  -1.962  -1.897  0.00  0.00    +0.000 N 
ATOM      4  H   UNL     1       1.008  -2.658  -2.248  0.00  0.00    +0.000 HD
ENDROOT
BRANCH   2   5
ATOM      5  C   UNL     1       1.170  -0.708  -3.895  0.00  0.00    +0.000 A 
ATOM      6  C   UNL     1       1.119   0.543  -4.493  0.00  0.00    +0.000 A 
ATOM      7  S   UNL     1       0.083   0.614  -5.846  0.00  0.00    +0.000 S 
ATOM      8  C   UNL     1      -0.300  -1.038  -5.712  0.00  0.00    +0.000 A 
ATOM      9  N   UNL     1      -1.128  -1.643  -6.604  0.00  0.00    +0.000 NA
ATOM     10  C   UNL     1      -1.296  -2.908  -6.404  0.00  0.00    +0.000 A 
ATOM     11  N   UNL     1      -0.723  -3.621  -5.387  0.00  0.00    +0.000 N 
ATOM     12  C   UNL     1       0.057  -3.039  -4.418  0.00  0.00    +0.000 A 
ATOM     13  O   UNL     1       0.440  -3.680  -3.443  0.00  0.00    +0.000 OA
ATOM     14  C   UNL     1       0.326  -1.629  -4.626  0.00  0.00    +0.000 A 
ATOM     15  H   UNL     1      -0.923  -4.604  -5.266  0.00  0.00    +0.000 HD
ENDBRANCH   2   5
BRANCH   3  16
ATOM     16  C   UNL     1       2.423  -2.353  -0.746  0.00  0.00    +0.000 C 
BRANCH  16  17
ATOM     17  C   UNL     1       3.382  -3.462  -1.089  0.00  0.00    +0.000 A 
ATOM     18  C   UNL     1       4.672  -3.157  -1.538  0.00  0.00    +0.000 A 
ATOM     19  C   UNL     1       5.575  -4.176  -1.844  0.00  0.00    +0.000 A 
ATOM     20  C   UNL     1       5.215  -5.512  -1.654  0.00  0.00    +0.000 A 
ATOM     21  C   UNL     1       3.907  -5.826  -1.283  0.00  0.00    +0.000 A 
ATOM     22  C   UNL     1       2.991  -4.806  -1.008  0.00  0.00    +0.000 A 
BRANCH  20  23
ATOM     23  O   UNL     1       6.060  -6.579  -1.865  0.00  0.00    +0.000 OA
BRANCH  23  24
ATOM     24  C   UNL     1       7.402  -6.455  -1.579  0.00  0.00    +0.000 A 
ATOM     25  C   UNL     1       7.925  -5.654  -0.556  0.00  0.00    +0.000 A 
ATOM     26  C   UNL     1       9.306  -5.558  -0.379  0.00  0.00    +0.000 A 
ATOM     27  C   UNL     1      10.153  -6.311  -1.183  0.00  0.00    +0.000 A 
ATOM     28  F   UNL     1      11.478  -6.216  -1.014  0.00  0.00    +0.000 F 
ATOM     29  C   UNL     1       9.645  -7.166  -2.154  0.00  0.00    +0.000 A 
ATOM     30  C   UNL     1       8.265  -7.239  -2.352  0.00  0.00    +0.000 A 
ENDBRANCH  23  24
ENDBRANCH  20  23
ENDBRANCH  16  17
ENDBRANCH   3  16
TORSDOF 5
