REMARK  Name = 
REMARK  7 active torsions:
REMARK  status: ('A' for Active; 'I' for Inactive)
REMARK    1  A    between atoms: C_1  and  C_2
REMARK    2  A    between atoms: C_2  and  C_3
REMARK    3  A    between atoms: C_9  and  C_10
REMARK    4  A    between atoms: C_10  and  C_13
REMARK    5  A    between atoms: C_13  and  N_14
REMARK    6  A    between atoms: N_14  and  C_15
REMARK    7  A    between atoms: C_18  and  C_19
REMARK                            x       y       z     vdW  Elec       q    Type
REMARK                         _______ _______ _______ _____ _____    ______ ____
ROOT
ATOM      1  C   UNL     1       6.916   4.180  -2.345  0.00  0.00    +0.000 C 
ATOM      2  F   UNL     1       6.240   4.528  -1.207  0.00  0.00    +0.000 F 
ATOM      3  F   UNL     1       8.063   3.581  -1.907  0.00  0.00    +0.000 F 
ENDROOT
BRANCH   1  12
ATOM      4  C   UNL     1       3.246  -2.971  -5.858  0.00  0.00    +0.000 C 
ATOM      5  C   UNL     1       2.636  -2.290  -4.640  0.00  0.00    +0.000 C 
ATOM      6  C   UNL     1       1.284  -2.861  -4.248  0.00  0.00    +0.000 C 
ATOM      7  C   UNL     1       2.732  -0.765  -4.639  0.00  0.00    +0.000 C 
ATOM      8  C   UNL     1       3.759  -1.009  -3.555  0.00  0.00    +0.000 C 
ATOM      9  N   UNL     1       4.513  -0.118  -2.878  0.00  0.00    +0.000 N 
ATOM     10  C   UNL     1       4.949   1.096  -3.433  0.00  0.00    +0.000 A 
ATOM     11  C   UNL     1       5.698   1.983  -2.659  0.00  0.00    +0.000 A 
ATOM     12  C   UNL     1       6.094   3.223  -3.195  0.00  0.00    +0.000 A 
ATOM     13  C   UNL     1       5.700   3.517  -4.507  0.00  0.00    +0.000 A 
ATOM     14  C   UNL     1       4.959   2.593  -5.204  0.00  0.00    +0.000 A 
ATOM     15  N   UNL     1       4.581   1.413  -4.689  0.00  0.00    +0.000 NA
ATOM     16  N   UNL     1       3.584  -2.280  -3.499  0.00  0.00    +0.000 NA
ATOM     17  H   UNL     1       5.200  -0.556  -2.278  0.00  0.00    +0.000 HD
ENDBRANCH   1  12
BRANCH   1  18
ATOM     18  C   UNL     1       7.293   5.492  -3.089  0.00  0.00    +0.000 C 
BRANCH  18  19
ATOM     19  N   UNL     1       8.127   6.427  -2.325  0.00  0.00    +0.000 N 
ATOM     20  H   UNL     1       7.965   6.421  -1.319  0.00  0.00    +0.000 HD
BRANCH  19  21
ATOM     21  C   UNL     1       8.441   7.678  -2.855  0.00  0.00    +0.000 A 
ATOM     22  C   UNL     1       8.138   8.073  -4.164  0.00  0.00    +0.000 A 
ATOM     23  C   UNL     1       8.578   9.304  -4.674  0.00  0.00    +0.000 A 
ATOM     24  C   UNL     1       9.354  10.156  -3.885  0.00  0.00    +0.000 A 
ATOM     25  C   UNL     1       9.693   9.763  -2.590  0.00  0.00    +0.000 A 
ATOM     26  C   UNL     1       9.242   8.536  -2.088  0.00  0.00    +0.000 A 
BRANCH  24  27
ATOM     27  C   UNL     1       9.830  11.432  -4.480  0.00  0.00    +0.000 C 
ATOM     28  N   UNL     1      10.114  12.459  -3.624  0.00  0.00    +0.000 N 
ATOM     29  O   UNL     1       9.934  11.575  -5.690  0.00  0.00    +0.000 OA
ATOM     30  H   UNL     1       9.875  12.449  -2.644  0.00  0.00    +0.000 HD
ATOM     31  H   UNL     1      10.355  13.347  -4.046  0.00  0.00    +0.000 HD
ENDBRANCH  24  27
ENDBRANCH  19  21
ENDBRANCH  18  19
ENDBRANCH   1  18
TORSDOF 5
