REMARK  Name = 
REMARK  4 active torsions:
REMARK  status: ('A' for Active; 'I' for Inactive)
REMARK    1  A    between atoms: C_2  and  C_4
REMARK    2  A    between atoms: C_7  and  O_8
REMARK    3  A    between atoms: O_8  and  C_9
REMARK    4  A    between atoms: C_9  and  C_10
REMARK                            x       y       z     vdW  Elec       q    Type
REMARK                         _______ _______ _______ _____ _____    ______ ____
ROOT
ATOM      1  C   UNL     1       3.094  -0.456  -1.594  0.00  0.00    +0.000 A 
ATOM      2  C   UNL     1       3.540  -1.623  -0.987  0.00  0.00    +0.000 A 
ATOM      3  C   UNL     1       4.227  -2.550  -1.770  0.00  0.00    +0.000 A 
ATOM      4  C   UNL     1       4.434  -2.290  -3.124  0.00  0.00    +0.000 A 
ATOM      5  C   UNL     1       3.985  -1.072  -3.625  0.00  0.00    +0.000 A 
ATOM      6  N   UNL     1       3.307  -0.152  -2.904  0.00  0.00    +0.000 NA
ENDROOT
BRANCH   1   8
ATOM      7  N   UNL     1       1.857   1.623  -1.532  0.00  0.00    +0.000 N 
ATOM      8  C   UNL     1       2.315   0.555  -0.809  0.00  0.00    +0.000 C 
ATOM      9  O   UNL     1       2.095   0.436   0.389  0.00  0.00    +0.000 OA
ATOM     10  H   UNL     1       1.317   2.343  -1.074  0.00  0.00    +0.000 HD
ATOM     11  H   UNL     1       2.048   1.669  -2.527  0.00  0.00    +0.000 HD
ENDBRANCH   1   8
BRANCH   4  12
ATOM     12  O   UNL     1       5.060  -3.268  -3.844  0.00  0.00    +0.000 OA
BRANCH  12  13
ATOM     13  C   UNL     1       4.817  -3.216  -5.253  0.00  0.00    +0.000 C 
BRANCH  13  14
ATOM     14  C   UNL     1       5.111  -4.558  -5.868  0.00  0.00    +0.000 A 
ATOM     15  C   UNL     1       4.076  -5.314  -6.437  0.00  0.00    +0.000 A 
ATOM     16  C   UNL     1       4.344  -6.547  -7.029  0.00  0.00    +0.000 A 
ATOM     17  C   UNL     1       5.647  -7.037  -7.057  0.00  0.00    +0.000 A 
ATOM     18  C   UNL     1       6.684  -6.296  -6.491  0.00  0.00    +0.000 A 
ATOM     19  C   UNL     1       6.418  -5.061  -5.897  0.00  0.00    +0.000 A 
ENDBRANCH  13  14
ENDBRANCH  12  13
ENDBRANCH   4  12
TORSDOF 4
