REMARK  Name = 
REMARK  6 active torsions:
REMARK  status: ('A' for Active; 'I' for Inactive)
REMARK    1  A    between atoms: C_1  and  C_2
REMARK    2  A    between atoms: C_2  and  C_3
REMARK    3  A    between atoms: C_2  and  C_4
REMARK    4  A    between atoms: C_2  and  C_15
REMARK    5  A    between atoms: C_4  and  N_5
REMARK    6  A    between atoms: C_9  and  C_10
REMARK                            x       y       z     vdW  Elec       q    Type
REMARK                         _______ _______ _______ _____ _____    ______ ____
ROOT
ATOM      1  N   UNL     1       2.555   2.316  -0.674  0.00  0.00    +0.000 N 
ATOM      2  C   UNL     1       3.039   3.269  -1.587  0.00  0.00    +0.000 A 
ATOM      3  C   UNL     1       2.714   4.609  -1.386  0.00  0.00    +0.000 A 
ATOM      4  C   UNL     1       3.164   5.570  -2.294  0.00  0.00    +0.000 A 
ATOM      5  C   UNL     1       3.930   5.180  -3.393  0.00  0.00    +0.000 A 
ATOM      6  C   UNL     1       4.198   3.828  -3.520  0.00  0.00    +0.000 A 
ATOM      7  N   UNL     1       3.767   2.879  -2.653  0.00  0.00    +0.000 NA
ATOM      8  H   UNL     1       2.830   2.593   0.265  0.00  0.00    +0.000 HD
ENDROOT
BRANCH   5   9
ATOM      9  C   UNL     1       4.407   6.203  -4.354  0.00  0.00    +0.000 C 
ATOM     10  N   UNL     1       5.159   5.811  -5.427  0.00  0.00    +0.000 N 
ATOM     11  O   UNL     1       4.140   7.390  -4.198  0.00  0.00    +0.000 OA
ATOM     12  H   UNL     1       5.439   4.870  -5.650  0.00  0.00    +0.000 HD
ATOM     13  H   UNL     1       5.462   6.547  -6.053  0.00  0.00    +0.000 HD
ENDBRANCH   5   9
BRANCH   1  14
ATOM     14  C   UNL     1       2.969   0.945  -0.994  0.00  0.00    +0.000 C 
BRANCH  14  16
ATOM     15  C   UNL     1       0.882  -0.119  -0.056  0.00  0.00    +0.000 C 
ATOM     16  C   UNL     1       2.428  -0.093   0.037  0.00  0.00    +0.000 C 
ATOM     17  C   UNL     1       2.922  -1.490  -0.411  0.00  0.00    +0.000 C 
BRANCH  16  18
ATOM     18  C   UNL     1       2.951   0.202   1.460  0.00  0.00    +0.000 A 
ATOM     19  C   UNL     1       2.084   0.426   2.549  0.00  0.00    +0.000 A 
ATOM     20  C   UNL     1       2.575   0.716   3.827  0.00  0.00    +0.000 A 
ATOM     21  C   UNL     1       3.944   0.786   4.038  0.00  0.00    +0.000 A 
ATOM     22  F   UNL     1       4.408   1.070   5.262  0.00  0.00    +0.000 F 
ATOM     23  C   UNL     1       4.820   0.568   2.987  0.00  0.00    +0.000 A 
ATOM     24  F   UNL     1       6.143   0.640   3.186  0.00  0.00    +0.000 F 
ATOM     25  C   UNL     1       4.337   0.277   1.711  0.00  0.00    +0.000 A 
ENDBRANCH  16  18
ENDBRANCH  14  16
ENDBRANCH   1  14
TORSDOF 4
