REMARK  Name = 
REMARK  6 active torsions:
REMARK  status: ('A' for Active; 'I' for Inactive)
REMARK    1  A    between atoms: C_1  and  O_2
REMARK    2  A    between atoms: O_2  and  C_3
REMARK    3  A    between atoms: C_7  and  N_8
REMARK    4  A    between atoms: N_8  and  C_9
REMARK    5  A    between atoms: C_9  and  C_10
REMARK    6  A    between atoms: C_14  and  C_15
REMARK                            x       y       z     vdW  Elec       q    Type
REMARK                         _______ _______ _______ _____ _____    ______ ____
ROOT
ATOM      1  C   UNL     1       2.023  -4.599   4.779  0.00  0.00    +0.000 A 
ATOM      2  C   UNL     1       1.284  -5.758   4.522  0.00  0.00    +0.000 A 
ATOM      3  C   UNL     1       1.298  -6.813   5.430  0.00  0.00    +0.000 A 
ATOM      4  C   UNL     1       2.047  -6.717   6.606  0.00  0.00    +0.000 A 
ATOM      5  C   UNL     1       2.798  -5.566   6.905  0.00  0.00    +0.000 A 
ATOM      6  C   UNL     1       2.753  -4.508   5.977  0.00  0.00    +0.000 A 
ENDROOT
BRANCH   5   7
ATOM      7  C   UNL     1       3.637  -5.483   8.119  0.00  0.00    +0.000 A 
ATOM      8  C   UNL     1       3.820  -4.287   8.829  0.00  0.00    +0.000 A 
ATOM      9  C   UNL     1       4.652  -4.244   9.948  0.00  0.00    +0.000 A 
ATOM     10  C   UNL     1       5.283  -5.408  10.346  0.00  0.00    +0.000 A 
ATOM     11  N   UNL     1       5.140  -6.585   9.707  0.00  0.00    +0.000 NA
ATOM     12  C   UNL     1       4.331  -6.591   8.618  0.00  0.00    +0.000 A 
ENDBRANCH   5   7
BRANCH   1  13
ATOM     13  C   UNL     1       2.072  -3.480   3.769  0.00  0.00    +0.000 C 
BRANCH  13  14
ATOM     14  N   UNL     1       0.908  -2.618   3.897  0.00  0.00    +0.000 N 
ATOM     15  H   UNL     1       0.634  -2.441   4.861  0.00  0.00    +0.000 HD
BRANCH  14  20
ATOM     16  C   UNL     1       1.361  -0.154   1.127  0.00  0.00    +0.000 A 
ATOM     17  C   UNL     1       0.275   0.662   1.425  0.00  0.00    +0.000 A 
ATOM     18  N   UNL     1      -0.562   0.462   2.470  0.00  0.00    +0.000 NA
ATOM     19  C   UNL     1      -0.294  -0.613   3.250  0.00  0.00    +0.000 A 
ATOM     20  C   UNL     1       0.780  -1.495   3.075  0.00  0.00    +0.000 A 
ATOM     21  C   UNL     1       1.592  -1.248   1.961  0.00  0.00    +0.000 A 
BRANCH  16  23
ATOM     22  C   UNL     1       3.222  -0.618  -0.274  0.00  0.00    +0.000 C 
ATOM     23  O   UNL     1       2.096   0.197   0.030  0.00  0.00    +0.000 OA
ENDBRANCH  16  23
ENDBRANCH  14  20
ENDBRANCH  13  14
ENDBRANCH   1  13
TORSDOF 5
