REMARK  Name = 
REMARK  6 active torsions:
REMARK  status: ('A' for Active; 'I' for Inactive)
REMARK    1  A    between atoms: C_2  and  C_3
REMARK    2  A    between atoms: C_6  and  N_7
REMARK    3  A    between atoms: N_7  and  C_8
REMARK    4  A    between atoms: C_8  and  C_9
REMARK    5  A    between atoms: C_12  and  O_13
REMARK    6  A    between atoms: O_13  and  C_14
REMARK                            x       y       z     vdW  Elec       q    Type
REMARK                         _______ _______ _______ _____ _____    ______ ____
ROOT
ATOM      1  C   UNL     1       8.674  -0.852  -0.491  0.00  0.00    +0.000 C 
ATOM      2  C   UNL     1       8.515  -2.026  -1.459  0.00  0.00    +0.000 C 
ATOM      3  C   UNL     1       8.779  -2.291  -0.016  0.00  0.00    +0.000 C 
ENDROOT
BRANCH   1   4
ATOM      4  C   UNL     1       9.976  -0.069  -0.581  0.00  0.00    +0.000 A 
ATOM      5  C   UNL     1      10.752   0.180   0.560  0.00  0.00    +0.000 A 
ATOM      6  C   UNL     1      12.049   0.686   0.452  0.00  0.00    +0.000 A 
ATOM      7  C   UNL     1      12.594   0.963  -0.801  0.00  0.00    +0.000 A 
ATOM      8  C   UNL     1      11.784   0.877  -1.928  0.00  0.00    +0.000 A 
ATOM      9  C   UNL     1      10.491   0.358  -1.817  0.00  0.00    +0.000 A 
BRANCH   7  10
ATOM     10  O   UNL     1      13.897   1.355  -0.805  0.00  0.00    +0.000 OA
BRANCH  10  11
ATOM     11  C   UNL     1      14.733   0.908  -1.868  0.00  0.00    +0.000 C 
ATOM     12  F   UNL     1      14.117   0.130  -2.785  0.00  0.00    +0.000 F 
ATOM     13  F   UNL     1      15.248   1.985  -2.498  0.00  0.00    +0.000 F 
ATOM     14  F   UNL     1      15.757   0.194  -1.348  0.00  0.00    +0.000 F 
ENDBRANCH  10  11
ENDBRANCH   7  10
ENDBRANCH   1   4
BRANCH   1  15
ATOM     15  N   UNL     1       7.493  -0.015  -0.324  0.00  0.00    +0.000 N 
ATOM     16  H   UNL     1       7.045   0.381  -1.142  0.00  0.00    +0.000 HD
BRANCH  15  20
ATOM     17  C   UNL     1       4.824   0.248   2.777  0.00  0.00    +0.000 A 
ATOM     18  C   UNL     1       4.541   0.703   1.502  0.00  0.00    +0.000 A 
ATOM     19  N   UNL     1       5.428   0.614   0.483  0.00  0.00    +0.000 NA
ATOM     20  C   UNL     1       6.626   0.046   0.758  0.00  0.00    +0.000 A 
ATOM     21  C   UNL     1       6.901  -0.399   2.049  0.00  0.00    +0.000 A 
ATOM     22  N   UNL     1       6.018  -0.317   3.082  0.00  0.00    +0.000 NA
BRANCH  17  24
ATOM     23  N   UNL     1       3.026   0.456   4.636  0.00  0.00    +0.000 NA
ATOM     24  C   UNL     1       3.852   0.354   3.820  0.00  0.00    +0.000 C 
ENDBRANCH  17  24
ENDBRANCH  15  20
ENDBRANCH   1  15
TORSDOF 6
