REMARK  Name = 
REMARK  9 active torsions:
REMARK  status: ('A' for Active; 'I' for Inactive)
REMARK    1  A    between atoms: C_1  and  C_2
REMARK    2  A    between atoms: C_2  and  N_3
REMARK    3  A    between atoms: C_2  and  C_17
REMARK    4  A    between atoms: C_4  and  C_6
REMARK    5  A    between atoms: N_12  and  C_13
REMARK    6  A    between atoms: C_20  and  C_21
REMARK    7  A    between atoms: C_21  and  N_22
REMARK    8  A    between atoms: N_22  and  C_23
REMARK    9  A    between atoms: C_23  and  C_24
REMARK                            x       y       z     vdW  Elec       q    Type
REMARK                         _______ _______ _______ _____ _____    ______ ____
ROOT
ATOM      1  C   UNL     1       2.787  -0.151   1.514  0.00  0.00    +0.000 C 
ATOM      2  C   UNL     1       2.458  -0.034   0.023  0.00  0.00    +0.000 C 
ENDROOT
BRANCH   2   3
ATOM      3  C   UNL     1       2.887   1.312  -0.540  0.00  0.00    +0.000 A 
ATOM      4  C   UNL     1       3.783   1.375  -1.617  0.00  0.00    +0.000 A 
ATOM      5  C   UNL     1       4.135   2.606  -2.183  0.00  0.00    +0.000 A 
ATOM      6  C   UNL     1       3.592   3.804  -1.696  0.00  0.00    +0.000 A 
ATOM      7  C   UNL     1       2.724   3.746  -0.599  0.00  0.00    +0.000 A 
ATOM      8  C   UNL     1       2.376   2.518  -0.030  0.00  0.00    +0.000 A 
BRANCH   6   9
ATOM      9  C   UNL     1       3.917   5.128  -2.352  0.00  0.00    +0.000 C 
BRANCH   9  10
ATOM     10  N   UNL     1       3.496   5.128  -3.752  0.00  0.00    +0.000 NA
ATOM     11  H   UNL     1       2.490   4.955  -3.790  0.00  0.00    +0.000 HD
BRANCH  10  12
ATOM     12  C   UNL     1       3.759   6.421  -4.395  0.00  0.00    +0.000 C 
BRANCH  12  13
ATOM     13  C   UNL     1       3.302   6.439  -5.843  0.00  0.00    +0.000 A 
ATOM     14  C   UNL     1       3.848   5.543  -6.762  0.00  0.00    +0.000 A 
ATOM     15  C   UNL     1       3.404   5.572  -8.081  0.00  0.00    +0.000 A 
ATOM     16  C   UNL     1       2.432   6.494  -8.451  0.00  0.00    +0.000 A 
ATOM     17  C   UNL     1       1.942   7.350  -7.480  0.00  0.00    +0.000 A 
ATOM     18  N   UNL     1       2.350   7.344  -6.190  0.00  0.00    +0.000 NA
ENDBRANCH  12  13
ENDBRANCH  10  12
ENDBRANCH   9  10
ENDBRANCH   6   9
ENDBRANCH   2   3
BRANCH   2  19
ATOM     19  N   UNL     1       1.036  -0.228  -0.205  0.00  0.00    +0.000 N 
ATOM     20  C   UNL     1       0.459  -1.457  -0.386  0.00  0.00    +0.000 C 
ATOM     21  O   UNL     1       1.119  -2.486  -0.495  0.00  0.00    +0.000 OA
ATOM     22  H   UNL     1       0.438   0.556   0.033  0.00  0.00    +0.000 HD
BRANCH  20  23
ATOM     23  C   UNL     1      -1.009  -1.478  -0.480  0.00  0.00    +0.000 A 
ATOM     24  C   UNL     1      -1.645  -2.482  -1.197  0.00  0.00    +0.000 A 
ATOM     25  S   UNL     1      -3.348  -2.373  -1.161  0.00  0.00    +0.000 S 
ATOM     26  C   UNL     1      -3.293  -0.998  -0.159  0.00  0.00    +0.000 A 
ATOM     27  N   UNL     1      -4.434  -0.420   0.297  0.00  0.00    +0.000 NA
ATOM     28  C   UNL     1      -4.248   0.602   1.066  0.00  0.00    +0.000 A 
ATOM     29  N   UNL     1      -3.023   1.126   1.416  0.00  0.00    +0.000 N 
ATOM     30  C   UNL     1      -2.930   2.306   2.249  0.00  0.00    +0.000 C 
ATOM     31  C   UNL     1      -1.834   0.583   0.933  0.00  0.00    +0.000 A 
ATOM     32  O   UNL     1      -0.738   1.083   1.163  0.00  0.00    +0.000 OA
ATOM     33  C   UNL     1      -1.998  -0.599   0.104  0.00  0.00    +0.000 A 
ENDBRANCH  20  23
ENDBRANCH   2  19
TORSDOF 7
