REMARK  Name = 
REMARK  3 active torsions:
REMARK  status: ('A' for Active; 'I' for Inactive)
REMARK    1  A    between atoms: C_2  and  C_19
REMARK    2  A    between atoms: N_3  and  C_4
REMARK    3  A    between atoms: C_4  and  C_5
REMARK                            x       y       z     vdW  Elec       q    Type
REMARK                         _______ _______ _______ _____ _____    ______ ____
ROOT
ATOM      1  C   UNL     1       2.390   1.932  -1.648  0.00  0.00    +0.000 C 
ENDROOT
BRANCH   1   2
ATOM      2  C   UNL     1       3.286   2.940  -2.307  0.00  0.00    +0.000 A 
ATOM      3  C   UNL     1       3.030   4.309  -2.234  0.00  0.00    +0.000 A 
ATOM      4  C   UNL     1       3.864   5.216  -2.897  0.00  0.00    +0.000 A 
ATOM      5  C   UNL     1       4.947   4.733  -3.625  0.00  0.00    +0.000 A 
ATOM      6  N   UNL     1       5.754   5.654  -4.324  0.00  0.00    +0.000 N 
ATOM      7  C   UNL     1       6.568   5.296  -5.371  0.00  0.00    +0.000 C 
ATOM      8  O   UNL     1       6.601   4.182  -5.896  0.00  0.00    +0.000 OA
ATOM      9  N   UNL     1       7.354   6.313  -5.888  0.00  0.00    +0.000 N 
ATOM     10  C   UNL     1       8.176   6.051  -7.051  0.00  0.00    +0.000 C 
ATOM     11  C   UNL     1       9.290   7.069  -6.941  0.00  0.00    +0.000 C 
ATOM     12  N   UNL     1       8.692   8.166  -6.157  0.00  0.00    +0.000 NA
ATOM     13  C   UNL     1       7.804   7.495  -5.203  0.00  0.00    +0.000 C 
ATOM     14  N   UNL     1       5.233   3.418  -3.663  0.00  0.00    +0.000 NA
ATOM     15  C   UNL     1       4.410   2.557  -3.022  0.00  0.00    +0.000 A 
ATOM     16  H   UNL     1       5.500   6.624  -4.257  0.00  0.00    +0.000 HD
ATOM     17  H   UNL     1       8.102   8.705  -6.788  0.00  0.00    +0.000 HD
ENDBRANCH   1   2
BRANCH   1  20
ATOM     18  O   UNL     1       1.447   3.367   0.588  0.00  0.00    +0.000 OA
ATOM     19  C   UNL     1       2.182   2.400   0.766  0.00  0.00    +0.000 C 
ATOM     20  N   UNL     1       2.742   1.695  -0.270  0.00  0.00    +0.000 N 
ATOM     21  H   UNL     1       3.214   0.821  -0.069  0.00  0.00    +0.000 HD
BRANCH  19  22
ATOM     22  C   UNL     1       2.552   1.958   2.114  0.00  0.00    +0.000 A 
ATOM     23  C   UNL     1       2.577   2.860   3.167  0.00  0.00    +0.000 A 
ATOM     24  S   UNL     1       3.067   2.167   4.646  0.00  0.00    +0.000 S 
ATOM     25  C   UNL     1       3.206   0.623   3.941  0.00  0.00    +0.000 A 
ATOM     26  N   UNL     1       3.581  -0.457   4.678  0.00  0.00    +0.000 NA
ATOM     27  C   UNL     1       3.598  -1.570   4.023  0.00  0.00    +0.000 A 
ATOM     28  N   UNL     1       3.274  -1.702   2.697  0.00  0.00    +0.000 N 
ATOM     29  C   UNL     1       2.943  -0.632   1.901  0.00  0.00    +0.000 A 
ATOM     30  O   UNL     1       2.748  -0.768   0.698  0.00  0.00    +0.000 OA
ATOM     31  C   UNL     1       2.894   0.641   2.595  0.00  0.00    +0.000 A 
ATOM     32  H   UNL     1       3.320  -2.601   2.240  0.00  0.00    +0.000 HD
ENDBRANCH  19  22
ENDBRANCH   1  20
TORSDOF 3
