REMARK  Name = 
REMARK  5 active torsions:
REMARK  status: ('A' for Active; 'I' for Inactive)
REMARK    1  A    between atoms: C_2  and  C_17
REMARK    2  A    between atoms: N_3  and  C_4
REMARK    3  A    between atoms: C_4  and  C_5
REMARK    4  A    between atoms: C_8  and  C_9
REMARK    5  A    between atoms: C_9  and  C_10
REMARK                            x       y       z     vdW  Elec       q    Type
REMARK                         _______ _______ _______ _____ _____    ______ ____
ROOT
ATOM      1  O   UNL     1       3.623   0.045   0.194  0.00  0.00    +0.000 OA
ATOM      2  C   UNL     1       3.186  -0.732  -0.650  0.00  0.00    +0.000 C 
ATOM      3  N   UNL     1       2.374  -1.788  -0.328  0.00  0.00    +0.000 N 
ATOM      4  H   UNL     1       2.163  -2.482  -1.037  0.00  0.00    +0.000 HD
ENDROOT
BRANCH   2   5
ATOM      5  C   UNL     1       3.482  -0.557  -2.078  0.00  0.00    +0.000 A 
ATOM      6  C   UNL     1       3.865   0.689  -2.559  0.00  0.00    +0.000 A 
ATOM      7  S   UNL     1       4.200   0.702  -4.231  0.00  0.00    +0.000 S 
ATOM      8  C   UNL     1       3.884  -0.964  -4.361  0.00  0.00    +0.000 A 
ATOM      9  N   UNL     1       4.040  -1.614  -5.550  0.00  0.00    +0.000 NA
ATOM     10  C   UNL     1       3.812  -2.884  -5.496  0.00  0.00    +0.000 A 
ATOM     11  N   UNL     1       3.415  -3.559  -4.368  0.00  0.00    +0.000 N 
ATOM     12  C   UNL     1       3.158  -2.931  -3.176  0.00  0.00    +0.000 A 
ATOM     13  O   UNL     1       2.650  -3.534  -2.236  0.00  0.00    +0.000 OA
ATOM     14  C   UNL     1       3.479  -1.514  -3.160  0.00  0.00    +0.000 A 
ATOM     15  H   UNL     1       3.208  -4.547  -4.406  0.00  0.00    +0.000 HD
ENDBRANCH   2   5
BRANCH   3  16
ATOM     16  C   UNL     1       2.070  -2.160   1.030  0.00  0.00    +0.000 C 
BRANCH  16  17
ATOM     17  C   UNL     1       3.027  -3.191   1.550  0.00  0.00    +0.000 A 
ATOM     18  C   UNL     1       4.254  -2.816   2.088  0.00  0.00    +0.000 A 
ATOM     19  C   UNL     1       5.125  -3.788   2.567  0.00  0.00    +0.000 A 
ATOM     20  C   UNL     1       4.742  -5.126   2.545  0.00  0.00    +0.000 A 
ATOM     21  N   UNL     1       3.565  -5.517   1.998  0.00  0.00    +0.000 NA
ATOM     22  C   UNL     1       2.752  -4.552   1.497  0.00  0.00    +0.000 A 
BRANCH  20  23
ATOM     23  C   UNL     1       5.656  -6.212   3.070  0.00  0.00    +0.000 C 
BRANCH  23  24
ATOM     24  C   UNL     1       5.946  -6.179   4.585  0.00  0.00    +0.000 C 
ATOM     25  C   UNL     1       6.715  -4.948   5.053  0.00  0.00    +0.000 C 
ATOM     26  C   UNL     1       7.465  -5.400   6.286  0.00  0.00    +0.000 C 
ATOM     27  C   UNL     1       7.661  -6.890   6.093  0.00  0.00    +0.000 C 
ATOM     28  N   UNL     1       6.844  -7.291   4.950  0.00  0.00    +0.000 NA
ATOM     29  H   UNL     1       6.301  -8.126   5.170  0.00  0.00    +0.000 HD
ENDBRANCH  23  24
ENDBRANCH  20  23
ENDBRANCH  16  17
ENDBRANCH   3  16
TORSDOF 5
