REMARK  Name = 
REMARK  6 active torsions:
REMARK  status: ('A' for Active; 'I' for Inactive)
REMARK    1  A    between atoms: C_1  and  C_2
REMARK    2  A    between atoms: C_4  and  O_5
REMARK    3  A    between atoms: O_5  and  C_6
REMARK    4  A    between atoms: C_6  and  C_7
REMARK    5  A    between atoms: C_11  and  C_12
REMARK    6  A    between atoms: C_22  and  C_23
REMARK                            x       y       z     vdW  Elec       q    Type
REMARK                         _______ _______ _______ _____ _____    ______ ____
ROOT
ATOM      1  C   UNL     1      -2.949   2.554  -0.009  0.00  0.00    +0.000 C 
ENDROOT
BRANCH   1   2
ATOM      2  C   UNL     1      -3.349   4.006   0.132  0.00  0.00    +0.000 A 
ATOM      3  C   UNL     1      -4.587   4.327   0.702  0.00  0.00    +0.000 A 
ATOM      4  C   UNL     1      -4.985   5.655   0.814  0.00  0.00    +0.000 A 
ATOM      5  C   UNL     1      -4.150   6.676   0.353  0.00  0.00    +0.000 A 
ATOM      6  C   UNL     1      -2.900   6.397  -0.227  0.00  0.00    +0.000 A 
ATOM      7  C   UNL     1      -2.532   5.044  -0.343  0.00  0.00    +0.000 A 
BRANCH   6   8
ATOM      8  C   UNL     1      -1.991   7.479  -0.670  0.00  0.00    +0.000 A 
ATOM      9  C   UNL     1      -1.156   7.332  -1.796  0.00  0.00    +0.000 A 
ATOM     10  C   UNL     1      -0.270   8.342  -2.191  0.00  0.00    +0.000 A 
ATOM     11  C   UNL     1      -0.211   9.530  -1.472  0.00  0.00    +0.000 A 
ATOM     12  C   UNL     1      -1.029   9.694  -0.366  0.00  0.00    +0.000 A 
ATOM     13  F   UNL     1      -0.974  10.836   0.333  0.00  0.00    +0.000 F 
ATOM     14  C   UNL     1      -1.903   8.689   0.040  0.00  0.00    +0.000 A 
ENDBRANCH   6   8
ENDBRANCH   1   2
BRANCH   1  15
ATOM     15  O   UNL     1      -1.523   2.412  -0.020  0.00  0.00    +0.000 OA
BRANCH  15  19
ATOM     16  C   UNL     1      -2.814  -2.150  -0.309  0.00  0.00    +0.000 C 
ATOM     17  C   UNL     1      -1.684  -1.165  -0.247  0.00  0.00    +0.000 A 
ATOM     18  N   UNL     1      -2.081   0.134  -0.175  0.00  0.00    +0.000 NA
ATOM     19  C   UNL     1      -1.137   1.092  -0.113  0.00  0.00    +0.000 A 
ATOM     20  C   UNL     1       0.218   0.824  -0.130  0.00  0.00    +0.000 A 
ATOM     21  C   UNL     1       0.624  -0.508  -0.212  0.00  0.00    +0.000 A 
ATOM     22  C   UNL     1      -0.335  -1.531  -0.279  0.00  0.00    +0.000 A 
BRANCH  22  23
ATOM     23  C   UNL     1       0.080  -2.959  -0.348  0.00  0.00    +0.000 C 
ATOM     24  N   UNL     1       1.283  -3.237  -0.936  0.00  0.00    +0.000 N 
ATOM     25  O   UNL     1      -0.615  -3.870   0.081  0.00  0.00    +0.000 OA
ATOM     26  H   UNL     1       1.810  -2.568  -1.478  0.00  0.00    +0.000 HD
ATOM     27  H   UNL     1       1.509  -4.218  -1.048  0.00  0.00    +0.000 HD
ENDBRANCH  22  23
ENDBRANCH  15  19
ENDBRANCH   1  15
TORSDOF 5
