REMARK  Name = 
REMARK  7 active torsions:
REMARK  status: ('A' for Active; 'I' for Inactive)
REMARK    1  A    between atoms: C_1  and  C_2
REMARK    2  A    between atoms: C_2  and  N_3
REMARK    3  A    between atoms: C_2  and  C_16
REMARK    4  A    between atoms: C_4  and  C_6
REMARK    5  A    between atoms: C_19  and  C_20
REMARK    6  A    between atoms: C_20  and  N_21
REMARK    7  A    between atoms: C_22  and  C_24
REMARK                            x       y       z     vdW  Elec       q    Type
REMARK                         _______ _______ _______ _____ _____    ______ ____
ROOT
ATOM      1  C   UNL     1      11.482 -13.374   1.536  0.00  0.00    +0.000 C 
ATOM      2  C   UNL     1      11.164 -13.133   3.016  0.00  0.00    +0.000 C 
ENDROOT
BRANCH   2   3
ATOM      3  C   UNL     1      10.720 -11.681   3.217  0.00  0.00    +0.000 A 
ATOM      4  C   UNL     1       9.449 -11.353   3.710  0.00  0.00    +0.000 A 
ATOM      5  C   UNL     1       9.090 -10.019   3.968  0.00  0.00    +0.000 A 
ATOM      6  C   UNL     1       9.986  -8.966   3.728  0.00  0.00    +0.000 A 
ATOM      7  C   UNL     1      11.246  -9.289   3.208  0.00  0.00    +0.000 A 
ATOM      8  C   UNL     1      11.600 -10.618   2.940  0.00  0.00    +0.000 A 
BRANCH   6   9
ATOM      9  C   UNL     1       9.633  -7.523   4.010  0.00  0.00    +0.000 C 
BRANCH   9  10
ATOM     10  N   UNL     1       9.997  -7.108   5.351  0.00  0.00    +0.000 N 
ATOM     11  C   UNL     1       9.770  -5.821   5.798  0.00  0.00    +0.000 C 
ATOM     12  O   UNL     1       9.262  -4.944   5.098  0.00  0.00    +0.000 OA
ATOM     13  H   UNL     1      10.179  -7.820   6.040  0.00  0.00    +0.000 HD
BRANCH  11  14
ATOM     14  C   UNL     1      10.162  -5.588   7.282  0.00  0.00    +0.000 C 
ATOM     15  C   UNL     1      11.630  -5.845   7.586  0.00  0.00    +0.000 C 
ATOM     16  C   UNL     1      12.307  -4.590   7.066  0.00  0.00    +0.000 C 
ATOM     17  C   UNL     1      11.265  -3.495   7.252  0.00  0.00    +0.000 C 
ATOM     18  N   UNL     1      10.017  -4.163   7.648  0.00  0.00    +0.000 NA
ATOM     19  H   UNL     1       9.241  -3.770   7.107  0.00  0.00    +0.000 HD
ENDBRANCH  11  14
ENDBRANCH   9  10
ENDBRANCH   6   9
ENDBRANCH   2   3
BRANCH   2  20
ATOM     20  N   UNL     1      12.310 -13.444   3.864  0.00  0.00    +0.000 N 
ATOM     21  C   UNL     1      12.897 -14.682   3.932  0.00  0.00    +0.000 C 
ATOM     22  O   UNL     1      12.524 -15.649   3.268  0.00  0.00    +0.000 OA
ATOM     23  H   UNL     1      12.414 -12.856   4.689  0.00  0.00    +0.000 HD
BRANCH  21  24
ATOM     24  C   UNL     1      14.060 -14.794   4.826  0.00  0.00    +0.000 A 
ATOM     25  C   UNL     1      15.079 -15.703   4.548  0.00  0.00    +0.000 A 
ATOM     26  S   UNL     1      16.309 -15.737   5.734  0.00  0.00    +0.000 S 
ATOM     27  C   UNL     1      15.516 -14.553   6.665  0.00  0.00    +0.000 A 
ATOM     28  N   UNL     1      16.012 -14.152   7.867  0.00  0.00    +0.000 NA
ATOM     29  C   UNL     1      15.295 -13.264   8.470  0.00  0.00    +0.000 A 
ATOM     30  N   UNL     1      14.142 -12.721   7.971  0.00  0.00    +0.000 N 
ATOM     31  C   UNL     1      13.628 -13.052   6.741  0.00  0.00    +0.000 A 
ATOM     32  O   UNL     1      12.653 -12.481   6.286  0.00  0.00    +0.000 OA
ATOM     33  C   UNL     1      14.365 -14.097   6.051  0.00  0.00    +0.000 A 
ATOM     34  H   UNL     1      13.647 -11.997   8.475  0.00  0.00    +0.000 HD
ENDBRANCH  21  24
ENDBRANCH   2  20
TORSDOF 6
