REMARK  Name = 
REMARK  4 active torsions:
REMARK  status: ('A' for Active; 'I' for Inactive)
REMARK    1  A    between atoms: N_1  and  C_2
REMARK    2  A    between atoms: C_2  and  C_3
REMARK    3  A    between atoms: N_5  and  C_6
REMARK    4  A    between atoms: C_6  and  C_7
REMARK                            x       y       z     vdW  Elec       q    Type
REMARK                         _______ _______ _______ _____ _____    ______ ____
ROOT
ATOM      1  C   UNL     1       2.826   4.981  -0.022  0.00  0.00    +0.000 C 
ENDROOT
BRANCH   1   2
ATOM      2  C   UNL     1       1.387   5.227   0.338  0.00  0.00    +0.000 A 
ATOM      3  N   UNL     1       0.515   5.429  -0.670  0.00  0.00    +0.000 NA
ATOM      4  C   UNL     1      -0.781   5.538  -0.319  0.00  0.00    +0.000 A 
ATOM      5  C   UNL     1      -1.240   5.446   0.986  0.00  0.00    +0.000 A 
ATOM      6  C   UNL     1      -2.602   5.515   1.343  0.00  0.00    +0.000 A 
ATOM      7  C   UNL     1      -2.975   5.389   2.679  0.00  0.00    +0.000 A 
ATOM      8  C   UNL     1      -1.995   5.214   3.649  0.00  0.00    +0.000 A 
ATOM      9  C   UNL     1      -0.647   5.160   3.281  0.00  0.00    +0.000 A 
ATOM     10  C   UNL     1      -0.249   5.264   1.955  0.00  0.00    +0.000 A 
ATOM     11  N   UNL     1       1.050   5.169   1.642  0.00  0.00    +0.000 NA
ENDBRANCH   1   2
BRANCH   1  14
ATOM     12  C   UNL     1       3.970   1.564   0.037  0.00  0.00    +0.000 A 
ATOM     13  C   UNL     1       4.016   2.840   0.563  0.00  0.00    +0.000 A 
ATOM     14  N   UNL     1       3.096   3.559  -0.150  0.00  0.00    +0.000 N 
ATOM     15  C   UNL     1       2.528   2.712  -1.061  0.00  0.00    +0.000 A 
ATOM     16  N   UNL     1       3.029   1.500  -0.971  0.00  0.00    +0.000 NA
BRANCH  12  17
ATOM     17  C   UNL     1       4.775   0.365   0.406  0.00  0.00    +0.000 C 
BRANCH  17  18
ATOM     18  N   UNL     1       4.090  -0.375   1.463  0.00  0.00    +0.000 NA
ATOM     19  H   UNL     1       4.566  -1.265   1.594  0.00  0.00    +0.000 HD
ATOM     20  H   UNL     1       3.158  -0.600   1.114  0.00  0.00    +0.000 HD
ENDBRANCH  17  18
ENDBRANCH  12  17
ENDBRANCH   1  14
TORSDOF 4
