REMARK  Name = 
REMARK  7 active torsions:
REMARK  status: ('A' for Active; 'I' for Inactive)
REMARK    1  A    between atoms: N_1  and  C_2
REMARK    2  A    between atoms: C_2  and  C_3
REMARK    3  A    between atoms: C_6  and  C_7
REMARK    4  A    between atoms: C_7  and  O_8
REMARK    5  A    between atoms: O_8  and  C_9
REMARK    6  A    between atoms: C_13  and  C_14
REMARK    7  A    between atoms: C_14  and  O_15
REMARK                            x       y       z     vdW  Elec       q    Type
REMARK                         _______ _______ _______ _____ _____    ______ ____
ROOT
ATOM      1  C   UNL     1       3.802   5.225   2.357  0.00  0.00    +0.000 C 
ENDROOT
BRANCH   1   5
ATOM      2  C   UNL     1       2.786   1.419   0.534  0.00  0.00    +0.000 A 
ATOM      3  C   UNL     1       3.954   2.100   0.163  0.00  0.00    +0.000 A 
ATOM      4  C   UNL     1       4.285   3.326   0.746  0.00  0.00    +0.000 A 
ATOM      5  C   UNL     1       3.455   3.897   1.722  0.00  0.00    +0.000 A 
ATOM      6  C   UNL     1       2.289   3.216   2.094  0.00  0.00    +0.000 A 
ATOM      7  C   UNL     1       1.960   1.989   1.511  0.00  0.00    +0.000 A 
BRANCH   2   8
ATOM      8  C   UNL     1       2.409   0.120  -0.133  0.00  0.00    +0.000 C 
BRANCH   8   9
ATOM      9  N   UNL     1       3.433  -0.902   0.052  0.00  0.00    +0.000 NA
ATOM     10  H   UNL     1       3.079  -1.793  -0.289  0.00  0.00    +0.000 HD
ATOM     11  H   UNL     1       3.599  -1.019   1.051  0.00  0.00    +0.000 HD
ENDBRANCH   8   9
ENDBRANCH   2   8
ENDBRANCH   1   5
BRANCH   1  12
ATOM     12  O   UNL     1       3.246   6.282   1.579  0.00  0.00    +0.000 OA
BRANCH  12  13
ATOM     13  C   UNL     1       3.480   7.564   2.009  0.00  0.00    +0.000 A 
ATOM     14  C   UNL     1       4.175   7.935   3.163  0.00  0.00    +0.000 A 
ATOM     15  C   UNL     1       4.357   9.289   3.464  0.00  0.00    +0.000 A 
ATOM     16  C   UNL     1       3.855  10.278   2.617  0.00  0.00    +0.000 A 
ATOM     17  C   UNL     1       3.142   9.927   1.463  0.00  0.00    +0.000 A 
ATOM     18  C   UNL     1       2.966   8.562   1.175  0.00  0.00    +0.000 A 
BRANCH  17  19
ATOM     19  C   UNL     1       2.658  10.958   0.476  0.00  0.00    +0.000 C 
BRANCH  19  20
ATOM     20  O   UNL     1       2.335  12.193   1.101  0.00  0.00    +0.000 OA
ATOM     21  H   UNL     1       1.621  12.005   1.732  0.00  0.00    +0.000 HD
ENDBRANCH  19  20
ENDBRANCH  17  19
ENDBRANCH  12  13
ENDBRANCH   1  12
TORSDOF 7
