REMARK  Name = 
REMARK  4 active torsions:
REMARK  status: ('A' for Active; 'I' for Inactive)
REMARK    1  A    between atoms: C_2  and  C_3
REMARK    2  A    between atoms: C_6  and  N_7
REMARK    3  A    between atoms: N_7  and  C_8
REMARK    4  A    between atoms: C_8  and  C_9
REMARK                            x       y       z     vdW  Elec       q    Type
REMARK                         _______ _______ _______ _____ _____    ______ ____
ROOT
ATOM      1  C   UNL     1       4.581  -1.193   0.288  0.00  0.00    +0.000 C 
ATOM      2  C   UNL     1       3.247  -1.595   0.899  0.00  0.00    +0.000 C 
ATOM      3  C   UNL     1       3.279  -0.476  -0.082  0.00  0.00    +0.000 C 
ENDROOT
BRANCH   1   4
ATOM      4  C   UNL     1       5.536  -0.258   1.042  0.00  0.00    +0.000 A 
ATOM      5  C   UNL     1       6.118   0.816   0.392  0.00  0.00    +0.000 A 
ATOM      6  C   UNL     1       6.650   1.794   1.192  0.00  0.00    +0.000 A 
ATOM      7  N   UNL     1       6.652   1.732   2.536  0.00  0.00    +0.000 NA
ATOM      8  C   UNL     1       6.147   0.626   3.099  0.00  0.00    +0.000 A 
ATOM      9  N   UNL     1       6.043   0.526   4.461  0.00  0.00    +0.000 N 
ATOM     10  C   UNL     1       6.297   1.672   5.324  0.00  0.00    +0.000 C 
ATOM     11  C   UNL     1       7.623   1.513   6.078  0.00  0.00    +0.000 C 
ATOM     12  O   UNL     1       7.712   0.240   6.743  0.00  0.00    +0.000 OA
ATOM     13  C   UNL     1       7.604  -0.827   5.785  0.00  0.00    +0.000 C 
ATOM     14  C   UNL     1       6.250  -0.791   5.061  0.00  0.00    +0.000 C 
ATOM     15  N   UNL     1       5.617  -0.377   2.382  0.00  0.00    +0.000 NA
ENDBRANCH   1   4
BRANCH   1  16
ATOM     16  N   UNL     1       5.221  -2.119  -0.669  0.00  0.00    +0.000 N 
ATOM     17  H   UNL     1       4.955  -2.036  -1.646  0.00  0.00    +0.000 HD
BRANCH  16  21
ATOM     18  C   UNL     1       6.677  -6.000   0.244  0.00  0.00    +0.000 A 
ATOM     19  C   UNL     1       5.950  -5.295   1.206  0.00  0.00    +0.000 A 
ATOM     20  C   UNL     1       5.473  -4.005   0.926  0.00  0.00    +0.000 A 
ATOM     21  C   UNL     1       5.653  -3.421  -0.333  0.00  0.00    +0.000 A 
ATOM     22  C   UNL     1       6.402  -4.138  -1.280  0.00  0.00    +0.000 A 
ATOM     23  C   UNL     1       6.909  -5.413  -0.999  0.00  0.00    +0.000 A 
BRANCH  18  25
ATOM     24  N   UNL     1       7.586  -8.380   0.770  0.00  0.00    +0.000 NA
ATOM     25  C   UNL     1       7.178  -7.315   0.536  0.00  0.00    +0.000 C 
ENDBRANCH  18  25
ENDBRANCH  16  21
ENDBRANCH   1  16
TORSDOF 4
