REMARK  Name = 
REMARK  6 active torsions:
REMARK  status: ('A' for Active; 'I' for Inactive)
REMARK    1  A    between atoms: C_2  and  C_19
REMARK    2  A    between atoms: N_3  and  C_4
REMARK    3  A    between atoms: C_4  and  C_5
REMARK    4  A    between atoms: C_8  and  O_9
REMARK    5  A    between atoms: O_9  and  C_10
REMARK    6  A    between atoms: C_10  and  C_11
REMARK                            x       y       z     vdW  Elec       q    Type
REMARK                         _______ _______ _______ _____ _____    ______ ____
ROOT
ATOM      1  O   UNL     1       3.966   0.146   0.644  0.00  0.00    +0.000 OA
ATOM      2  C   UNL     1       3.458  -0.565  -0.217  0.00  0.00    +0.000 C 
ATOM      3  N   UNL     1       2.663  -1.635   0.083  0.00  0.00    +0.000 N 
ATOM      4  H   UNL     1       2.268  -2.207  -0.651  0.00  0.00    +0.000 HD
ENDROOT
BRANCH   2   5
ATOM      5  C   UNL     1       3.710  -0.355  -1.644  0.00  0.00    +0.000 A 
ATOM      6  C   UNL     1       4.875   0.264  -2.071  0.00  0.00    +0.000 A 
ATOM      7  S   UNL     1       5.006   0.357  -3.771  0.00  0.00    +0.000 S 
ATOM      8  C   UNL     1       3.489  -0.386  -3.986  0.00  0.00    +0.000 A 
ATOM      9  N   UNL     1       2.991  -0.621  -5.229  0.00  0.00    +0.000 NA
ATOM     10  C   UNL     1       1.821  -1.170  -5.240  0.00  0.00    +0.000 A 
ATOM     11  N   UNL     1       1.100  -1.494  -4.123  0.00  0.00    +0.000 N 
ATOM     12  C   UNL     1       1.559  -1.276  -2.847  0.00  0.00    +0.000 A 
ATOM     13  O   UNL     1       0.885  -1.587  -1.871  0.00  0.00    +0.000 OA
ATOM     14  C   UNL     1       2.885  -0.689  -2.779  0.00  0.00    +0.000 A 
ATOM     15  H   UNL     1       0.183  -1.914  -4.198  0.00  0.00    +0.000 HD
ENDBRANCH   2   5
BRANCH   3  16
ATOM     16  C   UNL     1       2.258  -1.962   1.425  0.00  0.00    +0.000 C 
BRANCH  16  17
ATOM     17  C   UNL     1       3.182  -2.971   2.057  0.00  0.00    +0.000 A 
ATOM     18  C   UNL     1       4.310  -2.553   2.756  0.00  0.00    +0.000 A 
ATOM     19  C   UNL     1       5.122  -3.513   3.359  0.00  0.00    +0.000 A 
ATOM     20  C   UNL     1       4.789  -4.860   3.248  0.00  0.00    +0.000 A 
ATOM     21  C   UNL     1       3.685  -5.186   2.473  0.00  0.00    +0.000 A 
ATOM     22  N   UNL     1       2.873  -4.281   1.885  0.00  0.00    +0.000 NA
BRANCH  20  23
ATOM     23  O   UNL     1       5.587  -5.740   3.921  0.00  0.00    +0.000 OA
BRANCH  23  24
ATOM     24  C   UNL     1       4.970  -6.996   4.217  0.00  0.00    +0.000 C 
BRANCH  24  25
ATOM     25  C   UNL     1       5.680  -7.637   5.371  0.00  0.00    +0.000 A 
ATOM     26  C   UNL     1       5.811  -6.979   6.597  0.00  0.00    +0.000 A 
ATOM     27  C   UNL     1       6.421  -7.626   7.666  0.00  0.00    +0.000 A 
ATOM     28  C   UNL     1       6.878  -8.918   7.472  0.00  0.00    +0.000 A 
ATOM     29  N   UNL     1       6.766  -9.589   6.306  0.00  0.00    +0.000 NA
ATOM     30  C   UNL     1       6.172  -8.935   5.284  0.00  0.00    +0.000 A 
ENDBRANCH  24  25
ENDBRANCH  23  24
ENDBRANCH  20  23
ENDBRANCH  16  17
ENDBRANCH   3  16
TORSDOF 6
