REMARK  Name = 
REMARK  8 active torsions:
REMARK  status: ('A' for Active; 'I' for Inactive)
REMARK    1  A    between atoms: C_1  and  C_2
REMARK    2  A    between atoms: C_2  and  C_3
REMARK    3  A    between atoms: C_2  and  C_4
REMARK    4  A    between atoms: C_2  and  C_5
REMARK    5  A    between atoms: C_8  and  C_9
REMARK    6  A    between atoms: C_9  and  N_10
REMARK    7  A    between atoms: N_10  and  C_11
REMARK    8  A    between atoms: C_14  and  C_15
REMARK                            x       y       z     vdW  Elec       q    Type
REMARK                         _______ _______ _______ _____ _____    ______ ____
ROOT
ATOM      1  N   UNL     1       2.924   5.314   3.735  0.00  0.00    +0.000 N 
ATOM      2  H   UNL     1       2.227   4.669   4.107  0.00  0.00    +0.000 HD
ENDROOT
BRANCH   1   3
ATOM      3  C   UNL     1       3.132   6.410   4.576  0.00  0.00    +0.000 A 
ATOM      4  C   UNL     1       4.225   7.264   4.520  0.00  0.00    +0.000 A 
ATOM      5  N   UNL     1       4.405   8.352   5.301  0.00  0.00    +0.000 NA
ATOM      6  C   UNL     1       3.398   8.616   6.164  0.00  0.00    +0.000 A 
ATOM      7  N   UNL     1       2.260   7.908   6.283  0.00  0.00    +0.000 NA
ATOM      8  C   UNL     1       2.155   6.836   5.467  0.00  0.00    +0.000 A 
BRANCH   6   9
ATOM      9  C   UNL     1       3.585   9.817   7.062  0.00  0.00    +0.000 C 
ATOM     10  N   UNL     1       4.766  10.506   6.890  0.00  0.00    +0.000 N 
ATOM     11  O   UNL     1       2.770  10.182   7.900  0.00  0.00    +0.000 OA
ATOM     12  H   UNL     1       5.427  10.204   6.183  0.00  0.00    +0.000 HD
ATOM     13  H   UNL     1       4.943  11.322   7.457  0.00  0.00    +0.000 HD
ENDBRANCH   6   9
ENDBRANCH   1   3
BRANCH   1  14
ATOM     14  C   UNL     1       4.101   4.606   3.235  0.00  0.00    +0.000 C 
BRANCH  14  18
ATOM     15  C   UNL     1       2.971   1.227   0.867  0.00  0.00    +0.000 A 
ATOM     16  C   UNL     1       2.603   2.505   0.440  0.00  0.00    +0.000 A 
ATOM     17  C   UNL     1       2.962   3.616   1.201  0.00  0.00    +0.000 A 
ATOM     18  C   UNL     1       3.682   3.443   2.383  0.00  0.00    +0.000 A 
ATOM     19  C   UNL     1       4.022   2.143   2.728  0.00  0.00    +0.000 A 
ATOM     20  N   UNL     1       3.684   1.050   2.007  0.00  0.00    +0.000 NA
BRANCH  15  22
ATOM     21  C   UNL     1       3.180   0.069  -1.358  0.00  0.00    +0.000 C 
ATOM     22  C   UNL     1       2.584  -0.018   0.060  0.00  0.00    +0.000 C 
ATOM     23  C   UNL     1       1.050  -0.133  -0.038  0.00  0.00    +0.000 C 
ATOM     24  C   UNL     1       3.110  -1.309   0.727  0.00  0.00    +0.000 C 
ENDBRANCH  15  22
ENDBRANCH  14  18
ENDBRANCH   1  14
TORSDOF 5
