REMARK  Name = 
REMARK  6 active torsions:
REMARK  status: ('A' for Active; 'I' for Inactive)
REMARK    1  A    between atoms: C_2  and  C_4
REMARK    2  A    between atoms: C_7  and  N_8
REMARK    3  A    between atoms: N_8  and  C_9
REMARK    4  A    between atoms: C_9  and  C_10
REMARK    5  A    between atoms: C_10  and  C_13
REMARK    6  A    between atoms: C_15  and  C_16
REMARK                            x       y       z     vdW  Elec       q    Type
REMARK                         _______ _______ _______ _____ _____    ______ ____
ROOT
ATOM      1  C   UNL     1       5.898  -4.367  -5.952  0.00  0.00    +0.000 C 
ATOM      2  F   UNL     1       7.226  -4.062  -5.843  0.00  0.00    +0.000 F 
ATOM      3  F   UNL     1       5.756  -5.565  -5.295  0.00  0.00    +0.000 F 
ENDROOT
BRANCH   1   4
ATOM      4  C   UNL     1       5.455  -4.453  -7.409  0.00  0.00    +0.000 A 
ATOM      5  C   UNL     1       5.574  -5.664  -8.095  0.00  0.00    +0.000 A 
ATOM      6  C   UNL     1       5.202  -5.753  -9.446  0.00  0.00    +0.000 A 
ATOM      7  C   UNL     1       4.725  -4.582 -10.050  0.00  0.00    +0.000 A 
ATOM      8  C   UNL     1       4.633  -3.417  -9.309  0.00  0.00    +0.000 A 
ATOM      9  N   UNL     1       4.984  -3.329  -8.013  0.00  0.00    +0.000 NA
BRANCH   6  10
ATOM     10  C   UNL     1       5.315  -7.020 -10.208  0.00  0.00    +0.000 A 
ATOM     11  C   UNL     1       4.427  -7.331 -11.249  0.00  0.00    +0.000 A 
ATOM     12  C   UNL     1       4.585  -8.516 -11.954  0.00  0.00    +0.000 A 
ATOM     13  N   UNL     1       5.548  -9.420 -11.694  0.00  0.00    +0.000 NA
ATOM     14  C   UNL     1       6.392  -9.123 -10.687  0.00  0.00    +0.000 A 
ATOM     15  C   UNL     1       6.319  -7.960  -9.934  0.00  0.00    +0.000 A 
ENDBRANCH   6  10
ENDBRANCH   1   4
BRANCH   1  16
ATOM     16  C   UNL     1       5.061  -3.312  -5.192  0.00  0.00    +0.000 C 
BRANCH  16  17
ATOM     17  N   UNL     1       5.405  -3.193  -3.763  0.00  0.00    +0.000 N 
ATOM     18  H   UNL     1       5.665  -4.068  -3.310  0.00  0.00    +0.000 HD
BRANCH  17  22
ATOM     19  C   UNL     1       3.534  -0.394  -1.225  0.00  0.00    +0.000 A 
ATOM     20  C   UNL     1       3.122  -0.495  -2.555  0.00  0.00    +0.000 A 
ATOM     21  C   UNL     1       3.723  -1.432  -3.403  0.00  0.00    +0.000 A 
ATOM     22  C   UNL     1       4.717  -2.305  -2.941  0.00  0.00    +0.000 A 
ATOM     23  C   UNL     1       5.134  -2.170  -1.610  0.00  0.00    +0.000 A 
ATOM     24  C   UNL     1       4.556  -1.222  -0.758  0.00  0.00    +0.000 A 
BRANCH  19  26
ATOM     25  N   UNL     1       1.646   0.977  -0.537  0.00  0.00    +0.000 N 
ATOM     26  C   UNL     1       2.940   0.605  -0.301  0.00  0.00    +0.000 C 
ATOM     27  O   UNL     1       3.562   1.051   0.656  0.00  0.00    +0.000 OA
ATOM     28  H   UNL     1       1.218   1.570   0.163  0.00  0.00    +0.000 HD
ATOM     29  H   UNL     1       1.035   0.448  -1.142  0.00  0.00    +0.000 HD
ENDBRANCH  19  26
ENDBRANCH  17  22
ENDBRANCH  16  17
ENDBRANCH   1  16
TORSDOF 6
