REMARK  Name = 
REMARK  7 active torsions:
REMARK  status: ('A' for Active; 'I' for Inactive)
REMARK    1  A    between atoms: C_1  and  C_2
REMARK    2  A    between atoms: C_6  and  C_7
REMARK    3  A    between atoms: C_11  and  C_12
REMARK    4  A    between atoms: C_12  and  O_13
REMARK    5  A    between atoms: O_13  and  C_14
REMARK    6  A    between atoms: C_17  and  C_18
REMARK    7  A    between atoms: C_21  and  C_22
REMARK                            x       y       z     vdW  Elec       q    Type
REMARK                         _______ _______ _______ _____ _____    ______ ____
ROOT
ATOM      1  C   UNL     1      -4.689   4.272   1.781  0.00  0.00    +0.000 C 
ENDROOT
BRANCH   1   6
ATOM      2  C   UNL     1      -1.758   2.558  -0.013  0.00  0.00    +0.000 A 
ATOM      3  C   UNL     1      -1.506   3.510  -1.017  0.00  0.00    +0.000 A 
ATOM      4  C   UNL     1      -2.242   4.693  -1.105  0.00  0.00    +0.000 A 
ATOM      5  C   UNL     1      -3.261   4.950  -0.190  0.00  0.00    +0.000 A 
ATOM      6  C   UNL     1      -3.554   4.023   0.815  0.00  0.00    +0.000 A 
ATOM      7  C   UNL     1      -2.782   2.851   0.910  0.00  0.00    +0.000 A 
BRANCH   2  13
ATOM      8  C   UNL     1       0.394  -1.218   2.556  0.00  0.00    +0.000 C 
ATOM      9  C   UNL     1       0.054  -0.541   1.268  0.00  0.00    +0.000 A 
ATOM     10  C   UNL     1       0.435  -1.076   0.045  0.00  0.00    +0.000 A 
ATOM     11  N   UNL     1       0.149  -0.513  -1.145  0.00  0.00    +0.000 NA
ATOM     12  C   UNL     1      -0.556   0.643  -1.112  0.00  0.00    +0.000 A 
ATOM     13  C   UNL     1      -0.995   1.293   0.047  0.00  0.00    +0.000 A 
ATOM     14  C   UNL     1      -0.671   0.658   1.254  0.00  0.00    +0.000 A 
ENDBRANCH   2  13
ENDBRANCH   1   6
BRANCH   1  15
ATOM     15  O   UNL     1      -4.187   4.986   2.907  0.00  0.00    +0.000 OA
BRANCH  15  16
ATOM     16  C   UNL     1      -5.065   5.258   3.918  0.00  0.00    +0.000 A 
ATOM     17  C   UNL     1      -6.425   4.966   3.939  0.00  0.00    +0.000 A 
ATOM     18  C   UNL     1      -7.194   5.322   5.053  0.00  0.00    +0.000 A 
ATOM     19  C   UNL     1      -6.624   5.950   6.174  0.00  0.00    +0.000 A 
ATOM     20  C   UNL     1      -5.235   6.177   6.191  0.00  0.00    +0.000 A 
ATOM     21  C   UNL     1      -4.469   6.690   7.377  0.00  0.00    +0.000 C 
ATOM     22  C   UNL     1      -4.489   5.873   5.033  0.00  0.00    +0.000 A 
BRANCH  19  23
ATOM     23  C   UNL     1      -7.569   6.285   7.280  0.00  0.00    +0.000 C 
ATOM     24  N   UNL     1      -7.323   7.398   8.036  0.00  0.00    +0.000 N 
ATOM     25  O   UNL     1      -8.586   5.625   7.475  0.00  0.00    +0.000 OA
ATOM     26  H   UNL     1      -6.632   8.090   7.783  0.00  0.00    +0.000 HD
ATOM     27  H   UNL     1      -8.036   7.660   8.700  0.00  0.00    +0.000 HD
ENDBRANCH  19  23
ENDBRANCH  15  16
ENDBRANCH   1  15
TORSDOF 5
