REMARK  Name = 
REMARK  8 active torsions:
REMARK  status: ('A' for Active; 'I' for Inactive)
REMARK    1  A    between atoms: N_1  and  C_2
REMARK    2  A    between atoms: C_2  and  C_3
REMARK    3  A    between atoms: C_2  and  C_6
REMARK    4  A    between atoms: C_3  and  C_4
REMARK    5  A    between atoms: C_4  and  O_5
REMARK    6  A    between atoms: N_9  and  C_10
REMARK    7  A    between atoms: C_10  and  N_11
REMARK    8  A    between atoms: C_16  and  C_17
REMARK                            x       y       z     vdW  Elec       q    Type
REMARK                         _______ _______ _______ _____ _____    ______ ____
ROOT
ATOM      1  C   UNL     1       2.908  -0.545  -1.329  0.00  0.00    +0.000 C 
ATOM      2  C   UNL     1       1.816  -0.871  -2.364  0.00  0.00    +0.000 C 
ATOM      3  C   UNL     1       0.918  -2.030  -1.929  0.00  0.00    +0.000 C 
ATOM      4  N   UNL     1       1.661  -3.251  -1.573  0.00  0.00    +0.000 NA
ATOM      5  C   UNL     1       2.792  -2.993  -0.665  0.00  0.00    +0.000 C 
ATOM      6  C   UNL     1       3.696  -1.854  -1.133  0.00  0.00    +0.000 C 
ENDROOT
BRANCH   1   7
ATOM      7  C   UNL     1       2.375   0.065   0.009  0.00  0.00    +0.000 C 
BRANCH   7   8
ATOM      8  N   UNL     1       1.555   1.255  -0.232  0.00  0.00    +0.000 NA
ATOM      9  H   UNL     1       0.735   1.024  -0.790  0.00  0.00    +0.000 HD
ATOM     10  H   UNL     1       2.083   1.944  -0.766  0.00  0.00    +0.000 HD
ENDBRANCH   7   8
BRANCH   7  11
ATOM     11  C   UNL     1       3.535   0.448   0.955  0.00  0.00    +0.000 C 
BRANCH  11  12
ATOM     12  C   UNL     1       3.102   1.141   2.246  0.00  0.00    +0.000 C 
BRANCH  12  13
ATOM     13  O   UNL     1       4.247   1.380   3.064  0.00  0.00    +0.000 OA
ATOM     14  H   UNL     1       4.644   0.518   3.272  0.00  0.00    +0.000 HD
ENDBRANCH  12  13
ENDBRANCH  11  12
ENDBRANCH   7  11
ENDBRANCH   1   7
BRANCH   4  15
ATOM     15  C   UNL     1       0.767  -4.233  -0.913  0.00  0.00    +0.000 C 
BRANCH  15  16
ATOM     16  N   UNL     1      -0.291  -4.669  -1.818  0.00  0.00    +0.000 N 
ATOM     17  C   UNL     1      -0.107  -5.380  -2.981  0.00  0.00    +0.000 A 
ATOM     18  C   UNL     1      -1.348  -5.743  -3.461  0.00  0.00    +0.000 A 
ATOM     19  C   UNL     1      -2.321  -5.253  -2.550  0.00  0.00    +0.000 A 
ATOM     20  C   UNL     1      -3.719  -5.330  -2.446  0.00  0.00    +0.000 A 
ATOM     21  C   UNL     1      -4.336  -4.719  -1.347  0.00  0.00    +0.000 A 
ATOM     22  C   UNL     1      -3.531  -4.044  -0.435  0.00  0.00    +0.000 A 
ATOM     23  N   UNL     1      -2.183  -3.940  -0.485  0.00  0.00    +0.000 NA
ATOM     24  C   UNL     1      -1.639  -4.567  -1.548  0.00  0.00    +0.000 A 
BRANCH  21  25
ATOM     25  C   UNL     1      -5.811  -4.797  -1.112  0.00  0.00    +0.000 C 
ATOM     26  F   UNL     1      -6.478  -5.512  -2.059  0.00  0.00    +0.000 F 
ATOM     27  F   UNL     1      -6.115  -5.386   0.079  0.00  0.00    +0.000 F 
ATOM     28  F   UNL     1      -6.405  -3.572  -1.082  0.00  0.00    +0.000 F 
ENDBRANCH  21  25
ENDBRANCH  15  16
ENDBRANCH   4  15
TORSDOF 8
