REMARK  Name = 
REMARK  4 active torsions:
REMARK  status: ('A' for Active; 'I' for Inactive)
REMARK    1  A    between atoms: C_2  and  C_4
REMARK    2  A    between atoms: N_8  and  C_9
REMARK    3  A    between atoms: C_9  and  C_10
REMARK    4  A    between atoms: C_13  and  C_14
REMARK                            x       y       z     vdW  Elec       q    Type
REMARK                         _______ _______ _______ _____ _____    ______ ____
ROOT
ATOM      1  C   UNL     1       4.726   1.802  -2.748  0.00  0.00    +0.000 A 
ATOM      2  C   UNL     1       5.921   1.131  -2.657  0.00  0.00    +0.000 A 
ATOM      3  N   UNL     1       6.089  -0.149  -3.055  0.00  0.00    +0.000 NA
ATOM      4  C   UNL     1       5.016  -0.782  -3.562  0.00  0.00    +0.000 A 
ATOM      5  N   UNL     1       5.096  -2.111  -3.965  0.00  0.00    +0.000 N 
ATOM      6  N   UNL     1       3.810  -0.207  -3.694  0.00  0.00    +0.000 NA
ATOM      7  C   UNL     1       3.684   1.070  -3.266  0.00  0.00    +0.000 A 
ATOM      8  H   UNL     1       4.300  -2.316  -4.557  0.00  0.00    +0.000 HD
ENDROOT
BRANCH   1  10
ATOM      9  N   UNL     1       5.598   4.021  -2.302  0.00  0.00    +0.000 N 
ATOM     10  C   UNL     1       4.519   3.184  -2.297  0.00  0.00    +0.000 C 
ATOM     11  O   UNL     1       3.411   3.576  -1.957  0.00  0.00    +0.000 OA
ATOM     12  H   UNL     1       5.410   4.992  -2.078  0.00  0.00    +0.000 HD
ATOM     13  H   UNL     1       6.456   3.827  -2.800  0.00  0.00    +0.000 HD
ENDBRANCH   1  10
BRANCH   5  14
ATOM     14  C   UNL     1       6.368  -2.813  -4.150  0.00  0.00    +0.000 C 
ATOM     15  C   UNL     1       6.412  -4.230  -3.597  0.00  0.00    +0.000 C 
ATOM     16  C   UNL     1       7.236  -3.163  -2.957  0.00  0.00    +0.000 C 
BRANCH  14  17
ATOM     17  C   UNL     1       7.052  -2.515  -5.476  0.00  0.00    +0.000 A 
ATOM     18  C   UNL     1       6.845  -3.286  -6.625  0.00  0.00    +0.000 A 
ATOM     19  C   UNL     1       7.421  -2.925  -7.846  0.00  0.00    +0.000 A 
ATOM     20  C   UNL     1       8.209  -1.777  -7.917  0.00  0.00    +0.000 A 
ATOM     21  N   UNL     1       8.463  -1.024  -6.810  0.00  0.00    +0.000 NA
ATOM     22  C   UNL     1       7.887  -1.409  -5.642  0.00  0.00    +0.000 A 
BRANCH  20  23
ATOM     23  C   UNL     1       8.771  -1.323  -9.259  0.00  0.00    +0.000 C 
ATOM     24  F   UNL     1       8.418  -2.144 -10.295  0.00  0.00    +0.000 F 
ATOM     25  F   UNL     1       8.339  -0.081  -9.625  0.00  0.00    +0.000 F 
ATOM     26  F   UNL     1      10.133  -1.273  -9.287  0.00  0.00    +0.000 F 
ENDBRANCH  20  23
ENDBRANCH  14  17
ENDBRANCH   5  14
TORSDOF 4
