REMARK  Name = 
REMARK  9 active torsions:
REMARK  status: ('A' for Active; 'I' for Inactive)
REMARK    1  A    between atoms: C_1  and  O_2
REMARK    2  A    between atoms: O_2  and  C_3
REMARK    3  A    between atoms: C_10  and  C_11
REMARK    4  A    between atoms: N_13  and  C_14
REMARK    5  A    between atoms: C_14  and  C_15
REMARK    6  A    between atoms: C_18  and  C_19
REMARK    7  A    between atoms: C_19  and  S_20
REMARK    8  A    between atoms: S_20  and  C_21
REMARK    9  A    between atoms: C_21  and  C_22
REMARK                            x       y       z     vdW  Elec       q    Type
REMARK                         _______ _______ _______ _____ _____    ______ ____
ROOT
ATOM      1  C   UNL     1       2.872   3.326   0.620  0.00  0.00    +0.000 C 
ENDROOT
BRANCH   1   2
ATOM      2  C   UNL     1       1.710   3.394  -0.343  0.00  0.00    +0.000 A 
ATOM      3  C   UNL     1       1.322   2.261  -1.071  0.00  0.00    +0.000 A 
ATOM      4  C   UNL     1       0.157   2.270  -1.851  0.00  0.00    +0.000 A 
ATOM      5  C   UNL     1      -0.658   3.409  -1.926  0.00  0.00    +0.000 A 
ATOM      6  C   UNL     1      -0.215   4.572  -1.276  0.00  0.00    +0.000 A 
ATOM      7  C   UNL     1       0.955   4.565  -0.497  0.00  0.00    +0.000 A 
BRANCH   5   8
ATOM      8  C   UNL     1      -1.971   3.383  -2.693  0.00  0.00    +0.000 C 
BRANCH   8   9
ATOM      9  S   UNL     1      -3.132   2.112  -2.052  0.00  0.00    +0.000 S 
BRANCH   9  10
ATOM     10  C   UNL     1      -4.528   2.338  -3.204  0.00  0.00    +0.000 C 
BRANCH  10  11
ATOM     11  C   UNL     1      -5.667   1.375  -2.926  0.00  0.00    +0.000 A 
ATOM     12  C   UNL     1      -6.712   1.732  -2.056  0.00  0.00    +0.000 A 
ATOM     13  C   UNL     1      -7.777   0.856  -1.819  0.00  0.00    +0.000 A 
ATOM     14  C   UNL     1      -7.798  -0.383  -2.445  0.00  0.00    +0.000 A 
ATOM     15  F   UNL     1      -8.822  -1.219  -2.224  0.00  0.00    +0.000 F 
ATOM     16  C   UNL     1      -6.770  -0.767  -3.299  0.00  0.00    +0.000 A 
ATOM     17  C   UNL     1      -5.705   0.108  -3.537  0.00  0.00    +0.000 A 
ENDBRANCH  10  11
ENDBRANCH   9  10
ENDBRANCH   8   9
ENDBRANCH   5   8
ENDBRANCH   1   2
BRANCH   1  20
ATOM     18  C   UNL     1       5.308   3.632   0.724  0.00  0.00    +0.000 C 
ATOM     19  O   UNL     1       5.333   3.263   1.898  0.00  0.00    +0.000 OA
ATOM     20  N   UNL     1       4.132   3.684   0.021  0.00  0.00    +0.000 N 
ATOM     21  H   UNL     1       4.127   3.976  -0.949  0.00  0.00    +0.000 HD
BRANCH  18  29
ATOM     22  C   UNL     1       5.999   4.580  -2.500  0.00  0.00    +0.000 A 
ATOM     23  N   UNL     1       6.500   5.087  -3.642  0.00  0.00    +0.000 NA
ATOM     24  C   UNL     1       7.780   5.470  -3.647  0.00  0.00    +0.000 A 
ATOM     25  N   UNL     1       8.646   5.387  -2.640  0.00  0.00    +0.000 NA
ATOM     26  C   UNL     1       8.100   4.890  -1.518  0.00  0.00    +0.000 A 
ATOM     27  S   UNL     1       9.058   4.688  -0.132  0.00  0.00    +0.000 S 
ATOM     28  C   UNL     1       7.733   4.101   0.758  0.00  0.00    +0.000 A 
ATOM     29  C   UNL     1       6.543   4.063   0.038  0.00  0.00    +0.000 A 
ATOM     30  C   UNL     1       6.780   4.489  -1.337  0.00  0.00    +0.000 A 
BRANCH  22  32
ATOM     31  C   UNL     1       4.235   3.721  -3.762  0.00  0.00    +0.000 C 
ATOM     32  O   UNL     1       4.680   4.184  -2.490  0.00  0.00    +0.000 OA
ENDBRANCH  22  32
ENDBRANCH  18  29
ENDBRANCH   1  20
TORSDOF 8
