REMARK  Name = 
REMARK  7 active torsions:
REMARK  status: ('A' for Active; 'I' for Inactive)
REMARK    1  A    between atoms: C_1  and  C_2
REMARK    2  A    between atoms: C_2  and  C_3
REMARK    3  A    between atoms: C_2  and  N_4
REMARK    4  A    between atoms: C_2  and  C_5
REMARK    5  A    between atoms: C_8  and  C_9
REMARK    6  A    between atoms: C_9  and  N_10
REMARK    7  A    between atoms: C_15  and  C_16
REMARK                            x       y       z     vdW  Elec       q    Type
REMARK                         _______ _______ _______ _____ _____    ______ ____
ROOT
ATOM      1  N   UNL     1       6.203  -4.462  -3.533  0.00  0.00    +0.000 N 
ATOM      2  C   UNL     1       7.095  -5.346  -2.990  0.00  0.00    +0.000 A 
ATOM      3  N   UNL     1       8.249  -5.333  -3.627  0.00  0.00    +0.000 NA
ATOM      4  C   UNL     1       8.088  -4.411  -4.631  0.00  0.00    +0.000 A 
ATOM      5  C   UNL     1       8.955  -4.006  -5.654  0.00  0.00    +0.000 A 
ATOM      6  C   UNL     1       8.475  -3.046  -6.554  0.00  0.00    +0.000 A 
ATOM      7  C   UNL     1       7.187  -2.533  -6.367  0.00  0.00    +0.000 A 
ATOM      8  N   UNL     1       6.309  -2.898  -5.394  0.00  0.00    +0.000 NA
ATOM      9  C   UNL     1       6.823  -3.838  -4.579  0.00  0.00    +0.000 A 
ENDROOT
BRANCH   6  10
ATOM     10  C   UNL     1       9.248  -2.556  -7.720  0.00  0.00    +0.000 C 
ATOM     11  N   UNL     1      10.486  -3.083  -7.956  0.00  0.00    +0.000 N 
ATOM     12  O   UNL     1       8.789  -1.706  -8.473  0.00  0.00    +0.000 OA
ATOM     13  H   UNL     1      10.929  -3.806  -7.412  0.00  0.00    +0.000 HD
ATOM     14  H   UNL     1      10.972  -2.752  -8.781  0.00  0.00    +0.000 HD
ENDBRANCH   6  10
BRANCH   1  15
ATOM     15  C   UNL     1       4.808  -4.332  -3.179  0.00  0.00    +0.000 C 
BRANCH  15  19
ATOM     16  C   UNL     1       3.016  -0.972  -0.960  0.00  0.00    +0.000 C 
ATOM     17  C   UNL     1       2.580  -2.422  -0.648  0.00  0.00    +0.000 C 
ATOM     18  C   UNL     1       3.005  -3.408  -1.730  0.00  0.00    +0.000 C 
ATOM     19  C   UNL     1       4.512  -3.369  -2.016  0.00  0.00    +0.000 C 
ATOM     20  C   UNL     1       4.959  -1.931  -2.313  0.00  0.00    +0.000 C 
ATOM     21  C   UNL     1       4.538  -0.949  -1.217  0.00  0.00    +0.000 C 
BRANCH  16  23
ATOM     22  C   UNL     1       0.999   0.061   0.235  0.00  0.00    +0.000 C 
ATOM     23  C   UNL     1       2.538   0.047   0.139  0.00  0.00    +0.000 C 
ATOM     24  C   UNL     1       2.995   1.484  -0.177  0.00  0.00    +0.000 C 
BRANCH  23  25
ATOM     25  N   UNL     1       3.063  -0.320   1.458  0.00  0.00    +0.000 NA
ATOM     26  H   UNL     1       2.731   0.339   2.161  0.00  0.00    +0.000 HD
ATOM     27  H   UNL     1       4.077  -0.243   1.465  0.00  0.00    +0.000 HD
ENDBRANCH  23  25
ENDBRANCH  16  23
ENDBRANCH  15  19
ENDBRANCH   1  15
TORSDOF 5
