REMARK  Name = 
REMARK  7 active torsions:
REMARK  status: ('A' for Active; 'I' for Inactive)
REMARK    1  A    between atoms: C_1  and  C_2
REMARK    2  A    between atoms: C_2  and  C_3
REMARK    3  A    between atoms: C_7  and  C_8
REMARK    4  A    between atoms: C_8  and  C_9
REMARK    5  A    between atoms: C_9  and  N_10
REMARK    6  A    between atoms: N_10  and  C_11
REMARK    7  A    between atoms: C_14  and  C_15
REMARK                            x       y       z     vdW  Elec       q    Type
REMARK                         _______ _______ _______ _____ _____    ______ ____
ROOT
ATOM      1  C   UNL     1       3.245   3.710  -4.052  0.00  0.00    +0.000 C 
ENDROOT
BRANCH   1   2
ATOM      2  N   UNL     1       3.727   4.998  -4.566  0.00  0.00    +0.000 N 
ATOM      3  H   UNL     1       4.371   4.886  -5.346  0.00  0.00    +0.000 HD
BRANCH   2   4
ATOM      4  C   UNL     1       2.748   5.972  -4.849  0.00  0.00    +0.000 A 
ATOM      5  C   UNL     1       1.552   6.078  -4.132  0.00  0.00    +0.000 A 
ATOM      6  C   UNL     1       0.624   7.088  -4.402  0.00  0.00    +0.000 A 
ATOM      7  C   UNL     1       0.894   8.050  -5.375  0.00  0.00    +0.000 A 
ATOM      8  C   UNL     1       2.102   7.991  -6.072  0.00  0.00    +0.000 A 
ATOM      9  C   UNL     1       3.025   6.969  -5.795  0.00  0.00    +0.000 A 
BRANCH   7  10
ATOM     10  C   UNL     1      -0.135   9.094  -5.620  0.00  0.00    +0.000 C 
ATOM     11  N   UNL     1       0.284  10.289  -6.136  0.00  0.00    +0.000 N 
ATOM     12  O   UNL     1      -1.313   8.918  -5.337  0.00  0.00    +0.000 OA
ATOM     13  H   UNL     1       1.256  10.563  -6.143  0.00  0.00    +0.000 HD
ATOM     14  H   UNL     1      -0.413  11.021  -6.169  0.00  0.00    +0.000 HD
ENDBRANCH   7  10
ENDBRANCH   2   4
ENDBRANCH   1   2
BRANCH   1  15
ATOM     15  C   UNL     1       4.398   2.729  -3.798  0.00  0.00    +0.000 C 
BRANCH  15  20
ATOM     16  C   UNL     1       2.954   0.166  -1.341  0.00  0.00    +0.000 A 
ATOM     17  C   UNL     1       2.648  -0.877  -2.238  0.00  0.00    +0.000 A 
ATOM     18  C   UNL     1       2.933  -0.776  -3.602  0.00  0.00    +0.000 A 
ATOM     19  C   UNL     1       3.524   0.377  -4.108  0.00  0.00    +0.000 A 
ATOM     20  C   UNL     1       3.860   1.425  -3.248  0.00  0.00    +0.000 A 
ATOM     21  C   UNL     1       3.590   1.302  -1.871  0.00  0.00    +0.000 A 
BRANCH  16  23
ATOM     22  C   UNL     1       0.967  -0.007   0.162  0.00  0.00    +0.000 C 
ATOM     23  C   UNL     1       2.504   0.060   0.128  0.00  0.00    +0.000 C 
ATOM     24  C   UNL     1       3.151  -1.143   0.823  0.00  0.00    +0.000 C 
ATOM     25  C   UNL     1       4.389  -0.579   1.505  0.00  0.00    +0.000 C 
ATOM     26  O   UNL     1       4.302   0.850   1.470  0.00  0.00    +0.000 OA
ATOM     27  C   UNL     1       2.970   1.184   1.067  0.00  0.00    +0.000 C 
ENDBRANCH  16  23
ENDBRANCH  15  20
ENDBRANCH   1  15
TORSDOF 6
