REMARK  Name = 
REMARK  8 active torsions:
REMARK  status: ('A' for Active; 'I' for Inactive)
REMARK    1  A    between atoms: C_1  and  N_2
REMARK    2  A    between atoms: N_2  and  C_3
REMARK    3  A    between atoms: C_7  and  C_8
REMARK    4  A    between atoms: C_12  and  C_13
REMARK    5  A    between atoms: C_13  and  N_14
REMARK    6  A    between atoms: N_14  and  C_15
REMARK    7  A    between atoms: C_18  and  C_19
REMARK    8  A    between atoms: C_28  and  C_29
REMARK                            x       y       z     vdW  Elec       q    Type
REMARK                         _______ _______ _______ _____ _____    ______ ____
ROOT
ATOM      1  C   UNL     1       4.798  -4.031   3.237  0.00  0.00    +0.000 A 
ATOM      2  C   UNL     1       4.806  -3.961   4.626  0.00  0.00    +0.000 A 
ATOM      3  C   UNL     1       5.284  -5.046   5.353  0.00  0.00    +0.000 A 
ATOM      4  C   UNL     1       5.773  -6.159   4.678  0.00  0.00    +0.000 A 
ATOM      5  C   UNL     1       5.762  -6.174   3.285  0.00  0.00    +0.000 A 
ATOM      6  N   UNL     1       5.234  -5.133   2.586  0.00  0.00    +0.000 NA
ENDROOT
BRANCH   1  13
ATOM      7  C   UNL     1       2.880  -0.177  -1.520  0.00  0.00    +0.000 C 
ATOM      8  N   UNL     1       2.337  -0.344  -0.190  0.00  0.00    +0.000 N 
ATOM      9  C   UNL     1       1.427   0.634   0.363  0.00  0.00    +0.000 C 
ATOM     10  C   UNL     1       3.020  -1.154   0.693  0.00  0.00    +0.000 A 
ATOM     11  N   UNL     1       2.551  -1.319   1.931  0.00  0.00    +0.000 NA
ATOM     12  C   UNL     1       3.167  -2.230   2.715  0.00  0.00    +0.000 A 
ATOM     13  C   UNL     1       4.278  -2.978   2.359  0.00  0.00    +0.000 A 
ATOM     14  C   UNL     1       4.766  -2.663   1.095  0.00  0.00    +0.000 A 
ATOM     15  N   UNL     1       4.119  -1.786   0.268  0.00  0.00    +0.000 NA
BRANCH  14  16
ATOM     16  C   UNL     1       6.046  -3.245   0.515  0.00  0.00    +0.000 C 
ATOM     17  F   UNL     1       6.949  -3.740   1.410  0.00  0.00    +0.000 F 
ATOM     18  F   UNL     1       5.823  -4.233  -0.399  0.00  0.00    +0.000 F 
ATOM     19  F   UNL     1       6.768  -2.293  -0.162  0.00  0.00    +0.000 F 
ENDBRANCH  14  16
ENDBRANCH   1  13
BRANCH   5  20
ATOM     20  C   UNL     1       6.299  -7.355   2.477  0.00  0.00    +0.000 C 
ATOM     21  C   UNL     1       7.756  -7.762   2.595  0.00  0.00    +0.000 C 
ATOM     22  C   UNL     1       7.320  -6.996   1.399  0.00  0.00    +0.000 C 
ATOM     23  F   UNL     1       7.266  -7.684   0.197  0.00  0.00    +0.000 F 
BRANCH  20  24
ATOM     24  N   UNL     1       5.246  -8.308   2.068  0.00  0.00    +0.000 N 
ATOM     25  H   UNL     1       4.521  -7.874   1.499  0.00  0.00    +0.000 HD
BRANCH  24  26
ATOM     26  C   UNL     1       4.758  -9.357   2.866  0.00  0.00    +0.000 A 
ATOM     27  C   UNL     1       5.447  -9.890   3.960  0.00  0.00    +0.000 A 
ATOM     28  C   UNL     1       4.959 -11.017   4.631  0.00  0.00    +0.000 A 
ATOM     29  C   UNL     1       3.774 -11.635   4.209  0.00  0.00    +0.000 A 
ATOM     30  C   UNL     1       3.092 -11.128   3.110  0.00  0.00    +0.000 A 
ATOM     31  C   UNL     1       3.589 -10.002   2.445  0.00  0.00    +0.000 A 
BRANCH  29  32
ATOM     32  C   UNL     1       3.318 -12.857   4.919  0.00  0.00    +0.000 C 
ATOM     33  N   UNL     1       1.990 -13.182   4.809  0.00  0.00    +0.000 N 
ATOM     34  O   UNL     1       4.081 -13.541   5.588  0.00  0.00    +0.000 OA
ATOM     35  H   UNL     1       1.293 -12.545   4.468  0.00  0.00    +0.000 HD
ATOM     36  H   UNL     1       1.686 -13.975   5.356  0.00  0.00    +0.000 HD
ENDBRANCH  29  32
ENDBRANCH  24  26
ENDBRANCH  20  24
ENDBRANCH   5  20
TORSDOF 6
