REMARK  Name = 
REMARK  7 active torsions:
REMARK  status: ('A' for Active; 'I' for Inactive)
REMARK    1  A    between atoms: C_2  and  C_3
REMARK    2  A    between atoms: C_2  and  C_25
REMARK    3  A    between atoms: C_3  and  O_4
REMARK    4  A    between atoms: O_4  and  C_5
REMARK    5  A    between atoms: C_8  and  C_9
REMARK    6  A    between atoms: C_9  and  N_10
REMARK    7  A    between atoms: C_11  and  C_13
REMARK                            x       y       z     vdW  Elec       q    Type
REMARK                         _______ _______ _______ _____ _____    ______ ____
ROOT
ATOM      1  C   UNL     1       2.722  -3.058  -2.137  0.00  0.00    +0.000 A 
ATOM      2  C   UNL     1       3.694  -3.884  -1.595  0.00  0.00    +0.000 A 
ATOM      3  C   UNL     1       4.225  -4.891  -2.397  0.00  0.00    +0.000 A 
ATOM      4  C   UNL     1       3.759  -5.048  -3.704  0.00  0.00    +0.000 A 
ATOM      5  C   UNL     1       2.737  -4.201  -4.126  0.00  0.00    +0.000 A 
ATOM      6  N   UNL     1       2.214  -3.205  -3.377  0.00  0.00    +0.000 NA
ENDROOT
BRANCH   1   7
ATOM      7  O   UNL     1       2.265  -2.035  -1.338  0.00  0.00    +0.000 OA
BRANCH   7   8
ATOM      8  C   UNL     1       1.764  -0.935  -2.099  0.00  0.00    +0.000 C 
BRANCH   8  10
ATOM      9  O   UNL     1       2.107   0.296  -0.029  0.00  0.00    +0.000 OA
ATOM     10  C   UNL     1       1.788   0.303  -1.218  0.00  0.00    +0.000 C 
BRANCH  10  11
ATOM     11  C   UNL     1       1.427   1.588  -1.859  0.00  0.00    +0.000 A 
ATOM     12  C   UNL     1       1.565   2.772  -1.148  0.00  0.00    +0.000 A 
ATOM     13  N   UNL     1       1.255   3.983  -1.682  0.00  0.00    +0.000 NA
ATOM     14  C   UNL     1       0.800   3.954  -2.954  0.00  0.00    +0.000 A 
ATOM     15  C   UNL     1       0.663   2.771  -3.664  0.00  0.00    +0.000 A 
ATOM     16  N   UNL     1       0.973   1.561  -3.140  0.00  0.00    +0.000 NA
ENDBRANCH  10  11
ENDBRANCH   8  10
ENDBRANCH   7   8
ENDBRANCH   1   7
BRANCH   4  17
ATOM     17  C   UNL     1       4.306  -6.097  -4.624  0.00  0.00    +0.000 C 
BRANCH  17  18
ATOM     18  N   UNL     1       3.578  -7.334  -4.513  0.00  0.00    +0.000 N 
ATOM     19  C   UNL     1       3.959  -8.438  -5.232  0.00  0.00    +0.000 C 
ATOM     20  O   UNL     1       4.952  -8.429  -5.955  0.00  0.00    +0.000 OA
ATOM     21  H   UNL     1       2.648  -7.301  -4.106  0.00  0.00    +0.000 HD
BRANCH  19  22
ATOM     22  C   UNL     1       3.154  -9.652  -5.052  0.00  0.00    +0.000 A 
ATOM     23  C   UNL     1       3.716 -10.893  -5.320  0.00  0.00    +0.000 A 
ATOM     24  S   UNL     1       2.662 -12.200  -5.022  0.00  0.00    +0.000 S 
ATOM     25  C   UNL     1       1.399 -11.150  -4.575  0.00  0.00    +0.000 A 
ATOM     26  N   UNL     1       0.177 -11.635  -4.229  0.00  0.00    +0.000 NA
ATOM     27  C   UNL     1      -0.698 -10.726  -3.952  0.00  0.00    +0.000 A 
ATOM     28  N   UNL     1      -0.458  -9.376  -3.981  0.00  0.00    +0.000 N 
ATOM     29  C   UNL     1       0.770  -8.843  -4.283  0.00  0.00    +0.000 A 
ATOM     30  O   UNL     1       0.973  -7.633  -4.242  0.00  0.00    +0.000 OA
ATOM     31  C   UNL     1       1.783  -9.820  -4.630  0.00  0.00    +0.000 A 
ATOM     32  H   UNL     1      -1.185  -8.718  -3.739  0.00  0.00    +0.000 HD
ENDBRANCH  19  22
ENDBRANCH  17  18
ENDBRANCH   4  17
TORSDOF 7
