REMARK  Name = 
REMARK  5 active torsions:
REMARK  status: ('A' for Active; 'I' for Inactive)
REMARK    1  A    between atoms: C_2  and  C_4
REMARK    2  A    between atoms: C_7  and  N_8
REMARK    3  A    between atoms: N_8  and  C_9
REMARK    4  A    between atoms: C_9  and  C_10
REMARK    5  A    between atoms: C_14  and  C_15
REMARK                            x       y       z     vdW  Elec       q    Type
REMARK                         _______ _______ _______ _____ _____    ______ ____
ROOT
ATOM      1  C   UNL     1       4.672  -4.158  -4.353  0.00  0.00    +0.000 C 
ENDROOT
BRANCH   1   2
ATOM      2  C   UNL     1       5.616  -5.209  -4.893  0.00  0.00    +0.000 A 
ATOM      3  C   UNL     1       6.805  -4.841  -5.533  0.00  0.00    +0.000 A 
ATOM      4  C   UNL     1       7.670  -5.821  -6.014  0.00  0.00    +0.000 A 
ATOM      5  C   UNL     1       7.362  -7.174  -5.847  0.00  0.00    +0.000 A 
ATOM      6  C   UNL     1       6.192  -7.586  -5.184  0.00  0.00    +0.000 A 
ATOM      7  C   UNL     1       5.315  -6.575  -4.745  0.00  0.00    +0.000 A 
BRANCH   6   8
ATOM      8  C   UNL     1       5.933  -9.012  -4.871  0.00  0.00    +0.000 A 
ATOM      9  C   UNL     1       6.993  -9.881  -4.534  0.00  0.00    +0.000 A 
ATOM     10  C   UNL     1       6.760 -11.199  -4.132  0.00  0.00    +0.000 A 
ATOM     11  C   UNL     1       5.459 -11.671  -4.056  0.00  0.00    +0.000 A 
ATOM     12  F   UNL     1       5.232 -12.920  -3.633  0.00  0.00    +0.000 F 
ATOM     13  C   UNL     1       4.390 -10.856  -4.403  0.00  0.00    +0.000 A 
ATOM     14  C   UNL     1       4.627  -9.541  -4.817  0.00  0.00    +0.000 A 
ENDBRANCH   6   8
ENDBRANCH   1   2
BRANCH   1  15
ATOM     15  N   UNL     1       3.750  -3.753  -5.406  0.00  0.00    +0.000 N 
ATOM     16  H   UNL     1       4.239  -3.449  -6.243  0.00  0.00    +0.000 HD
BRANCH  15  20
ATOM     17  C   UNL     1       0.816  -1.086  -4.322  0.00  0.00    +0.000 A 
ATOM     18  C   UNL     1       1.769  -1.495  -3.408  0.00  0.00    +0.000 A 
ATOM     19  N   UNL     1       2.771  -2.356  -3.731  0.00  0.00    +0.000 NA
ATOM     20  C   UNL     1       2.804  -2.797  -5.008  0.00  0.00    +0.000 A 
ATOM     21  C   UNL     1       1.837  -2.356  -5.922  0.00  0.00    +0.000 A 
ATOM     22  N   UNL     1       0.824  -1.500  -5.619  0.00  0.00    +0.000 NA
BRANCH  17  24
ATOM     23  N   UNL     1      -1.245   0.078  -4.837  0.00  0.00    +0.000 N 
ATOM     24  C   UNL     1      -0.293  -0.192  -3.891  0.00  0.00    +0.000 C 
ATOM     25  O   UNL     1      -0.365   0.260  -2.756  0.00  0.00    +0.000 OA
ATOM     26  H   UNL     1      -2.047   0.638  -4.594  0.00  0.00    +0.000 HD
ATOM     27  H   UNL     1      -1.174  -0.342  -5.759  0.00  0.00    +0.000 HD
ENDBRANCH  17  24
ENDBRANCH  15  20
ENDBRANCH   1  15
TORSDOF 5
