REMARK  Name = 
REMARK  8 active torsions:
REMARK  status: ('A' for Active; 'I' for Inactive)
REMARK    1  A    between atoms: C_2  and  C_16
REMARK    2  A    between atoms: N_3  and  C_4
REMARK    3  A    between atoms: C_4  and  C_5
REMARK    4  A    between atoms: C_8  and  C_9
REMARK    5  A    between atoms: C_9  and  C_10
REMARK    6  A    between atoms: C_10  and  O_11
REMARK    7  A    between atoms: C_10  and  C_12
REMARK    8  A    between atoms: C_12  and  O_13
REMARK                            x       y       z     vdW  Elec       q    Type
REMARK                         _______ _______ _______ _____ _____    ______ ____
ROOT
ATOM      1  O   UNL     1       3.469  -0.247  -1.771  0.00  0.00    +0.000 OA
ATOM      2  C   UNL     1       2.498  -0.859  -2.201  0.00  0.00    +0.000 C 
ATOM      3  N   UNL     1       1.933  -1.930  -1.567  0.00  0.00    +0.000 N 
ATOM      4  H   UNL     1       1.261  -2.500  -2.061  0.00  0.00    +0.000 HD
ENDROOT
BRANCH   2   5
ATOM      5  C   UNL     1       1.878  -0.531  -3.484  0.00  0.00    +0.000 A 
ATOM      6  C   UNL     1       2.609  -0.033  -4.551  0.00  0.00    +0.000 A 
ATOM      7  S   UNL     1       1.657   0.215  -5.951  0.00  0.00    +0.000 S 
ATOM      8  C   UNL     1       0.242  -0.300  -5.153  0.00  0.00    +0.000 A 
ATOM      9  N   UNL     1      -0.958  -0.343  -5.791  0.00  0.00    +0.000 NA
ATOM     10  C   UNL     1      -1.938  -0.755  -5.056  0.00  0.00    +0.000 A 
ATOM     11  N   UNL     1      -1.833  -1.120  -3.742  0.00  0.00    +0.000 N 
ATOM     12  C   UNL     1      -0.662  -1.021  -3.030  0.00  0.00    +0.000 A 
ATOM     13  O   UNL     1      -0.645  -1.252  -1.833  0.00  0.00    +0.000 OA
ATOM     14  C   UNL     1       0.484  -0.630  -3.834  0.00  0.00    +0.000 A 
ATOM     15  H   UNL     1      -2.642  -1.394  -3.207  0.00  0.00    +0.000 HD
ENDBRANCH   2   5
BRANCH   3  16
ATOM     16  C   UNL     1       2.313  -2.354  -0.246  0.00  0.00    +0.000 C 
BRANCH  16  17
ATOM     17  C   UNL     1       3.287  -3.499  -0.316  0.00  0.00    +0.000 A 
ATOM     18  C   UNL     1       4.663  -3.252  -0.373  0.00  0.00    +0.000 A 
ATOM     19  C   UNL     1       5.578  -4.308  -0.398  0.00  0.00    +0.000 A 
ATOM     20  C   UNL     1       5.142  -5.638  -0.389  0.00  0.00    +0.000 A 
ATOM     21  C   UNL     1       3.761  -5.884  -0.377  0.00  0.00    +0.000 A 
ATOM     22  C   UNL     1       2.843  -4.827  -0.341  0.00  0.00    +0.000 A 
BRANCH  20  23
ATOM     23  C   UNL     1       6.137  -6.784  -0.422  0.00  0.00    +0.000 C 
BRANCH  23  24
ATOM     24  C   UNL     1       7.109  -6.818   0.774  0.00  0.00    +0.000 C 
BRANCH  24  25
ATOM     25  O   UNL     1       6.392  -6.949   2.006  0.00  0.00    +0.000 OA
ATOM     26  H   UNL     1       5.829  -7.739   1.947  0.00  0.00    +0.000 HD
ENDBRANCH  24  25
BRANCH  24  27
ATOM     27  C   UNL     1       8.122  -7.974   0.661  0.00  0.00    +0.000 C 
BRANCH  27  28
ATOM     28  O   UNL     1       9.022  -7.992   1.770  0.00  0.00    +0.000 OA
ATOM     29  H   UNL     1       9.148  -7.074   2.070  0.00  0.00    +0.000 HD
ENDBRANCH  27  28
ENDBRANCH  24  27
ENDBRANCH  23  24
ENDBRANCH  20  23
ENDBRANCH  16  17
ENDBRANCH   3  16
TORSDOF 8
