REMARK  Name = 
REMARK  5 active torsions:
REMARK  status: ('A' for Active; 'I' for Inactive)
REMARK    1  A    between atoms: C_2  and  C_4
REMARK    2  A    between atoms: C_7  and  N_8
REMARK    3  A    between atoms: N_8  and  C_9
REMARK    4  A    between atoms: C_9  and  C_10
REMARK    5  A    between atoms: C_14  and  C_15
REMARK                            x       y       z     vdW  Elec       q    Type
REMARK                         _______ _______ _______ _____ _____    ______ ____
ROOT
ATOM      1  C   UNL     1       5.237  -3.230   5.106  0.00  0.00    +0.000 C 
ENDROOT
BRANCH   1   2
ATOM      2  C   UNL     1       6.252  -3.494   6.203  0.00  0.00    +0.000 A 
ATOM      3  C   UNL     1       6.467  -2.533   7.189  0.00  0.00    +0.000 A 
ATOM      4  C   UNL     1       7.359  -2.813   8.213  0.00  0.00    +0.000 A 
ATOM      5  C   UNL     1       7.994  -4.050   8.237  0.00  0.00    +0.000 A 
ATOM      6  C   UNL     1       7.713  -4.989   7.245  0.00  0.00    +0.000 A 
ATOM      7  N   UNL     1       6.866  -4.706   6.219  0.00  0.00    +0.000 NA
BRANCH   6   8
ATOM      8  C   UNL     1       8.288  -6.347   7.237  0.00  0.00    +0.000 A 
ATOM      9  C   UNL     1       8.541  -7.021   6.024  0.00  0.00    +0.000 A 
ATOM     10  C   UNL     1       9.087  -8.310   5.998  0.00  0.00    +0.000 A 
ATOM     11  C   UNL     1       9.390  -8.960   7.191  0.00  0.00    +0.000 A 
ATOM     12  C   UNL     1       9.134  -8.320   8.395  0.00  0.00    +0.000 A 
ATOM     13  F   UNL     1       9.415  -8.949   9.545  0.00  0.00    +0.000 F 
ATOM     14  C   UNL     1       8.588  -7.039   8.422  0.00  0.00    +0.000 A 
ATOM     15  F   UNL     1       8.333  -6.487   9.620  0.00  0.00    +0.000 F 
ENDBRANCH   6   8
ENDBRANCH   1   2
BRANCH   1  16
ATOM     16  N   UNL     1       5.558  -2.001   4.386  0.00  0.00    +0.000 N 
ATOM     17  H   UNL     1       6.453  -2.041   3.904  0.00  0.00    +0.000 HD
BRANCH  16  21
ATOM     18  C   UNL     1       2.704   0.527   2.587  0.00  0.00    +0.000 A 
ATOM     19  C   UNL     1       2.285  -0.660   3.189  0.00  0.00    +0.000 A 
ATOM     20  C   UNL     1       3.225  -1.530   3.756  0.00  0.00    +0.000 A 
ATOM     21  C   UNL     1       4.596  -1.250   3.721  0.00  0.00    +0.000 A 
ATOM     22  C   UNL     1       4.998  -0.057   3.102  0.00  0.00    +0.000 A 
ATOM     23  C   UNL     1       4.068   0.821   2.532  0.00  0.00    +0.000 A 
BRANCH  18  25
ATOM     24  N   UNL     1       0.472   1.500   2.494  0.00  0.00    +0.000 N 
ATOM     25  C   UNL     1       1.742   1.479   1.982  0.00  0.00    +0.000 C 
ATOM     26  O   UNL     1       2.070   2.246   1.084  0.00  0.00    +0.000 OA
ATOM     27  H   UNL     1      -0.139   2.225   2.139  0.00  0.00    +0.000 HD
ATOM     28  H   UNL     1       0.245   1.093   3.389  0.00  0.00    +0.000 HD
ENDBRANCH  18  25
ENDBRANCH  16  21
ENDBRANCH   1  16
TORSDOF 5
