REMARK  Name = 
REMARK  8 active torsions:
REMARK  status: ('A' for Active; 'I' for Inactive)
REMARK    1  A    between atoms: C_1  and  O_2
REMARK    2  A    between atoms: O_2  and  C_3
REMARK    3  A    between atoms: C_8  and  C_9
REMARK    4  A    between atoms: N_11  and  C_12
REMARK    5  A    between atoms: C_12  and  C_13
REMARK    6  A    between atoms: C_16  and  C_17
REMARK    7  A    between atoms: C_17  and  N_18
REMARK    8  A    between atoms: C_19  and  C_21
REMARK                            x       y       z     vdW  Elec       q    Type
REMARK                         _______ _______ _______ _____ _____    ______ ____
ROOT
ATOM      1  C   UNL     1       3.240   3.396  -2.320  0.00  0.00    +0.000 A 
ATOM      2  C   UNL     1       2.668   2.262  -2.911  0.00  0.00    +0.000 A 
ATOM      3  C   UNL     1       1.723   2.388  -3.937  0.00  0.00    +0.000 A 
ATOM      4  C   UNL     1       1.346   3.652  -4.408  0.00  0.00    +0.000 A 
ATOM      5  C   UNL     1       1.906   4.787  -3.806  0.00  0.00    +0.000 A 
ATOM      6  C   UNL     1       2.849   4.660  -2.781  0.00  0.00    +0.000 A 
ENDROOT
BRANCH   1   7
ATOM      7  C   UNL     1       4.269   3.262  -1.225  0.00  0.00    +0.000 C 
BRANCH   7  10
ATOM      8  C   UNL     1       6.718   3.085  -0.926  0.00  0.00    +0.000 C 
ATOM      9  O   UNL     1       6.618   3.015   0.294  0.00  0.00    +0.000 OA
ATOM     10  N   UNL     1       5.611   3.216  -1.747  0.00  0.00    +0.000 N 
ATOM     11  H   UNL     1       5.785   3.281  -2.746  0.00  0.00    +0.000 HD
BRANCH   8  17
ATOM     12  C   UNL     1       9.276   2.931  -1.030  0.00  0.00    +0.000 A 
ATOM     13  C   UNL     1      10.414   2.912  -1.844  0.00  0.00    +0.000 A 
ATOM     14  C   UNL     1      10.291   3.019  -3.228  0.00  0.00    +0.000 A 
ATOM     15  C   UNL     1       9.024   3.140  -3.773  0.00  0.00    +0.000 A 
ATOM     16  N   UNL     1       7.897   3.159  -3.035  0.00  0.00    +0.000 NA
ATOM     17  C   UNL     1       8.035   3.050  -1.673  0.00  0.00    +0.000 A 
BRANCH  12  19
ATOM     18  C   UNL     1      10.539   3.165   0.973  0.00  0.00    +0.000 C 
ATOM     19  O   UNL     1       9.327   2.789   0.328  0.00  0.00    +0.000 OA
ENDBRANCH  12  19
ENDBRANCH   8  17
ENDBRANCH   7  10
ENDBRANCH   1   7
BRANCH   4  20
ATOM     20  C   UNL     1       0.321   3.798  -5.506  0.00  0.00    +0.000 C 
BRANCH  20  21
ATOM     21  N   UNL     1      -1.009   3.886  -4.959  0.00  0.00    +0.000 N 
ATOM     22  C   UNL     1      -2.121   3.953  -5.757  0.00  0.00    +0.000 C 
ATOM     23  O   UNL     1      -2.055   3.884  -6.981  0.00  0.00    +0.000 OA
ATOM     24  H   UNL     1      -1.076   4.185  -3.992  0.00  0.00    +0.000 HD
BRANCH  22  25
ATOM     25  C   UNL     1      -3.413   4.045  -5.061  0.00  0.00    +0.000 A 
ATOM     26  C   UNL     1      -4.576   3.636  -5.698  0.00  0.00    +0.000 A 
ATOM     27  S   UNL     1      -5.966   3.734  -4.713  0.00  0.00    +0.000 S 
ATOM     28  C   UNL     1      -5.071   4.382  -3.419  0.00  0.00    +0.000 A 
ATOM     29  N   UNL     1      -5.673   4.711  -2.244  0.00  0.00    +0.000 NA
ATOM     30  C   UNL     1      -4.879   5.220  -1.362  0.00  0.00    +0.000 A 
ATOM     31  N   UNL     1      -3.538   5.430  -1.547  0.00  0.00    +0.000 N 
ATOM     32  C   UNL     1      -2.884   5.098  -2.709  0.00  0.00    +0.000 A 
ATOM     33  O   UNL     1      -1.678   5.283  -2.833  0.00  0.00    +0.000 OA
ATOM     34  C   UNL     1      -3.730   4.516  -3.732  0.00  0.00    +0.000 A 
ATOM     35  H   UNL     1      -2.970   5.833  -0.817  0.00  0.00    +0.000 HD
ENDBRANCH  22  25
ENDBRANCH  20  21
ENDBRANCH   4  20
TORSDOF 7
