REMARK  Name = 
REMARK  10 active torsions:
REMARK  status: ('A' for Active; 'I' for Inactive)
REMARK    1  A    between atoms: C_1  and  O_2
REMARK    2  A    between atoms: O_2  and  C_3
REMARK    3  A    between atoms: C_10  and  C_11
REMARK    4  A    between atoms: N_13  and  C_14
REMARK    5  A    between atoms: C_14  and  C_15
REMARK    6  A    between atoms: C_18  and  C_19
REMARK    7  A    between atoms: C_19  and  N_20
REMARK    8  A    between atoms: N_20  and  C_21
REMARK    9  A    between atoms: C_21  and  C_22
REMARK   10  A    between atoms: N_26  and  C_27
REMARK                            x       y       z     vdW  Elec       q    Type
REMARK                         _______ _______ _______ _____ _____    ______ ____
ROOT
ATOM      1  C   UNL     1       1.710  -0.634  -3.171  0.00  0.00    +0.000 A 
ATOM      2  C   UNL     1       1.831  -2.026  -3.258  0.00  0.00    +0.000 A 
ATOM      3  C   UNL     1       0.714  -2.843  -3.081  0.00  0.00    +0.000 A 
ATOM      4  C   UNL     1      -0.539  -2.292  -2.778  0.00  0.00    +0.000 A 
ATOM      5  C   UNL     1      -0.666  -0.897  -2.754  0.00  0.00    +0.000 A 
ATOM      6  C   UNL     1       0.446  -0.076  -2.952  0.00  0.00    +0.000 A 
ENDROOT
BRANCH   1   7
ATOM      7  C   UNL     1       2.915   0.244  -3.363  0.00  0.00    +0.000 C 
BRANCH   7  10
ATOM      8  C   UNL     1       4.185   1.250  -5.202  0.00  0.00    +0.000 C 
ATOM      9  O   UNL     1       5.003   1.730  -4.417  0.00  0.00    +0.000 OA
ATOM     10  N   UNL     1       3.123   0.520  -4.761  0.00  0.00    +0.000 N 
ATOM     11  H   UNL     1       2.432   0.173  -5.414  0.00  0.00    +0.000 HD
BRANCH   8  19
ATOM     12  C   UNL     1       2.343   0.181  -7.917  0.00  0.00    +0.000 A 
ATOM     13  N   UNL     1       1.878  -0.161  -9.136  0.00  0.00    +0.000 NA
ATOM     14  C   UNL     1       2.553   0.255 -10.209  0.00  0.00    +0.000 A 
ATOM     15  N   UNL     1       3.656   0.997 -10.223  0.00  0.00    +0.000 NA
ATOM     16  C   UNL     1       4.094   1.306  -8.991  0.00  0.00    +0.000 A 
ATOM     17  S   UNL     1       5.489   2.261  -8.821  0.00  0.00    +0.000 S 
ATOM     18  C   UNL     1       5.396   2.180  -7.127  0.00  0.00    +0.000 A 
ATOM     19  C   UNL     1       4.323   1.431  -6.658  0.00  0.00    +0.000 A 
ATOM     20  C   UNL     1       3.524   0.934  -7.777  0.00  0.00    +0.000 A 
BRANCH  12  22
ATOM     21  C   UNL     1       0.406  -0.893  -7.127  0.00  0.00    +0.000 C 
ATOM     22  O   UNL     1       1.622  -0.214  -6.808  0.00  0.00    +0.000 OA
ENDBRANCH  12  22
ENDBRANCH   8  19
ENDBRANCH   7  10
ENDBRANCH   1   7
BRANCH   4  23
ATOM     23  C   UNL     1      -1.757  -3.145  -2.499  0.00  0.00    +0.000 C 
BRANCH  23  24
ATOM     24  N   UNL     1      -1.493  -4.437  -1.869  0.00  0.00    +0.000 NA
ATOM     25  H   UNL     1      -0.927  -5.014  -2.487  0.00  0.00    +0.000 HD
BRANCH  24  26
ATOM     26  C   UNL     1      -0.866  -4.336  -0.548  0.00  0.00    +0.000 C 
BRANCH  26  27
ATOM     27  C   UNL     1      -0.563  -5.746  -0.017  0.00  0.00    +0.000 C 
ATOM     28  C   UNL     1      -1.845  -6.566   0.175  0.00  0.00    +0.000 C 
ATOM     29  C   UNL     1      -1.502  -7.943   0.725  0.00  0.00    +0.000 C 
ATOM     30  C   UNL     1      -0.664  -7.838   1.998  0.00  0.00    +0.000 C 
ATOM     31  N   UNL     1       0.548  -7.036   1.782  0.00  0.00    +0.000 NA
ATOM     32  C   UNL     1       1.346  -6.976   3.006  0.00  0.00    +0.000 C 
ATOM     33  C   UNL     1       0.221  -5.682   1.307  0.00  0.00    +0.000 C 
ENDBRANCH  26  27
ENDBRANCH  24  26
ENDBRANCH  23  24
ENDBRANCH   4  23
TORSDOF 8
