REMARK  Name = 
REMARK  5 active torsions:
REMARK  status: ('A' for Active; 'I' for Inactive)
REMARK    1  A    between atoms: N_1  and  C_2
REMARK    2  A    between atoms: C_2  and  C_3
REMARK    3  A    between atoms: C_6  and  S_7
REMARK    4  A    between atoms: S_7  and  C_8
REMARK    5  A    between atoms: C_8  and  C_9
REMARK                            x       y       z     vdW  Elec       q    Type
REMARK                         _______ _______ _______ _____ _____    ______ ____
ROOT
ATOM      1  C   UNL     1       2.978  -1.202  -0.546  0.00  0.00    +0.000 A 
ATOM      2  C   UNL     1       4.088  -1.256  -1.403  0.00  0.00    +0.000 A 
ATOM      3  C   UNL     1       4.518  -2.472  -1.955  0.00  0.00    +0.000 A 
ATOM      4  C   UNL     1       3.849  -3.661  -1.654  0.00  0.00    +0.000 A 
ATOM      5  C   UNL     1       2.744  -3.606  -0.794  0.00  0.00    +0.000 A 
ATOM      6  C   UNL     1       2.314  -2.395  -0.243  0.00  0.00    +0.000 A 
ENDROOT
BRANCH   1   7
ATOM      7  C   UNL     1       2.516   0.104   0.051  0.00  0.00    +0.000 C 
BRANCH   7   8
ATOM      8  N   UNL     1       2.148   1.075  -0.973  0.00  0.00    +0.000 NA
ATOM      9  H   UNL     1       1.776   1.909  -0.521  0.00  0.00    +0.000 HD
ATOM     10  H   UNL     1       1.386   0.690  -1.530  0.00  0.00    +0.000 HD
ENDBRANCH   7   8
ENDBRANCH   1   7
BRANCH   4  11
ATOM     11  S   UNL     1       4.223  -5.249  -2.378  0.00  0.00    +0.000 S 
BRANCH  11  12
ATOM     12  C   UNL     1       6.046  -5.221  -2.570  0.00  0.00    +0.000 C 
BRANCH  12  13
ATOM     13  C   UNL     1       6.548  -6.555  -3.082  0.00  0.00    +0.000 A 
ATOM     14  N   UNL     1       6.592  -6.740  -4.421  0.00  0.00    +0.000 NA
ATOM     15  C   UNL     1       6.958  -7.962  -4.850  0.00  0.00    +0.000 A 
ATOM     16  C   UNL     1       7.289  -8.996  -4.006  0.00  0.00    +0.000 A 
ATOM     17  C   UNL     1       7.233  -8.705  -2.665  0.00  0.00    +0.000 A 
ATOM     18  N   UNL     1       6.873  -7.503  -2.175  0.00  0.00    +0.000 NA
ENDBRANCH  12  13
ENDBRANCH  11  12
ENDBRANCH   4  11
TORSDOF 5
