REMARK  Name = 
REMARK  10 active torsions:
REMARK  status: ('A' for Active; 'I' for Inactive)
REMARK    1  A    between atoms: C_1  and  C_2
REMARK    2  A    between atoms: C_2  and  O_3
REMARK    3  A    between atoms: O_3  and  C_4
REMARK    4  A    between atoms: C_6  and  C_7
REMARK    5  A    between atoms: C_12  and  O_13
REMARK    6  A    between atoms: O_13  and  C_14
REMARK    7  A    between atoms: C_14  and  C_15
REMARK    8  A    between atoms: C_15  and  C_16
REMARK    9  A    between atoms: C_15  and  C_17
REMARK   10  A    between atoms: C_15  and  C_18
REMARK                            x       y       z     vdW  Elec       q    Type
REMARK                         _______ _______ _______ _____ _____    ______ ____
ROOT
ATOM      1  C   UNL     1       4.468   0.849  -1.691  0.00  0.00    +0.000 A 
ATOM      2  N   UNL     1       4.950   2.068  -2.046  0.00  0.00    +0.000 NA
ATOM      3  C   UNL     1       6.292   2.177  -2.167  0.00  0.00    +0.000 A 
ATOM      4  C   UNL     1       7.176   1.137  -1.930  0.00  0.00    +0.000 A 
ATOM      5  C   UNL     1       6.657  -0.097  -1.544  0.00  0.00    +0.000 A 
ATOM      6  C   UNL     1       5.276  -0.269  -1.420  0.00  0.00    +0.000 A 
ENDROOT
BRANCH   3   7
ATOM      7  C   UNL     1       6.821   3.494  -2.640  0.00  0.00    +0.000 C 
ATOM      8  N   UNL     1       5.879   4.458  -2.890  0.00  0.00    +0.000 N 
ATOM      9  O   UNL     1       8.010   3.704  -2.804  0.00  0.00    +0.000 OA
ATOM     10  H   UNL     1       4.898   4.255  -2.750  0.00  0.00    +0.000 HD
ATOM     11  H   UNL     1       6.177   5.358  -3.237  0.00  0.00    +0.000 HD
ENDBRANCH   3   7
BRANCH   1  12
ATOM     12  O   UNL     1       3.091   0.723  -1.588  0.00  0.00    +0.000 OA
BRANCH  12  14
ATOM     13  C   UNL     1       0.911   1.461  -2.321  0.00  0.00    +0.000 C 
ATOM     14  C   UNL     1       2.412   1.625  -2.473  0.00  0.00    +0.000 C 
ENDBRANCH  12  14
ENDBRANCH   1  12
BRANCH   6  15
ATOM     15  O   UNL     1       4.679  -1.458  -1.089  0.00  0.00    +0.000 OA
BRANCH  15  16
ATOM     16  C   UNL     1       5.537  -2.598  -0.888  0.00  0.00    +0.000 C 
BRANCH  16  17
ATOM     17  C   UNL     1       4.705  -3.883  -0.594  0.00  0.00    +0.000 C 
ATOM     18  C   UNL     1       3.843  -3.657   0.669  0.00  0.00    +0.000 C 
ATOM     19  C   UNL     1       3.742  -4.107  -1.784  0.00  0.00    +0.000 C 
BRANCH  17  20
ATOM     20  C   UNL     1       5.643  -5.091  -0.356  0.00  0.00    +0.000 A 
ATOM     21  C   UNL     1       6.563  -5.085   0.712  0.00  0.00    +0.000 A 
ATOM     22  C   UNL     1       7.401  -6.180   0.961  0.00  0.00    +0.000 A 
ATOM     23  C   UNL     1       7.339  -7.302   0.142  0.00  0.00    +0.000 A 
ATOM     24 CL   UNL     1       8.367  -8.647   0.442  0.00  0.00    +0.000 Cl
ATOM     25  C   UNL     1       6.447  -7.337  -0.921  0.00  0.00    +0.000 A 
ATOM     26  C   UNL     1       5.608  -6.243  -1.165  0.00  0.00    +0.000 A 
ENDBRANCH  17  20
ENDBRANCH  16  17
ENDBRANCH  15  16
ENDBRANCH   6  15
TORSDOF 7
