REMARK  Name = 
REMARK  9 active torsions:
REMARK  status: ('A' for Active; 'I' for Inactive)
REMARK    1  A    between atoms: C_1  and  C_2
REMARK    2  A    between atoms: C_2  and  C_3
REMARK    3  A    between atoms: C_3  and  N_4
REMARK    4  A    between atoms: C_3  and  C_18
REMARK    5  A    between atoms: C_5  and  C_7
REMARK    6  A    between atoms: N_13  and  C_14
REMARK    7  A    between atoms: C_21  and  C_22
REMARK    8  A    between atoms: C_22  and  C_23
REMARK    9  A    between atoms: C_22  and  C_24
REMARK                            x       y       z     vdW  Elec       q    Type
REMARK                         _______ _______ _______ _____ _____    ______ ____
ROOT
ATOM      1  C   UNL     1      10.784   4.002   5.689  0.00  0.00    +0.000 C 
ENDROOT
BRANCH   1   2
ATOM      2  C   UNL     1      10.269   3.232   4.473  0.00  0.00    +0.000 A 
ATOM      3  C   UNL     1       8.906   3.211   4.164  0.00  0.00    +0.000 A 
ATOM      4  C   UNL     1       8.439   2.503   3.049  0.00  0.00    +0.000 A 
ATOM      5  C   UNL     1       9.322   1.809   2.206  0.00  0.00    +0.000 A 
ATOM      6  C   UNL     1      10.687   1.837   2.509  0.00  0.00    +0.000 A 
ATOM      7  C   UNL     1      11.150   2.532   3.630  0.00  0.00    +0.000 A 
BRANCH   5   8
ATOM      8  C   UNL     1       8.793   1.035   1.005  0.00  0.00    +0.000 C 
ATOM      9  C   UNL     1       9.001  -0.478   1.174  0.00  0.00    +0.000 C 
BRANCH   8  10
ATOM     10  C   UNL     1       9.334   1.540  -0.331  0.00  0.00    +0.000 A 
ATOM     11  C   UNL     1       8.750   2.654  -0.935  0.00  0.00    +0.000 A 
ATOM     12  C   UNL     1       9.227   3.084  -2.171  0.00  0.00    +0.000 A 
ATOM     13  C   UNL     1      10.277   2.402  -2.772  0.00  0.00    +0.000 A 
ATOM     14  C   UNL     1      10.816   1.318  -2.103  0.00  0.00    +0.000 A 
ATOM     15  N   UNL     1      10.376   0.880  -0.903  0.00  0.00    +0.000 NA
ENDBRANCH   8  10
ENDBRANCH   5   8
ENDBRANCH   1   2
BRANCH   1  16
ATOM     16  N   UNL     1      11.617   5.099   5.214  0.00  0.00    +0.000 N 
ATOM     17  C   UNL     1      12.148   6.089   5.993  0.00  0.00    +0.000 C 
ATOM     18  O   UNL     1      11.895   6.202   7.189  0.00  0.00    +0.000 OA
ATOM     19  H   UNL     1      11.938   5.014   4.257  0.00  0.00    +0.000 HD
BRANCH  17  20
ATOM     20  C   UNL     1      13.021   7.050   5.297  0.00  0.00    +0.000 A 
ATOM     21  C   UNL     1      13.213   8.322   5.819  0.00  0.00    +0.000 A 
ATOM     22  S   UNL     1      14.220   9.309   4.858  0.00  0.00    +0.000 S 
ATOM     23  C   UNL     1      14.477   8.056   3.737  0.00  0.00    +0.000 A 
ATOM     24  N   UNL     1      15.270   8.239   2.651  0.00  0.00    +0.000 NA
ATOM     25  C   UNL     1      15.391   7.202   1.889  0.00  0.00    +0.000 A 
ATOM     26  N   UNL     1      14.785   5.980   2.102  0.00  0.00    +0.000 N 
ATOM     27  C   UNL     1      14.962   4.885   1.170  0.00  0.00    +0.000 C 
ATOM     28  C   UNL     1      13.964   5.767   3.196  0.00  0.00    +0.000 A 
ATOM     29  O   UNL     1      13.409   4.689   3.399  0.00  0.00    +0.000 OA
ATOM     30  C   UNL     1      13.793   6.906   4.080  0.00  0.00    +0.000 A 
ENDBRANCH  17  20
ENDBRANCH   1  16
BRANCH   1  32
ATOM     31  C   UNL     1      10.673   1.964   7.230  0.00  0.00    +0.000 C 
ATOM     32  C   UNL     1      11.544   3.081   6.667  0.00  0.00    +0.000 C 
ENDBRANCH   1  32
TORSDOF 6
