REMARK  Name = 
REMARK  8 active torsions:
REMARK  status: ('A' for Active; 'I' for Inactive)
REMARK    1  A    between atoms: C_1  and  O_2
REMARK    2  A    between atoms: O_2  and  C_3
REMARK    3  A    between atoms: C_5  and  C_6
REMARK    4  A    between atoms: C_6  and  N_7
REMARK    5  A    between atoms: C_8  and  C_10
REMARK    6  A    between atoms: C_17  and  C_18
REMARK    7  A    between atoms: C_18  and  N_19
REMARK    8  A    between atoms: C_20  and  C_22
REMARK                            x       y       z     vdW  Elec       q    Type
REMARK                         _______ _______ _______ _____ _____    ______ ____
ROOT
ATOM      1  C   UNL     1       3.020  -1.036   0.566  0.00  0.00    +0.000 A 
ATOM      2  C   UNL     1       2.699  -2.388   0.349  0.00  0.00    +0.000 A 
ATOM      3  C   UNL     1       3.510  -3.432   0.819  0.00  0.00    +0.000 A 
ATOM      4  C   UNL     1       4.683  -3.081   1.496  0.00  0.00    +0.000 A 
ATOM      5  C   UNL     1       4.997  -1.736   1.747  0.00  0.00    +0.000 A 
ATOM      6  C   UNL     1       4.156  -0.691   1.317  0.00  0.00    +0.000 A 
ENDROOT
BRANCH   1   8
ATOM      7  C   UNL     1       0.926  -0.311  -0.293  0.00  0.00    +0.000 C 
ATOM      8  O   UNL     1       2.296  -0.021  -0.016  0.00  0.00    +0.000 OA
ENDBRANCH   1   8
BRANCH   3   9
ATOM      9  C   UNL     1       3.164  -4.888   0.578  0.00  0.00    +0.000 C 
BRANCH   9  10
ATOM     10  N   UNL     1       2.364  -5.478   1.630  0.00  0.00    +0.000 N 
ATOM     11  C   UNL     1       1.961  -6.795   1.598  0.00  0.00    +0.000 C 
ATOM     12  O   UNL     1       2.218  -7.568   0.683  0.00  0.00    +0.000 OA
ATOM     13  H   UNL     1       2.322  -5.020   2.525  0.00  0.00    +0.000 HD
BRANCH  11  14
ATOM     14  C   UNL     1       1.212  -7.192   2.783  0.00  0.00    +0.000 A 
ATOM     15  C   UNL     1       0.844  -6.439   3.943  0.00  0.00    +0.000 A 
ATOM     16  C   UNL     1       0.151  -7.294   4.766  0.00  0.00    +0.000 A 
ATOM     17  O   UNL     1       0.061  -8.523   4.200  0.00  0.00    +0.000 OA
ATOM     18  C   UNL     1       0.696  -8.455   3.001  0.00  0.00    +0.000 A 
ENDBRANCH  11  14
ENDBRANCH   9  10
ENDBRANCH   3   9
BRANCH   6  19
ATOM     19  C   UNL     1       4.508   0.732   1.708  0.00  0.00    +0.000 C 
BRANCH  19  20
ATOM     20  N   UNL     1       3.918   1.125   2.974  0.00  0.00    +0.000 N 
ATOM     21  C   UNL     1       4.459   2.089   3.797  0.00  0.00    +0.000 C 
ATOM     22  O   UNL     1       5.536   2.614   3.605  0.00  0.00    +0.000 OA
ATOM     23  H   UNL     1       2.972   0.815   3.147  0.00  0.00    +0.000 HD
BRANCH  21  24
ATOM     24  C   UNL     1       3.631   2.411   4.975  0.00  0.00    +0.000 A 
ATOM     25  C   UNL     1       4.226   2.794   6.174  0.00  0.00    +0.000 A 
ATOM     26  S   UNL     1       3.099   3.197   7.391  0.00  0.00    +0.000 S 
ATOM     27  C   UNL     1       1.782   2.854   6.369  0.00  0.00    +0.000 A 
ATOM     28  N   UNL     1       0.500   2.993   6.803  0.00  0.00    +0.000 NA
ATOM     29  C   UNL     1      -0.398   2.702   5.923  0.00  0.00    +0.000 A 
ATOM     30  N   UNL     1      -0.129   2.280   4.646  0.00  0.00    +0.000 N 
ATOM     31  C   UNL     1       1.146   2.091   4.177  0.00  0.00    +0.000 A 
ATOM     32  O   UNL     1       1.343   1.621   3.055  0.00  0.00    +0.000 OA
ATOM     33  C   UNL     1       2.195   2.426   5.120  0.00  0.00    +0.000 A 
ATOM     34  H   UNL     1      -0.878   2.048   4.012  0.00  0.00    +0.000 HD
ENDBRANCH  21  24
ENDBRANCH  19  20
ENDBRANCH   6  19
TORSDOF 7
