REMARK  Name = 
REMARK  5 active torsions:
REMARK  status: ('A' for Active; 'I' for Inactive)
REMARK    1  A    between atoms: N_1  and  C_2
REMARK    2  A    between atoms: C_2  and  C_3
REMARK    3  A    between atoms: C_6  and  C_7
REMARK    4  A    between atoms: C_7  and  N_8
REMARK    5  A    between atoms: C_13  and  C_14
REMARK                            x       y       z     vdW  Elec       q    Type
REMARK                         _______ _______ _______ _____ _____    ______ ____
ROOT
ATOM      1  N   UNL     1       0.650  -5.632   1.095  0.00  0.00    +0.000 N 
ATOM      2  C   UNL     1       1.202  -6.889   0.984  0.00  0.00    +0.000 A 
ATOM      3  C   UNL     1       0.432  -7.617   0.108  0.00  0.00    +0.000 A 
ATOM      4  C   UNL     1      -0.693  -6.823  -0.228  0.00  0.00    +0.000 A 
ATOM      5  C   UNL     1      -1.830  -7.019  -1.027  0.00  0.00    +0.000 A 
ATOM      6  C   UNL     1      -2.793  -6.010  -1.050  0.00  0.00    +0.000 A 
ATOM      7  C   UNL     1      -2.538  -4.837  -0.330  0.00  0.00    +0.000 A 
ATOM      8  N   UNL     1      -1.428  -4.574   0.411  0.00  0.00    +0.000 NA
ATOM      9  C   UNL     1      -0.556  -5.603   0.435  0.00  0.00    +0.000 A 
ENDROOT
BRANCH   6  10
ATOM     10  C   UNL     1      -4.073  -6.125  -1.787  0.00  0.00    +0.000 C 
ATOM     11  N   UNL     1      -4.339  -7.289  -2.464  0.00  0.00    +0.000 N 
ATOM     12  O   UNL     1      -4.894  -5.217  -1.791  0.00  0.00    +0.000 OA
ATOM     13  H   UNL     1      -3.749  -8.107  -2.476  0.00  0.00    +0.000 HD
ATOM     14  H   UNL     1      -5.238  -7.350  -2.924  0.00  0.00    +0.000 HD
ENDBRANCH   6  10
BRANCH   1  15
ATOM     15  C   UNL     1       1.314  -4.496   1.729  0.00  0.00    +0.000 C 
BRANCH  15  19
ATOM     16  C   UNL     1       3.018  -1.331   0.142  0.00  0.00    +0.000 C 
ATOM     17  C   UNL     1       2.116  -2.334  -0.599  0.00  0.00    +0.000 C 
ATOM     18  C   UNL     1       2.560  -3.782  -0.401  0.00  0.00    +0.000 C 
ATOM     19  C   UNL     1       2.686  -4.188   1.078  0.00  0.00    +0.000 C 
ATOM     20  C   UNL     1       3.500  -3.155   1.874  0.00  0.00    +0.000 C 
ATOM     21  C   UNL     1       3.078  -1.708   1.632  0.00  0.00    +0.000 C 
BRANCH  16  22
ATOM     22  C   UNL     1       4.389  -1.216  -0.557  0.00  0.00    +0.000 C 
BRANCH  22  23
ATOM     23  N   UNL     1       5.267  -0.233   0.070  0.00  0.00    +0.000 NA
ATOM     24  H   UNL     1       6.065  -0.059  -0.542  0.00  0.00    +0.000 HD
ATOM     25  H   UNL     1       5.658  -0.625   0.926  0.00  0.00    +0.000 HD
ENDBRANCH  22  23
ENDBRANCH  16  22
ENDBRANCH  15  19
ENDBRANCH   1  15
TORSDOF 5
