REMARK  Name = 
REMARK  6 active torsions:
REMARK  status: ('A' for Active; 'I' for Inactive)
REMARK    1  A    between atoms: C_2  and  C_20
REMARK    2  A    between atoms: N_3  and  C_4
REMARK    3  A    between atoms: C_4  and  C_5
REMARK    4  A    between atoms: C_8  and  C_9
REMARK    5  A    between atoms: C_9  and  N_10
REMARK    6  A    between atoms: C_11  and  C_13
REMARK                            x       y       z     vdW  Elec       q    Type
REMARK                         _______ _______ _______ _____ _____    ______ ____
ROOT
ATOM      1  C   UNL     1      11.361  -9.139   2.894  0.00  0.00    +0.000 A 
ATOM      2  C   UNL     1      10.202  -8.792   3.604  0.00  0.00    +0.000 A 
ATOM      3  C   UNL     1      10.184  -7.672   4.449  0.00  0.00    +0.000 A 
ATOM      4  C   UNL     1      11.316  -6.857   4.581  0.00  0.00    +0.000 A 
ATOM      5  C   UNL     1      12.470  -7.198   3.861  0.00  0.00    +0.000 A 
ATOM      6  C   UNL     1      12.486  -8.315   3.016  0.00  0.00    +0.000 A 
ENDROOT
BRANCH   1   7
ATOM      7  C   UNL     1      11.410 -10.387   2.048  0.00  0.00    +0.000 C 
BRANCH   7  10
ATOM      8  O   UNL     1      11.448 -12.329   0.086  0.00  0.00    +0.000 OA
ATOM      9  C   UNL     1      11.005 -11.221  -0.207  0.00  0.00    +0.000 C 
ATOM     10  N   UNL     1      11.020 -10.168   0.680  0.00  0.00    +0.000 N 
ATOM     11  H   UNL     1      10.456  -9.349   0.487  0.00  0.00    +0.000 HD
BRANCH   9  12
ATOM     12  C   UNL     1      10.451 -10.953  -1.537  0.00  0.00    +0.000 A 
ATOM     13  C   UNL     1      10.875 -11.679  -2.641  0.00  0.00    +0.000 A 
ATOM     14  S   UNL     1      10.074 -11.251  -4.088  0.00  0.00    +0.000 S 
ATOM     15  C   UNL     1       9.108 -10.105  -3.282  0.00  0.00    +0.000 A 
ATOM     16  N   UNL     1       8.147  -9.396  -3.934  0.00  0.00    +0.000 NA
ATOM     17  C   UNL     1       7.465  -8.598  -3.180  0.00  0.00    +0.000 A 
ATOM     18  N   UNL     1       7.670  -8.428  -1.836  0.00  0.00    +0.000 N 
ATOM     19  C   UNL     1       8.666  -9.070  -1.149  0.00  0.00    +0.000 A 
ATOM     20  O   UNL     1       8.892  -8.814   0.030  0.00  0.00    +0.000 OA
ATOM     21  C   UNL     1       9.424 -10.024  -1.935  0.00  0.00    +0.000 A 
ATOM     22  H   UNL     1       7.130  -7.759  -1.309  0.00  0.00    +0.000 HD
ENDBRANCH   9  12
ENDBRANCH   7  10
ENDBRANCH   1   7
BRANCH   4  23
ATOM     23  C   UNL     1      11.298  -5.628   5.457  0.00  0.00    +0.000 C 
BRANCH  23  24
ATOM     24  N   UNL     1      11.720  -5.895   6.812  0.00  0.00    +0.000 N 
ATOM     25  C   UNL     1      11.841  -4.864   7.727  0.00  0.00    +0.000 C 
ATOM     26  O   UNL     1      11.577  -3.699   7.447  0.00  0.00    +0.000 OA
ATOM     27  H   UNL     1      11.775  -6.855   7.125  0.00  0.00    +0.000 HD
BRANCH  25  28
ATOM     28  C   UNL     1      12.315  -5.309   9.132  0.00  0.00    +0.000 C 
ATOM     29  C   UNL     1      13.698  -5.935   9.107  0.00  0.00    +0.000 C 
ATOM     30  C   UNL     1      14.626  -4.733   9.113  0.00  0.00    +0.000 C 
ATOM     31  C   UNL     1      13.854  -3.649   9.851  0.00  0.00    +0.000 C 
ATOM     32  N   UNL     1      12.491  -4.155  10.041  0.00  0.00    +0.000 NA
ATOM     33  H   UNL     1      11.820  -3.425   9.781  0.00  0.00    +0.000 HD
ENDBRANCH  25  28
ENDBRANCH  23  24
ENDBRANCH   4  23
TORSDOF 6
