REMARK  Name = 
REMARK  7 active torsions:
REMARK  status: ('A' for Active; 'I' for Inactive)
REMARK    1  A    between atoms: C_2  and  C_3
REMARK    2  A    between atoms: C_3  and  N_4
REMARK    3  A    between atoms: C_3  and  C_17
REMARK    4  A    between atoms: C_5  and  C_7
REMARK    5  A    between atoms: C_20  and  O_21
REMARK    6  A    between atoms: O_21  and  C_22
REMARK    7  A    between atoms: C_22  and  C_23
REMARK                            x       y       z     vdW  Elec       q    Type
REMARK                         _______ _______ _______ _____ _____    ______ ____
ROOT
ATOM      1  C   UNL     1       3.756  -0.014   0.165  0.00  0.00    +0.000 C 
ENDROOT
BRANCH   1   2
ATOM      2  C   UNL     1       4.229  -0.699  -1.108  0.00  0.00    +0.000 A 
ATOM      3  C   UNL     1       4.969  -0.015  -2.086  0.00  0.00    +0.000 A 
ATOM      4  C   UNL     1       5.410  -0.690  -3.238  0.00  0.00    +0.000 A 
ATOM      5  C   UNL     1       5.115  -2.048  -3.411  0.00  0.00    +0.000 A 
ATOM      6  C   UNL     1       4.370  -2.712  -2.447  0.00  0.00    +0.000 A 
ATOM      7  C   UNL     1       3.928  -2.052  -1.317  0.00  0.00    +0.000 A 
BRANCH   5   8
ATOM      8  O   UNL     1       5.523  -2.756  -4.518  0.00  0.00    +0.000 OA
BRANCH   8   9
ATOM      9  C   UNL     1       5.710  -4.183  -4.280  0.00  0.00    +0.000 C 
BRANCH   9  10
ATOM     10  C   UNL     1       6.747  -4.729  -5.230  0.00  0.00    +0.000 A 
ATOM     11  C   UNL     1       8.033  -4.195  -5.209  0.00  0.00    +0.000 A 
ATOM     12  C   UNL     1       8.977  -4.682  -6.106  0.00  0.00    +0.000 A 
ATOM     13  C   UNL     1       8.623  -5.692  -6.991  0.00  0.00    +0.000 A 
ATOM     14  C   UNL     1       7.331  -6.186  -6.931  0.00  0.00    +0.000 A 
ATOM     15  N   UNL     1       6.390  -5.734  -6.070  0.00  0.00    +0.000 NA
ENDBRANCH   9  10
ENDBRANCH   8   9
ENDBRANCH   5   8
ENDBRANCH   1   2
BRANCH   1  16
ATOM     16  N   UNL     1       2.442   0.572  -0.043  0.00  0.00    +0.000 N 
ATOM     17  C   UNL     1       2.269   1.845  -0.517  0.00  0.00    +0.000 C 
ATOM     18  O   UNL     1       3.224   2.581  -0.748  0.00  0.00    +0.000 OA
ATOM     19  H   UNL     1       1.637  -0.041   0.060  0.00  0.00    +0.000 HD
BRANCH  17  20
ATOM     20  C   UNL     1       0.887   2.312  -0.708  0.00  0.00    +0.000 A 
ATOM     21  C   UNL     1       0.667   3.603  -1.173  0.00  0.00    +0.000 A 
ATOM     22  S   UNL     1      -0.980   4.021  -1.287  0.00  0.00    +0.000 S 
ATOM     23  C   UNL     1      -1.462   2.500  -0.699  0.00  0.00    +0.000 A 
ATOM     24  N   UNL     1      -2.777   2.215  -0.501  0.00  0.00    +0.000 NA
ATOM     25  C   UNL     1      -3.002   1.037  -0.022  0.00  0.00    +0.000 A 
ATOM     26  N   UNL     1      -2.032   0.111   0.258  0.00  0.00    +0.000 N 
ATOM     27  C   UNL     1      -0.700   0.330   0.005  0.00  0.00    +0.000 A 
ATOM     28  O   UNL     1       0.134  -0.560   0.149  0.00  0.00    +0.000 OA
ATOM     29  C   UNL     1      -0.383   1.666  -0.464  0.00  0.00    +0.000 A 
ATOM     30  H   UNL     1      -2.281  -0.810   0.589  0.00  0.00    +0.000 HD
ENDBRANCH  17  20
ENDBRANCH   1  16
BRANCH   1  32
ATOM     31  N   UNL     1       3.836  -1.800   2.126  0.00  0.00    +0.000 NA
ATOM     32  C   UNL     1       3.787  -0.996   1.306  0.00  0.00    +0.000 C 
ENDBRANCH   1  32
TORSDOF 7
