REMARK  Name = 
REMARK  4 active torsions:
REMARK  status: ('A' for Active; 'I' for Inactive)
REMARK    1  A    between atoms: C_2  and  C_4
REMARK    2  A    between atoms: N_8  and  C_9
REMARK    3  A    between atoms: C_9  and  C_10
REMARK    4  A    between atoms: C_13  and  C_14
REMARK                            x       y       z     vdW  Elec       q    Type
REMARK                         _______ _______ _______ _____ _____    ______ ____
ROOT
ATOM      1  C   UNL     1       3.336  -2.157  -2.749  0.00  0.00    +0.000 A 
ATOM      2  C   UNL     1       2.570  -1.258  -3.479  0.00  0.00    +0.000 A 
ATOM      3  C   UNL     1       3.182  -0.146  -4.061  0.00  0.00    +0.000 A 
ATOM      4  C   UNL     1       4.552   0.021  -3.942  0.00  0.00    +0.000 A 
ATOM      5  N   UNL     1       5.235   1.131  -4.450  0.00  0.00    +0.000 N 
ATOM      6  N   UNL     1       5.308  -0.844  -3.227  0.00  0.00    +0.000 NA
ATOM      7  C   UNL     1       4.691  -1.900  -2.625  0.00  0.00    +0.000 A 
ATOM      8  H   UNL     1       6.219   0.952  -4.264  0.00  0.00    +0.000 HD
ENDROOT
BRANCH   1  10
ATOM      9  N   UNL     1       1.595  -3.831  -2.648  0.00  0.00    +0.000 N 
ATOM     10  C   UNL     1       2.727  -3.317  -2.068  0.00  0.00    +0.000 C 
ATOM     11  O   UNL     1       3.206  -3.796  -1.056  0.00  0.00    +0.000 OA
ATOM     12  H   UNL     1       1.188  -4.651  -2.217  0.00  0.00    +0.000 HD
ATOM     13  H   UNL     1       1.301  -3.601  -3.584  0.00  0.00    +0.000 HD
ENDBRANCH   1  10
BRANCH   5  14
ATOM     14  C   UNL     1       4.931   1.850  -5.704  0.00  0.00    +0.000 C 
ATOM     15  C   UNL     1       4.949   3.369  -5.540  0.00  0.00    +0.000 C 
ATOM     16  C   UNL     1       3.691   2.688  -5.965  0.00  0.00    +0.000 C 
BRANCH  14  17
ATOM     17  C   UNL     1       5.592   1.233  -6.924  0.00  0.00    +0.000 A 
ATOM     18  C   UNL     1       6.876   1.590  -7.350  0.00  0.00    +0.000 A 
ATOM     19  C   UNL     1       7.475   0.939  -8.430  0.00  0.00    +0.000 A 
ATOM     20  C   UNL     1       6.770  -0.063  -9.095  0.00  0.00    +0.000 A 
ATOM     21  N   UNL     1       5.506  -0.411  -8.725  0.00  0.00    +0.000 NA
ATOM     22  C   UNL     1       4.966   0.230  -7.662  0.00  0.00    +0.000 A 
BRANCH  20  23
ATOM     23  C   UNL     1       7.417  -0.809 -10.253  0.00  0.00    +0.000 C 
ATOM     24  F   UNL     1       8.692  -0.389 -10.518  0.00  0.00    +0.000 F 
ATOM     25  F   UNL     1       7.518  -2.152 -10.034  0.00  0.00    +0.000 F 
ATOM     26  F   UNL     1       6.738  -0.667 -11.427  0.00  0.00    +0.000 F 
ENDBRANCH  20  23
ENDBRANCH  14  17
ENDBRANCH   5  14
TORSDOF 4
