REMARK  Name = 
REMARK  7 active torsions:
REMARK  status: ('A' for Active; 'I' for Inactive)
REMARK    1  A    between atoms: C_1  and  N_2
REMARK    2  A    between atoms: N_2  and  C_3
REMARK    3  A    between atoms: C_3  and  C_4
REMARK    4  A    between atoms: C_7  and  C_8
REMARK    5  A    between atoms: C_8  and  N_9
REMARK    6  A    between atoms: C_10  and  C_12
REMARK    7  A    between atoms: C_19  and  C_21
REMARK                            x       y       z     vdW  Elec       q    Type
REMARK                         _______ _______ _______ _____ _____    ______ ____
ROOT
ATOM      1  C   UNL     1       2.313  -0.041   2.475  0.00  0.00    +0.000 A 
ATOM      2  C   UNL     1       2.043  -1.352   2.900  0.00  0.00    +0.000 A 
ATOM      3  C   UNL     1       1.206  -1.582   3.990  0.00  0.00    +0.000 A 
ATOM      4  C   UNL     1       0.619  -0.506   4.669  0.00  0.00    +0.000 A 
ATOM      5  C   UNL     1       0.930   0.802   4.273  0.00  0.00    +0.000 A 
ATOM      6  C   UNL     1       1.761   1.034   3.179  0.00  0.00    +0.000 A 
ENDROOT
BRANCH   1   7
ATOM      7  C   UNL     1       3.156   0.212   1.253  0.00  0.00    +0.000 C 
BRANCH   7   9
ATOM      8  C   UNL     1       1.016   0.140  -0.108  0.00  0.00    +0.000 C 
ATOM      9  N   UNL     1       2.454   0.376  -0.026  0.00  0.00    +0.000 N 
ATOM     10  C   UNL     1       3.029   1.006  -1.146  0.00  0.00    +0.000 C 
ATOM     11  O   UNL     1       2.345   1.308  -2.122  0.00  0.00    +0.000 OA
BRANCH  10  12
ATOM     12  C   UNL     1       4.476   1.268  -1.167  0.00  0.00    +0.000 A 
ATOM     13  C   UNL     1       5.441   0.373  -0.735  0.00  0.00    +0.000 A 
ATOM     14  S   UNL     1       7.039   0.934  -0.939  0.00  0.00    +0.000 S 
ATOM     15  C   UNL     1       6.500   2.325  -1.752  0.00  0.00    +0.000 A 
ATOM     16  N   UNL     1       7.384   3.197  -2.302  0.00  0.00    +0.000 NA
ATOM     17  C   UNL     1       6.836   4.173  -2.946  0.00  0.00    +0.000 A 
ATOM     18  N   UNL     1       5.482   4.373  -3.056  0.00  0.00    +0.000 N 
ATOM     19  C   UNL     1       4.553   3.595  -2.400  0.00  0.00    +0.000 A 
ATOM     20  O   UNL     1       3.382   3.948  -2.317  0.00  0.00    +0.000 OA
ATOM     21  C   UNL     1       5.120   2.412  -1.772  0.00  0.00    +0.000 A 
ATOM     22  H   UNL     1       5.118   5.195  -3.516  0.00  0.00    +0.000 HD
ENDBRANCH  10  12
ENDBRANCH   7   9
ENDBRANCH   1   7
BRANCH   4  23
ATOM     23  C   UNL     1      -0.350  -0.744   5.794  0.00  0.00    +0.000 C 
BRANCH  23  24
ATOM     24  N   UNL     1       0.312  -0.835   7.069  0.00  0.00    +0.000 N 
ATOM     25  C   UNL     1      -0.429  -0.931   8.225  0.00  0.00    +0.000 C 
ATOM     26  O   UNL     1      -1.658  -0.933   8.225  0.00  0.00    +0.000 OA
ATOM     27  H   UNL     1       1.311  -0.966   7.095  0.00  0.00    +0.000 HD
BRANCH  25  28
ATOM     28  C   UNL     1       0.334  -1.035   9.452  0.00  0.00    +0.000 A 
ATOM     29  C   UNL     1      -0.183  -1.211  10.759  0.00  0.00    +0.000 A 
ATOM     30  N   UNL     1       0.771  -1.260  11.694  0.00  0.00    +0.000 NA
ATOM     31  N   UNL     1       1.903  -1.103  10.994  0.00  0.00    +0.000 N 
ATOM     32  C   UNL     1       1.701  -0.970   9.650  0.00  0.00    +0.000 A 
ATOM     33  H   UNL     1       2.784  -1.092  11.501  0.00  0.00    +0.000 HD
ENDBRANCH  25  28
ENDBRANCH  23  24
ENDBRANCH   4  23
TORSDOF 6
