REMARK  Name = 
REMARK  6 active torsions:
REMARK  status: ('A' for Active; 'I' for Inactive)
REMARK    1  A    between atoms: C_2  and  C_25
REMARK    2  A    between atoms: N_3  and  C_4
REMARK    3  A    between atoms: C_4  and  C_5
REMARK    4  A    between atoms: C_8  and  C_9
REMARK    5  A    between atoms: C_9  and  N_10
REMARK    6  A    between atoms: C_11  and  C_13
REMARK                            x       y       z     vdW  Elec       q    Type
REMARK                         _______ _______ _______ _____ _____    ______ ____
ROOT
ATOM      1  C   UNL     1       3.193  -2.689  -2.379  0.00  0.00    +0.000 A 
ATOM      2  C   UNL     1       4.288  -2.132  -3.054  0.00  0.00    +0.000 A 
ATOM      3  C   UNL     1       5.159  -2.940  -3.794  0.00  0.00    +0.000 A 
ATOM      4  C   UNL     1       4.941  -4.321  -3.892  0.00  0.00    +0.000 A 
ATOM      5  C   UNL     1       3.853  -4.879  -3.208  0.00  0.00    +0.000 A 
ATOM      6  C   UNL     1       2.982  -4.071  -2.470  0.00  0.00    +0.000 A 
ENDROOT
BRANCH   1   7
ATOM      7  C   UNL     1       2.243  -1.813  -1.602  0.00  0.00    +0.000 C 
BRANCH   7  10
ATOM      8  O   UNL     1       0.091  -0.243  -0.751  0.00  0.00    +0.000 OA
ATOM      9  C   UNL     1       0.162  -0.552  -1.937  0.00  0.00    +0.000 C 
ATOM     10  N   UNL     1       1.178  -1.324  -2.443  0.00  0.00    +0.000 N 
ATOM     11  H   UNL     1       1.276  -1.433  -3.442  0.00  0.00    +0.000 HD
BRANCH   9  12
ATOM     12  C   UNL     1      -0.812  -0.112  -2.902  0.00  0.00    +0.000 A 
ATOM     13  C   UNL     1      -1.027  -0.422  -4.231  0.00  0.00    +0.000 A 
ATOM     14  N   UNL     1      -2.101   0.261  -4.740  0.00  0.00    +0.000 NA
ATOM     15  C   UNL     1      -2.558   0.977  -3.740  0.00  0.00    +0.000 A 
ATOM     16  N   UNL     1      -1.820   0.782  -2.610  0.00  0.00    +0.000 N 
ATOM     17  H   UNL     1      -1.971   1.214  -1.708  0.00  0.00    +0.000 HD
ENDBRANCH   9  12
ENDBRANCH   7  10
ENDBRANCH   1   7
BRANCH   4  18
ATOM     18  C   UNL     1       5.880  -5.199  -4.681  0.00  0.00    +0.000 C 
BRANCH  18  19
ATOM     19  N   UNL     1       6.955  -5.686  -3.854  0.00  0.00    +0.000 N 
ATOM     20  C   UNL     1       7.976  -6.442  -4.372  0.00  0.00    +0.000 C 
ATOM     21  O   UNL     1       8.054  -6.699  -5.570  0.00  0.00    +0.000 OA
ATOM     22  H   UNL     1       6.791  -5.692  -2.853  0.00  0.00    +0.000 HD
BRANCH  20  23
ATOM     23  C   UNL     1       9.011  -6.876  -3.423  0.00  0.00    +0.000 A 
ATOM     24  C   UNL     1      10.279  -7.203  -3.886  0.00  0.00    +0.000 A 
ATOM     25  S   UNL     1      11.375  -7.613  -2.643  0.00  0.00    +0.000 S 
ATOM     26  C   UNL     1      10.179  -7.423  -1.449  0.00  0.00    +0.000 A 
ATOM     27  N   UNL     1      10.458  -7.643  -0.136  0.00  0.00    +0.000 NA
ATOM     28  C   UNL     1       9.449  -7.497   0.656  0.00  0.00    +0.000 A 
ATOM     29  N   UNL     1       8.186  -7.147   0.255  0.00  0.00    +0.000 N 
ATOM     30  C   UNL     1       7.864  -6.889  -1.055  0.00  0.00    +0.000 A 
ATOM     31  O   UNL     1       6.731  -6.544  -1.375  0.00  0.00    +0.000 OA
ATOM     32  C   UNL     1       8.963  -7.043  -1.989  0.00  0.00    +0.000 A 
ATOM     33  H   UNL     1       7.439  -7.045   0.926  0.00  0.00    +0.000 HD
ENDBRANCH  20  23
ENDBRANCH  18  19
ENDBRANCH   4  18
TORSDOF 6
