REMARK  Name = 
REMARK  5 active torsions:
REMARK  status: ('A' for Active; 'I' for Inactive)
REMARK    1  A    between atoms: C_2  and  C_18
REMARK    2  A    between atoms: N_3  and  C_4
REMARK    3  A    between atoms: C_4  and  C_5
REMARK    4  A    between atoms: C_8  and  C_9
REMARK    5  A    between atoms: C_9  and  C_10
REMARK                            x       y       z     vdW  Elec       q    Type
REMARK                         _______ _______ _______ _____ _____    ______ ____
ROOT
ATOM      1  O   UNL     1       0.710   2.104  -2.794  0.00  0.00    +0.000 OA
ATOM      2  C   UNL     1       0.228   1.000  -3.026  0.00  0.00    +0.000 C 
ATOM      3  N   UNL     1       0.882  -0.175  -2.754  0.00  0.00    +0.000 N 
ATOM      4  H   UNL     1       0.522  -1.039  -3.142  0.00  0.00    +0.000 HD
ENDROOT
BRANCH   2   5
ATOM      5  C   UNL     1      -1.127   0.850  -3.574  0.00  0.00    +0.000 A 
ATOM      6  C   UNL     1      -2.079   1.840  -3.359  0.00  0.00    +0.000 A 
ATOM      7  S   UNL     1      -3.588   1.489  -4.078  0.00  0.00    +0.000 S 
ATOM      8  C   UNL     1      -3.002   0.027  -4.724  0.00  0.00    +0.000 A 
ATOM      9  N   UNL     1      -3.792  -0.773  -5.493  0.00  0.00    +0.000 NA
ATOM     10  C   UNL     1      -3.204  -1.828  -5.944  0.00  0.00    +0.000 A 
ATOM     11  N   UNL     1      -1.900  -2.169  -5.691  0.00  0.00    +0.000 N 
ATOM     12  C   UNL     1      -1.095  -1.437  -4.854  0.00  0.00    +0.000 A 
ATOM     13  O   UNL     1       0.010  -1.860  -4.524  0.00  0.00    +0.000 OA
ATOM     14  C   UNL     1      -1.688  -0.208  -4.368  0.00  0.00    +0.000 A 
ATOM     15  H   UNL     1      -1.510  -3.032  -6.037  0.00  0.00    +0.000 HD
ENDBRANCH   2   5
BRANCH   3  16
ATOM     16  C   UNL     1       2.246  -0.217  -2.304  0.00  0.00    +0.000 C 
BRANCH  16  17
ATOM     17  C   UNL     1       3.213  -0.278  -3.459  0.00  0.00    +0.000 A 
ATOM     18  C   UNL     1       3.674   0.908  -4.044  0.00  0.00    +0.000 A 
ATOM     19  C   UNL     1       4.599   0.876  -5.089  0.00  0.00    +0.000 A 
ATOM     20  C   UNL     1       5.081  -0.345  -5.578  0.00  0.00    +0.000 A 
ATOM     21  C   UNL     1       4.597  -1.533  -5.012  0.00  0.00    +0.000 A 
ATOM     22  C   UNL     1       3.662  -1.501  -3.973  0.00  0.00    +0.000 A 
BRANCH  20  23
ATOM     23  C   UNL     1       6.137  -0.381  -6.663  0.00  0.00    +0.000 C 
BRANCH  23  24
ATOM     24  C   UNL     1       7.540  -0.381  -6.115  0.00  0.00    +0.000 A 
ATOM     25  C   UNL     1       8.211  -1.572  -5.822  0.00  0.00    +0.000 A 
ATOM     26  C   UNL     1       9.458  -1.529  -5.205  0.00  0.00    +0.000 A 
ATOM     27  C   UNL     1      10.007  -0.291  -4.918  0.00  0.00    +0.000 A 
ATOM     28  N   UNL     1       9.413   0.881  -5.224  0.00  0.00    +0.000 NA
ATOM     29  C   UNL     1       8.194   0.810  -5.808  0.00  0.00    +0.000 A 
ENDBRANCH  23  24
ENDBRANCH  20  23
ENDBRANCH  16  17
ENDBRANCH   3  16
TORSDOF 5
