REMARK  Name = 
REMARK  5 active torsions:
REMARK  status: ('A' for Active; 'I' for Inactive)
REMARK    1  A    between atoms: C_2  and  C_3
REMARK    2  A    between atoms: N_7  and  C_8
REMARK    3  A    between atoms: C_8  and  C_9
REMARK    4  A    between atoms: C_9  and  C_11
REMARK    5  A    between atoms: C_15  and  C_16
REMARK                            x       y       z     vdW  Elec       q    Type
REMARK                         _______ _______ _______ _____ _____    ______ ____
ROOT
ATOM      1  C   UNL     1      -4.335   1.319  -0.176  0.00  0.00    +0.000 C 
ENDROOT
BRANCH   1   6
ATOM      2  C   UNL     1       0.500   0.224   0.273  0.00  0.00    +0.000 A 
ATOM      3  C   UNL     1      -0.109  -1.010   0.070  0.00  0.00    +0.000 A 
ATOM      4  C   UNL     1      -1.495  -1.068  -0.120  0.00  0.00    +0.000 A 
ATOM      5  C   UNL     1      -2.249   0.105  -0.099  0.00  0.00    +0.000 A 
ATOM      6  N   UNL     1      -3.632   0.030  -0.351  0.00  0.00    +0.000 N 
ATOM      7  N   UNL     1      -1.658   1.305   0.082  0.00  0.00    +0.000 NA
ATOM      8  C   UNL     1      -0.313   1.343   0.268  0.00  0.00    +0.000 A 
ATOM      9  H   UNL     1      -4.049  -0.708   0.213  0.00  0.00    +0.000 HD
BRANCH   2  11
ATOM     10  N   UNL     1       3.056   0.444   0.638  0.00  0.00    +0.000 NA
ATOM     11  C   UNL     1       1.910   0.345   0.473  0.00  0.00    +0.000 C 
ENDBRANCH   2  11
ENDBRANCH   1   6
BRANCH   1  12
ATOM     12  C   UNL     1      -5.867   1.153  -0.257  0.00  0.00    +0.000 C 
ATOM     13  F   UNL     1      -6.266   0.396   0.815  0.00  0.00    +0.000 F 
BRANCH  12  14
ATOM     14  C   UNL     1      -6.582   2.492  -0.300  0.00  0.00    +0.000 A 
ATOM     15  C   UNL     1      -6.808   3.129  -1.530  0.00  0.00    +0.000 A 
ATOM     16  C   UNL     1      -7.452   4.367  -1.586  0.00  0.00    +0.000 A 
ATOM     17  C   UNL     1      -7.880   4.988  -0.412  0.00  0.00    +0.000 A 
ATOM     18  C   UNL     1      -7.667   4.368   0.824  0.00  0.00    +0.000 A 
ATOM     19  C   UNL     1      -7.018   3.125   0.877  0.00  0.00    +0.000 A 
BRANCH  18  20
ATOM     20  C   UNL     1      -8.112   5.003   2.031  0.00  0.00    +0.000 C 
ATOM     21  N   UNL     1      -8.476   5.524   3.004  0.00  0.00    +0.000 NA
ENDBRANCH  18  20
ENDBRANCH  12  14
ENDBRANCH   1  12
TORSDOF 5
