REMARK  Name = 
REMARK  6 active torsions:
REMARK  status: ('A' for Active; 'I' for Inactive)
REMARK    1  A    between atoms: C_2  and  C_4
REMARK    2  A    between atoms: N_8  and  C_9
REMARK    3  A    between atoms: C_9  and  C_10
REMARK    4  A    between atoms: C_10  and  C_13
REMARK    5  A    between atoms: C_18  and  N_19
REMARK    6  A    between atoms: N_19  and  C_20
REMARK                            x       y       z     vdW  Elec       q    Type
REMARK                         _______ _______ _______ _____ _____    ______ ____
ROOT
ATOM      1  C   UNL     1       6.229   4.106   5.758  0.00  0.00    +0.000 C 
ATOM      2  F   UNL     1       7.394   3.385   5.705  0.00  0.00    +0.000 F 
ATOM      3  F   UNL     1       6.512   5.279   5.118  0.00  0.00    +0.000 F 
ENDROOT
BRANCH   1   4
ATOM      4  C   UNL     1       5.768   4.341   7.184  0.00  0.00    +0.000 A 
ATOM      5  C   UNL     1       5.031   5.488   7.506  0.00  0.00    +0.000 A 
ATOM      6  C   UNL     1       4.568   5.684   8.805  0.00  0.00    +0.000 A 
ATOM      7  C   UNL     1       4.844   4.736   9.794  0.00  0.00    +0.000 A 
ATOM      8 CL   UNL     1       4.217   5.008  11.383  0.00  0.00    +0.000 Cl
ATOM      9  C   UNL     1       5.584   3.572   9.503  0.00  0.00    +0.000 A 
ATOM     10  C   UNL     1       6.049   3.401   8.191  0.00  0.00    +0.000 A 
BRANCH   9  11
ATOM     11  N   UNL     1       5.921   2.648  10.526  0.00  0.00    +0.000 N 
ATOM     12  H   UNL     1       5.398   2.845  11.383  0.00  0.00    +0.000 HD
BRANCH  11  13
ATOM     13  C   UNL     1       6.228   1.253  10.337  0.00  0.00    +0.000 C 
ATOM     14  C   UNL     1       5.022   0.319  10.500  0.00  0.00    +0.000 C 
ATOM     15  O   UNL     1       5.667  -0.398  11.581  0.00  0.00    +0.000 OA
ATOM     16  C   UNL     1       6.754   0.560  11.599  0.00  0.00    +0.000 C 
ENDBRANCH  11  13
ENDBRANCH   9  11
ENDBRANCH   1   4
BRANCH   1  17
ATOM     17  C   UNL     1       5.155   3.329   4.957  0.00  0.00    +0.000 C 
BRANCH  17  22
ATOM     18  C   UNL     1       2.916   0.953   1.172  0.00  0.00    +0.000 A 
ATOM     19  C   UNL     1       4.087   1.461   0.619  0.00  0.00    +0.000 A 
ATOM     20  C   UNL     1       4.950   2.203   1.427  0.00  0.00    +0.000 A 
ATOM     21  C   UNL     1       4.641   2.414   2.770  0.00  0.00    +0.000 A 
ATOM     22  N   UNL     1       5.506   3.211   3.528  0.00  0.00    +0.000 N 
ATOM     23  N   UNL     1       3.502   1.934   3.309  0.00  0.00    +0.000 NA
ATOM     24  C   UNL     1       2.663   1.227   2.507  0.00  0.00    +0.000 A 
ATOM     25  H   UNL     1       6.474   2.930   3.391  0.00  0.00    +0.000 HD
BRANCH  18  27
ATOM     26  N   UNL     1       2.376  -0.514  -0.690  0.00  0.00    +0.000 N 
ATOM     27  C   UNL     1       1.924   0.180   0.398  0.00  0.00    +0.000 C 
ATOM     28  O   UNL     1       0.747   0.135   0.731  0.00  0.00    +0.000 OA
ATOM     29  H   UNL     1       1.704  -1.113  -1.154  0.00  0.00    +0.000 HD
ATOM     30  H   UNL     1       3.355  -0.695  -0.859  0.00  0.00    +0.000 HD
ENDBRANCH  18  27
ENDBRANCH  17  22
ENDBRANCH   1  17
TORSDOF 6
