REMARK  Name = 
REMARK  9 active torsions:
REMARK  status: ('A' for Active; 'I' for Inactive)
REMARK    1  A    between atoms: C_1  and  C_2
REMARK    2  A    between atoms: N_4  and  C_5
REMARK    3  A    between atoms: C_9  and  C_10
REMARK    4  A    between atoms: C_10  and  C_11
REMARK    5  A    between atoms: C_10  and  C_12
REMARK    6  A    between atoms: C_10  and  C_13
REMARK    7  A    between atoms: C_13  and  N_14
REMARK    8  A    between atoms: C_18  and  C_19
REMARK    9  A    between atoms: C_26  and  C_27
REMARK                            x       y       z     vdW  Elec       q    Type
REMARK                         _______ _______ _______ _____ _____    ______ ____
ROOT
ATOM      1  C   UNL     1      -1.370   1.131  -5.289  0.00  0.00    +0.000 C 
ATOM      2  C   UNL     1      -0.902  -0.156  -6.017  0.00  0.00    +0.000 C 
ATOM      3  C   UNL     1      -2.389   0.755  -4.192  0.00  0.00    +0.000 C 
ENDROOT
BRANCH   1   8
ATOM      4  C   UNL     1       1.883   1.536  -3.211  0.00  0.00    +0.000 A 
ATOM      5  C   UNL     1       2.272   2.825  -3.585  0.00  0.00    +0.000 A 
ATOM      6  C   UNL     1       1.491   3.603  -4.436  0.00  0.00    +0.000 A 
ATOM      7  C   UNL     1       0.307   3.092  -4.964  0.00  0.00    +0.000 A 
ATOM      8  C   UNL     1      -0.128   1.798  -4.642  0.00  0.00    +0.000 A 
ATOM      9  C   UNL     1       0.663   1.068  -3.727  0.00  0.00    +0.000 A 
BRANCH   4  13
ATOM     10  C   UNL     1       1.924  -2.215  -3.134  0.00  0.00    +0.000 C 
ATOM     11  C   UNL     1       2.627  -1.665  -1.894  0.00  0.00    +0.000 C 
ATOM     12  C   UNL     1       2.139  -0.261  -1.485  0.00  0.00    +0.000 C 
ATOM     13  N   UNL     1       2.675   0.776  -2.374  0.00  0.00    +0.000 N 
ATOM     14  C   UNL     1       4.131   0.705  -2.585  0.00  0.00    +0.000 C 
ATOM     15  C   UNL     1       4.554  -0.730  -2.975  0.00  0.00    +0.000 C 
ATOM     16  C   UNL     1       6.073  -0.851  -3.001  0.00  0.00    +0.000 C 
ATOM     17  O   UNL     1       4.060  -1.709  -2.042  0.00  0.00    +0.000 OA
ENDBRANCH   4  13
ENDBRANCH   1   8
BRANCH   1  18
ATOM     18  C   UNL     1      -2.049   2.073  -6.333  0.00  0.00    +0.000 C 
BRANCH  18  19
ATOM     19  N   UNL     1      -3.206   1.496  -7.007  0.00  0.00    +0.000 N 
ATOM     20  C   UNL     1      -3.862   2.249  -7.971  0.00  0.00    +0.000 A 
ATOM     21  C   UNL     1      -3.237   3.181  -8.811  0.00  0.00    +0.000 A 
ATOM     22  N   UNL     1      -3.868   3.878  -9.795  0.00  0.00    +0.000 NA
ATOM     23  C   UNL     1      -5.184   3.580  -9.930  0.00  0.00    +0.000 A 
ATOM     24  C   UNL     1      -5.821   2.656  -9.116  0.00  0.00    +0.000 A 
ATOM     25  N   UNL     1      -5.177   1.986  -8.120  0.00  0.00    +0.000 NA
ATOM     26  H   UNL     1      -3.921   1.067  -6.424  0.00  0.00    +0.000 HD
BRANCH  23  27
ATOM     27  C   UNL     1      -5.940   4.272 -11.008  0.00  0.00    +0.000 C 
ATOM     28  N   UNL     1      -5.232   5.166 -11.770  0.00  0.00    +0.000 N 
ATOM     29  O   UNL     1      -7.128   4.060 -11.210  0.00  0.00    +0.000 OA
ATOM     30  H   UNL     1      -4.246   5.326 -11.594  0.00  0.00    +0.000 HD
ATOM     31  H   UNL     1      -5.693   5.651 -12.521  0.00  0.00    +0.000 HD
ENDBRANCH  23  27
ENDBRANCH  18  19
ENDBRANCH   1  18
TORSDOF 5
