REMARK  Name = 
REMARK  4 active torsions:
REMARK  status: ('A' for Active; 'I' for Inactive)
REMARK    1  A    between atoms: N_1  and  C_2
REMARK    2  A    between atoms: C_2  and  C_3
REMARK    3  A    between atoms: C_7  and  C_8
REMARK    4  A    between atoms: C_8  and  N_9
REMARK                            x       y       z     vdW  Elec       q    Type
REMARK                         _______ _______ _______ _____ _____    ______ ____
ROOT
ATOM      1  C   UNL     1       4.419   2.320   0.396  0.00  0.00    +0.000 A 
ATOM      2  C   UNL     1       4.323   1.871  -0.920  0.00  0.00    +0.000 A 
ATOM      3  C   UNL     1       3.372   2.439  -1.754  0.00  0.00    +0.000 A 
ATOM      4  N   UNL     1       2.537   3.431  -1.374  0.00  0.00    +0.000 NA
ATOM      5  C   UNL     1       2.634   3.877  -0.097  0.00  0.00    +0.000 A 
ATOM      6  C   UNL     1       3.549   3.340   0.812  0.00  0.00    +0.000 A 
ENDROOT
BRANCH   1   7
ATOM      7  C   UNL     1       5.509   1.786   1.294  0.00  0.00    +0.000 C 
BRANCH   7   8
ATOM      8  N   UNL     1       5.113   1.714   2.695  0.00  0.00    +0.000 NA
ATOM      9  H   UNL     1       5.882   1.324   3.237  0.00  0.00    +0.000 HD
ATOM     10  H   UNL     1       4.340   1.052   2.784  0.00  0.00    +0.000 HD
ENDBRANCH   7   8
ENDBRANCH   1   7
BRANCH   5  11
ATOM     11  C   UNL     1       1.728   5.014   0.303  0.00  0.00    +0.000 C 
BRANCH  11  12
ATOM     12  N   UNL     1       0.470   4.537   0.845  0.00  0.00    +0.000 N 
ATOM     13  C   UNL     1      -0.494   3.882   0.128  0.00  0.00    +0.000 A 
ATOM     14  N   UNL     1      -1.516   3.544   0.881  0.00  0.00    +0.000 NA
ATOM     15  C   UNL     1      -1.208   4.014   2.134  0.00  0.00    +0.000 A 
ATOM     16  C   UNL     1      -1.937   3.905   3.328  0.00  0.00    +0.000 A 
ATOM     17  C   UNL     1      -1.415   4.481   4.492  0.00  0.00    +0.000 A 
ATOM     18  C   UNL     1      -0.204   5.174   4.463  0.00  0.00    +0.000 A 
ATOM     19  C   UNL     1       0.539   5.292   3.282  0.00  0.00    +0.000 A 
ATOM     20  C   UNL     1       0.018   4.679   2.135  0.00  0.00    +0.000 A 
ENDBRANCH  11  12
ENDBRANCH   5  11
TORSDOF 4
