REMARK  Name = 
REMARK  11 active torsions:
REMARK  status: ('A' for Active; 'I' for Inactive)
REMARK    1  A    between atoms: C_1  and  C_2
REMARK    2  A    between atoms: C_2  and  O_3
REMARK    3  A    between atoms: O_3  and  C_4
REMARK    4  A    between atoms: C_4  and  C_5
REMARK    5  A    between atoms: C_5  and  N_6
REMARK    6  A    between atoms: N_6  and  C_7
REMARK    7  A    between atoms: C_7  and  C_8
REMARK    8  A    between atoms: C_11  and  C_12
REMARK    9  A    between atoms: C_12  and  N_13
REMARK   10  A    between atoms: C_16  and  O_17
REMARK   11  A    between atoms: C_21  and  C_23
REMARK                            x       y       z     vdW  Elec       q    Type
REMARK                         _______ _______ _______ _____ _____    ______ ____
ROOT
ATOM      1  N   UNL     1       6.397  -1.832   2.148  0.00  0.00    +0.000 N 
ATOM      2  C   UNL     1       7.116  -2.669   3.037  0.00  0.00    +0.000 C 
ATOM      3  O   UNL     1       6.556  -3.349   3.867  0.00  0.00    +0.000 OA
ENDROOT
BRANCH   2   4
ATOM      4  C   UNL     1       8.593  -2.684   2.952  0.00  0.00    +0.000 A 
ATOM      5  C   UNL     1       9.383  -1.570   2.675  0.00  0.00    +0.000 A 
ATOM      6  S   UNL     1      11.049  -1.866   2.759  0.00  0.00    +0.000 S 
ATOM      7  C   UNL     1      10.776  -3.461   3.270  0.00  0.00    +0.000 A 
ATOM      8  N   UNL     1      11.816  -4.245   3.654  0.00  0.00    +0.000 NA
ATOM      9  C   UNL     1      11.461  -5.411   4.077  0.00  0.00    +0.000 A 
ATOM     10  N   UNL     1      10.172  -5.885   4.097  0.00  0.00    +0.000 N 
ATOM     11  C   UNL     1       9.099  -5.170   3.589  0.00  0.00    +0.000 A 
ATOM     12  O   UNL     1       8.024  -5.711   3.396  0.00  0.00    +0.000 OA
ATOM     13  C   UNL     1       9.437  -3.800   3.258  0.00  0.00    +0.000 A 
ATOM     14  H   UNL     1       9.971  -6.829   4.376  0.00  0.00    +0.000 HD
ENDBRANCH   2   4
BRANCH   1  15
ATOM     15  C   UNL     1       4.921  -1.958   2.255  0.00  0.00    +0.000 C 
BRANCH  15  16
ATOM     16  C   UNL     1       4.284  -1.182   3.420  0.00  0.00    +0.000 C 
BRANCH  16  17
ATOM     17  O   UNL     1       2.859  -1.366   3.587  0.00  0.00    +0.000 OA
BRANCH  17  19
ATOM     18  C   UNL     1       0.964  -0.632   5.001  0.00  0.00    +0.000 C 
ATOM     19  C   UNL     1       2.450  -0.565   4.708  0.00  0.00    +0.000 C 
ENDBRANCH  17  19
ENDBRANCH  16  17
ENDBRANCH  15  16
ENDBRANCH   1  15
BRANCH   1  20
ATOM     20  C   UNL     1       7.055  -1.268   0.967  0.00  0.00    +0.000 C 
BRANCH  20  21
ATOM     21  C   UNL     1       6.298  -0.779  -0.232  0.00  0.00    +0.000 A 
ATOM     22  C   UNL     1       5.990   0.583  -0.294  0.00  0.00    +0.000 A 
ATOM     23  C   UNL     1       5.597   1.167  -1.496  0.00  0.00    +0.000 A 
ATOM     24  C   UNL     1       5.383   0.384  -2.643  0.00  0.00    +0.000 A 
ATOM     25  C   UNL     1       5.601  -1.003  -2.544  0.00  0.00    +0.000 A 
ATOM     26  C   UNL     1       6.094  -1.575  -1.361  0.00  0.00    +0.000 A 
BRANCH  24  27
ATOM     27  C   UNL     1       4.882   1.022  -3.932  0.00  0.00    +0.000 C 
BRANCH  27  28
ATOM     28  N   UNL     1       5.868   1.498  -4.905  0.00  0.00    +0.000 NA
ATOM     29  C   UNL     1       6.782   0.500  -5.441  0.00  0.00    +0.000 C 
ATOM     30  C   UNL     1       8.189   1.027  -5.216  0.00  0.00    +0.000 C 
ATOM     31  C   UNL     1       8.015   2.532  -5.114  0.00  0.00    +0.000 C 
ATOM     32  C   UNL     1       6.582   2.739  -4.608  0.00  0.00    +0.000 C 
BRANCH  31  33
ATOM     33  O   UNL     1       8.197   3.115  -6.404  0.00  0.00    +0.000 OA
ATOM     34  H   UNL     1       7.474   2.787  -6.968  0.00  0.00    +0.000 HD
ENDBRANCH  31  33
ENDBRANCH  27  28
ENDBRANCH  24  27
ENDBRANCH  20  21
ENDBRANCH   1  20
TORSDOF 10
