REMARK  Name = 
REMARK  8 active torsions:
REMARK  status: ('A' for Active; 'I' for Inactive)
REMARK    1  A    between atoms: C_1  and  C_2
REMARK    2  A    between atoms: C_4  and  O_5
REMARK    3  A    between atoms: C_7  and  C_8
REMARK    4  A    between atoms: C_12  and  C_13
REMARK    5  A    between atoms: C_13  and  C_14
REMARK    6  A    between atoms: C_14  and  N_15
REMARK    7  A    between atoms: N_15  and  C_16
REMARK    8  A    between atoms: C_19  and  C_20
REMARK                            x       y       z     vdW  Elec       q    Type
REMARK                         _______ _______ _______ _____ _____    ______ ____
ROOT
ATOM      1  C   UNL     1       0.205  -3.233   0.027  0.00  0.00    +0.000 A 
ATOM      2  C   UNL     1       0.887  -3.877   1.076  0.00  0.00    +0.000 A 
ATOM      3  C   UNL     1       0.924  -5.269   1.179  0.00  0.00    +0.000 A 
ATOM      4  C   UNL     1       0.288  -6.057   0.225  0.00  0.00    +0.000 A 
ATOM      5  C   UNL     1      -0.393  -5.458  -0.841  0.00  0.00    +0.000 A 
ATOM      6  C   UNL     1      -0.433  -4.054  -0.924  0.00  0.00    +0.000 A 
ENDROOT
BRANCH   1  12
ATOM      7  C   UNL     1       0.232   0.972  -2.750  0.00  0.00    +0.000 C 
ATOM      8  C   UNL     1       0.194   0.315  -1.401  0.00  0.00    +0.000 A 
ATOM      9  C   UNL     1       0.151   1.078  -0.232  0.00  0.00    +0.000 A 
ATOM     10  C   UNL     1       0.110   0.439   1.000  0.00  0.00    +0.000 A 
ATOM     11  C   UNL     1       0.102  -0.952   1.088  0.00  0.00    +0.000 A 
ATOM     12  C   UNL     1       0.166  -1.753  -0.066  0.00  0.00    +0.000 A 
ATOM     13  C   UNL     1       0.209  -1.089  -1.307  0.00  0.00    +0.000 A 
BRANCH  10  14
ATOM     14  O   UNL     1       0.077   1.144   2.167  0.00  0.00    +0.000 OA
ATOM     15  H   UNL     1       0.140   2.091   1.959  0.00  0.00    +0.000 HD
ENDBRANCH  10  14
ENDBRANCH   1  12
BRANCH   5  16
ATOM     16  C   UNL     1      -1.127  -6.312  -1.846  0.00  0.00    +0.000 C 
BRANCH  16  17
ATOM     17  C   UNL     1      -2.579  -6.543  -1.415  0.00  0.00    +0.000 C 
BRANCH  17  18
ATOM     18  N   UNL     1      -3.261  -7.456  -2.329  0.00  0.00    +0.000 N 
ATOM     19  H   UNL     1      -2.938  -7.442  -3.292  0.00  0.00    +0.000 HD
BRANCH  18  20
ATOM     20  C   UNL     1      -4.627  -7.703  -2.191  0.00  0.00    +0.000 A 
ATOM     21  C   UNL     1      -5.378  -7.287  -1.084  0.00  0.00    +0.000 A 
ATOM     22  C   UNL     1      -6.715  -7.670  -0.924  0.00  0.00    +0.000 A 
ATOM     23  C   UNL     1      -7.330  -8.498  -1.864  0.00  0.00    +0.000 A 
ATOM     24  C   UNL     1      -6.596  -8.936  -2.969  0.00  0.00    +0.000 A 
ATOM     25  C   UNL     1      -5.258  -8.543  -3.120  0.00  0.00    +0.000 A 
BRANCH  23  26
ATOM     26  C   UNL     1      -8.734  -8.918  -1.613  0.00  0.00    +0.000 C 
ATOM     27  N   UNL     1      -9.484  -9.295  -2.692  0.00  0.00    +0.000 N 
ATOM     28  O   UNL     1      -9.223  -8.900  -0.490  0.00  0.00    +0.000 OA
ATOM     29  H   UNL     1      -9.208  -9.094  -3.642  0.00  0.00    +0.000 HD
ATOM     30  H   UNL     1     -10.463  -9.475  -2.512  0.00  0.00    +0.000 HD
ENDBRANCH  23  26
ENDBRANCH  18  20
ENDBRANCH  17  18
ENDBRANCH  16  17
ENDBRANCH   5  16
TORSDOF 7
