REMARK  Name = 
REMARK  5 active torsions:
REMARK  status: ('A' for Active; 'I' for Inactive)
REMARK    1  A    between atoms: C_1  and  C_2
REMARK    2  A    between atoms: C_2  and  N_3
REMARK    3  A    between atoms: C_2  and  C_13
REMARK    4  A    between atoms: N_3  and  C_4
REMARK    5  A    between atoms: C_7  and  C_8
REMARK                            x       y       z     vdW  Elec       q    Type
REMARK                         _______ _______ _______ _____ _____    ______ ____
ROOT
ATOM      1  C   UNL     1       0.184  -0.830  -0.234  0.00  0.00    +0.000 A 
ATOM      2  C   UNL     1       0.588  -2.118   0.128  0.00  0.00    +0.000 A 
ATOM      3  C   UNL     1      -0.258  -3.224  -0.023  0.00  0.00    +0.000 A 
ATOM      4  C   UNL     1      -1.556  -3.063  -0.505  0.00  0.00    +0.000 A 
ATOM      5  C   UNL     1      -2.002  -1.779  -0.833  0.00  0.00    +0.000 A 
ATOM      6  C   UNL     1      -1.138  -0.679  -0.686  0.00  0.00    +0.000 A 
ENDROOT
BRANCH   4   7
ATOM      7  C   UNL     1      -2.381  -4.294  -0.656  0.00  0.00    +0.000 C 
ATOM      8  N   UNL     1      -3.741  -4.167  -0.634  0.00  0.00    +0.000 N 
ATOM      9  O   UNL     1      -1.866  -5.404  -0.745  0.00  0.00    +0.000 OA
ATOM     10  H   UNL     1      -4.204  -3.331  -0.323  0.00  0.00    +0.000 HD
ATOM     11  H   UNL     1      -4.262  -5.038  -0.603  0.00  0.00    +0.000 HD
ENDBRANCH   4   7
BRANCH   1  12
ATOM     12  N   UNL     1       1.007   0.313  -0.093  0.00  0.00    +0.000 N 
ATOM     13  H   UNL     1       0.675   0.830   0.719  0.00  0.00    +0.000 HD
BRANCH  12  15
ATOM     14  C   UNL     1       2.937  -0.366  -1.460  0.00  0.00    +0.000 C 
ATOM     15  C   UNL     1       2.482   0.137  -0.082  0.00  0.00    +0.000 C 
BRANCH  15  16
ATOM     16  C   UNL     1       3.259   1.445   0.301  0.00  0.00    +0.000 C 
ATOM     17  C   UNL     1       2.980   1.883   1.751  0.00  0.00    +0.000 C 
ATOM     18  C   UNL     1       3.584   3.241   2.097  0.00  0.00    +0.000 C 
ATOM     19  C   UNL     1       3.111   4.301   1.116  0.00  0.00    +0.000 C 
ATOM     20  C   UNL     1       3.574   3.959  -0.290  0.00  0.00    +0.000 C 
ATOM     21  C   UNL     1       3.129   2.569  -0.748  0.00  0.00    +0.000 C 
ENDBRANCH  15  16
ENDBRANCH  12  15
ENDBRANCH   1  12
TORSDOF 4
