REMARK  Name = 
REMARK  7 active torsions:
REMARK  status: ('A' for Active; 'I' for Inactive)
REMARK    1  A    between atoms: C_1  and  C_2
REMARK    2  A    between atoms: C_2  and  N_3
REMARK    3  A    between atoms: C_2  and  C_16
REMARK    4  A    between atoms: C_4  and  C_6
REMARK    5  A    between atoms: C_19  and  C_20
REMARK    6  A    between atoms: C_20  and  N_21
REMARK    7  A    between atoms: C_22  and  C_24
REMARK                            x       y       z     vdW  Elec       q    Type
REMARK                         _______ _______ _______ _____ _____    ______ ____
ROOT
ATOM      1  C   UNL     1       3.087  -0.863  -1.263  0.00  0.00    +0.000 C 
ATOM      2  C   UNL     1       2.449  -0.003  -0.168  0.00  0.00    +0.000 C 
ENDROOT
BRANCH   2   3
ATOM      3  C   UNL     1       2.974   1.425  -0.163  0.00  0.00    +0.000 A 
ATOM      4  C   UNL     1       2.077   2.488  -0.331  0.00  0.00    +0.000 A 
ATOM      5  C   UNL     1       2.518   3.815  -0.304  0.00  0.00    +0.000 A 
ATOM      6  C   UNL     1       3.872   4.116  -0.112  0.00  0.00    +0.000 A 
ATOM      7  C   UNL     1       4.771   3.058   0.083  0.00  0.00    +0.000 A 
ATOM      8  C   UNL     1       4.329   1.727   0.047  0.00  0.00    +0.000 A 
BRANCH   6   9
ATOM      9  C   UNL     1       4.350   5.545  -0.153  0.00  0.00    +0.000 C 
BRANCH   9  10
ATOM     10  N   UNL     1       4.311   6.202   1.124  0.00  0.00    +0.000 N 
ATOM     11  C   UNL     1       4.744   7.505   1.271  0.00  0.00    +0.000 C 
ATOM     12  O   UNL     1       5.224   8.162   0.350  0.00  0.00    +0.000 OA
ATOM     13  H   UNL     1       3.863   5.778   1.933  0.00  0.00    +0.000 HD
BRANCH  11  14
ATOM     14  C   UNL     1       4.577   8.045   2.631  0.00  0.00    +0.000 A 
ATOM     15  C   UNL     1       4.910   9.353   3.079  0.00  0.00    +0.000 A 
ATOM     16  C   UNL     1       4.580   9.380   4.412  0.00  0.00    +0.000 A 
ATOM     17  N   UNL     1       4.086   8.143   4.698  0.00  0.00    +0.000 N 
ATOM     18  N   UNL     1       4.063   7.311   3.642  0.00  0.00    +0.000 NA
ATOM     19  H   UNL     1       3.748   7.798   5.591  0.00  0.00    +0.000 HD
ENDBRANCH  11  14
ENDBRANCH   9  10
ENDBRANCH   6   9
ENDBRANCH   2   3
BRANCH   2  20
ATOM     20  N   UNL     1       2.651  -0.595   1.139  0.00  0.00    +0.000 N 
ATOM     21  C   UNL     1       1.837  -1.568   1.654  0.00  0.00    +0.000 C 
ATOM     22  O   UNL     1       0.780  -1.902   1.129  0.00  0.00    +0.000 OA
ATOM     23  H   UNL     1       3.564  -0.455   1.552  0.00  0.00    +0.000 HD
BRANCH  21  24
ATOM     24  C   UNL     1       2.289  -2.160   2.917  0.00  0.00    +0.000 A 
ATOM     25  C   UNL     1       1.369  -2.627   3.845  0.00  0.00    +0.000 A 
ATOM     26  S   UNL     1       2.092  -3.280   5.246  0.00  0.00    +0.000 S 
ATOM     27  C   UNL     1       3.658  -2.991   4.643  0.00  0.00    +0.000 A 
ATOM     28  N   UNL     1       4.762  -3.342   5.356  0.00  0.00    +0.000 NA
ATOM     29  C   UNL     1       5.882  -3.094   4.763  0.00  0.00    +0.000 A 
ATOM     30  N   UNL     1       5.999  -2.523   3.522  0.00  0.00    +0.000 N 
ATOM     31  C   UNL     1       4.915  -2.114   2.784  0.00  0.00    +0.000 A 
ATOM     32  O   UNL     1       5.060  -1.533   1.713  0.00  0.00    +0.000 OA
ATOM     33  C   UNL     1       3.630  -2.389   3.399  0.00  0.00    +0.000 A 
ATOM     34  H   UNL     1       6.906  -2.337   3.121  0.00  0.00    +0.000 HD
ENDBRANCH  21  24
ENDBRANCH   2  20
TORSDOF 6
