REMARK  Name = 
REMARK  9 active torsions:
REMARK  status: ('A' for Active; 'I' for Inactive)
REMARK    1  A    between atoms: C_1  and  N_2
REMARK    2  A    between atoms: N_2  and  C_3
REMARK    3  A    between atoms: N_2  and  C_4
REMARK    4  A    between atoms: C_4  and  C_5
REMARK    5  A    between atoms: C_5  and  C_6
REMARK    6  A    between atoms: C_6  and  O_7
REMARK    7  A    between atoms: C_6  and  C_17
REMARK    8  A    between atoms: O_7  and  C_8
REMARK    9  A    between atoms: C_11  and  C_12
REMARK                            x       y       z     vdW  Elec       q    Type
REMARK                         _______ _______ _______ _____ _____    ______ ____
ROOT
ATOM      1  C   UNL     1       4.873  -1.835  -2.306  0.00  0.00    +0.000 C 
ENDROOT
BRANCH   1   2
ATOM      2  C   UNL     1       6.427  -1.952  -2.276  0.00  0.00    +0.000 C 
ATOM      3  C   UNL     1       6.956  -2.704  -1.046  0.00  0.00    +0.000 C 
ATOM      4  C   UNL     1       8.477  -2.722  -1.048  0.00  0.00    +0.000 C 
ATOM      5  O   UNL     1       8.989  -1.391  -1.106  0.00  0.00    +0.000 OA
ATOM      6  C   UNL     1       8.629  -0.729  -2.317  0.00  0.00    +0.000 C 
ATOM      7  C   UNL     1       7.119  -0.587  -2.419  0.00  0.00    +0.000 C 
ENDBRANCH   1   2
BRANCH   1   8
ATOM      8  C   UNL     1       4.353  -1.020  -1.100  0.00  0.00    +0.000 C 
BRANCH   8   9
ATOM      9  C   UNL     1       2.832  -0.908  -0.992  0.00  0.00    +0.000 C 
BRANCH   9  11
ATOM     10  C   UNL     1       2.546  -2.990   0.251  0.00  0.00    +0.000 C 
ATOM     11  N   UNL     1       2.134  -2.202  -0.912  0.00  0.00    +0.000 NA
ATOM     12  C   UNL     1       0.689  -1.972  -0.880  0.00  0.00    +0.000 C 
ENDBRANCH   9  11
ENDBRANCH   8   9
ENDBRANCH   1   8
BRANCH   1  13
ATOM     13  O   UNL     1       4.442  -1.216  -3.547  0.00  0.00    +0.000 OA
BRANCH  13  14
ATOM     14  C   UNL     1       4.703  -1.926  -4.692  0.00  0.00    +0.000 A 
ATOM     15  C   UNL     1       4.813  -3.311  -4.764  0.00  0.00    +0.000 A 
ATOM     16  C   UNL     1       5.235  -3.919  -5.942  0.00  0.00    +0.000 A 
ATOM     17  C   UNL     1       5.483  -3.125  -7.050  0.00  0.00    +0.000 A 
ATOM     18  N   UNL     1       5.316  -1.771  -7.056  0.00  0.00    +0.000 NA
ATOM     19  C   UNL     1       4.925  -1.209  -5.875  0.00  0.00    +0.000 A 
BRANCH  17  20
ATOM     20  C   UNL     1       5.975  -3.786  -8.303  0.00  0.00    +0.000 C 
ATOM     21  N   UNL     1       6.167  -2.967  -9.383  0.00  0.00    +0.000 N 
ATOM     22  O   UNL     1       6.191  -4.994  -8.372  0.00  0.00    +0.000 OA
ATOM     23  H   UNL     1       5.969  -1.978  -9.305  0.00  0.00    +0.000 HD
ATOM     24  H   UNL     1       6.477  -3.366 -10.257  0.00  0.00    +0.000 HD
ENDBRANCH  17  20
ENDBRANCH  13  14
ENDBRANCH   1  13
TORSDOF 7
