REMARK  Name = 
REMARK  10 active torsions:
REMARK  status: ('A' for Active; 'I' for Inactive)
REMARK    1  A    between atoms: C_1  and  C_2
REMARK    2  A    between atoms: C_2  and  N_3
REMARK    3  A    between atoms: N_3  and  C_4
REMARK    4  A    between atoms: N_3  and  C_25
REMARK    5  A    between atoms: C_4  and  C_5
REMARK    6  A    between atoms: C_8  and  C_9
REMARK    7  A    between atoms: C_9  and  N_10
REMARK    8  A    between atoms: C_11  and  C_13
REMARK    9  A    between atoms: C_25  and  C_26
REMARK   10  A    between atoms: C_25  and  C_27
REMARK                            x       y       z     vdW  Elec       q    Type
REMARK                         _______ _______ _______ _____ _____    ______ ____
ROOT
ATOM      1  C   UNL     1       0.868   0.512  -2.395  0.00  0.00    +0.000 A 
ATOM      2  C   UNL     1       0.181  -0.699  -2.273  0.00  0.00    +0.000 A 
ATOM      3  C   UNL     1      -1.210  -0.726  -2.329  0.00  0.00    +0.000 A 
ATOM      4  C   UNL     1      -1.898   0.480  -2.395  0.00  0.00    +0.000 A 
ATOM      5  N   UNL     1      -1.262   1.675  -2.472  0.00  0.00    +0.000 NA
ATOM      6  C   UNL     1       0.091   1.661  -2.483  0.00  0.00    +0.000 A 
ENDROOT
BRANCH   1   7
ATOM      7  C   UNL     1       2.374   0.557  -2.437  0.00  0.00    +0.000 C 
BRANCH   7   8
ATOM      8  N   UNL     1       3.028   0.559  -3.755  0.00  0.00    +0.000 NA
BRANCH   8  10
ATOM      9  C   UNL     1       3.199   3.088  -3.892  0.00  0.00    +0.000 C 
ATOM     10  C   UNL     1       2.834   1.767  -4.567  0.00  0.00    +0.000 C 
ENDBRANCH   8  10
BRANCH   8  11
ATOM     11  C   UNL     1       2.909  -0.709  -4.533  0.00  0.00    +0.000 C 
ATOM     12  C   UNL     1       1.554  -1.003  -5.210  0.00  0.00    +0.000 C 
BRANCH  11  13
ATOM     13  C   UNL     1       3.965  -0.819  -5.650  0.00  0.00    +0.000 A 
ATOM     14  C   UNL     1       5.192  -1.436  -5.431  0.00  0.00    +0.000 A 
ATOM     15  C   UNL     1       6.093  -1.524  -6.492  0.00  0.00    +0.000 A 
ATOM     16  C   UNL     1       5.754  -0.988  -7.735  0.00  0.00    +0.000 A 
ATOM     17  C   UNL     1       4.522  -0.386  -7.867  0.00  0.00    +0.000 A 
ATOM     18  N   UNL     1       3.632  -0.293  -6.864  0.00  0.00    +0.000 NA
ENDBRANCH  11  13
ENDBRANCH   8  11
ENDBRANCH   7   8
ENDBRANCH   1   7
BRANCH   4  19
ATOM     19  C   UNL     1      -3.403   0.497  -2.329  0.00  0.00    +0.000 C 
BRANCH  19  20
ATOM     20  N   UNL     1      -4.030   0.532  -3.628  0.00  0.00    +0.000 N 
ATOM     21  C   UNL     1      -4.569  -0.581  -4.213  0.00  0.00    +0.000 C 
ATOM     22  O   UNL     1      -4.486  -1.691  -3.698  0.00  0.00    +0.000 OA
ATOM     23  H   UNL     1      -3.920   1.393  -4.155  0.00  0.00    +0.000 HD
BRANCH  21  24
ATOM     24  C   UNL     1      -5.329  -0.368  -5.451  0.00  0.00    +0.000 A 
ATOM     25  C   UNL     1      -6.274  -1.308  -5.843  0.00  0.00    +0.000 A 
ATOM     26  S   UNL     1      -7.105  -0.891  -7.271  0.00  0.00    +0.000 S 
ATOM     27  C   UNL     1      -6.206   0.542  -7.440  0.00  0.00    +0.000 A 
ATOM     28  N   UNL     1      -6.411   1.375  -8.497  0.00  0.00    +0.000 NA
ATOM     29  C   UNL     1      -5.640   2.409  -8.517  0.00  0.00    +0.000 A 
ATOM     30  N   UNL     1      -4.686   2.690  -7.577  0.00  0.00    +0.000 N 
ATOM     31  C   UNL     1      -4.487   1.916  -6.462  0.00  0.00    +0.000 A 
ATOM     32  O   UNL     1      -3.706   2.257  -5.582  0.00  0.00    +0.000 OA
ATOM     33  C   UNL     1      -5.299   0.713  -6.407  0.00  0.00    +0.000 A 
ATOM     34  H   UNL     1      -4.138   3.531  -7.634  0.00  0.00    +0.000 HD
ENDBRANCH  21  24
ENDBRANCH  19  20
ENDBRANCH   4  19
TORSDOF 8
