REMARK  Name = 
REMARK  10 active torsions:
REMARK  status: ('A' for Active; 'I' for Inactive)
REMARK    1  A    between atoms: C_1  and  C_2
REMARK    2  A    between atoms: C_2  and  C_3
REMARK    3  A    between atoms: C_2  and  C_4
REMARK    4  A    between atoms: C_2  and  C_5
REMARK    5  A    between atoms: N_7  and  C_8
REMARK    6  A    between atoms: C_8  and  C_9
REMARK    7  A    between atoms: C_12  and  C_13
REMARK    8  A    between atoms: C_13  and  C_14
REMARK    9  A    between atoms: C_14  and  C_15
REMARK   10  A    between atoms: C_15  and  N_16
REMARK                            x       y       z     vdW  Elec       q    Type
REMARK                         _______ _______ _______ _____ _____    ______ ____
ROOT
ATOM      1  C   UNL     1       2.843   1.071  -1.068  0.00  0.00    +0.000 A 
ATOM      2  C   UNL     1       2.503   2.405  -0.902  0.00  0.00    +0.000 A 
ATOM      3  N   UNL     1       3.016   3.137  -1.941  0.00  0.00    +0.000 N 
ATOM      4  C   UNL     1       3.654   2.303  -2.828  0.00  0.00    +0.000 A 
ATOM      5  C   UNL     1       4.300   2.546  -4.046  0.00  0.00    +0.000 A 
ATOM      6  C   UNL     1       4.847   1.442  -4.690  0.00  0.00    +0.000 A 
ATOM      7  C   UNL     1       4.726   0.196  -4.101  0.00  0.00    +0.000 A 
ATOM      8  N   UNL     1       4.114  -0.065  -2.930  0.00  0.00    +0.000 NA
ATOM      9  C   UNL     1       3.575   1.010  -2.301  0.00  0.00    +0.000 A 
ENDROOT
BRANCH   1  11
ATOM     10  C   UNL     1       0.896  -0.124  -0.060  0.00  0.00    +0.000 C 
ATOM     11  C   UNL     1       2.439  -0.044  -0.110  0.00  0.00    +0.000 C 
ATOM     12  C   UNL     1       2.961   0.263   1.313  0.00  0.00    +0.000 C 
ATOM     13  C   UNL     1       2.974  -1.432  -0.508  0.00  0.00    +0.000 C 
ENDBRANCH   1  11
BRANCH   3  14
ATOM     14  C   UNL     1       2.885   4.588  -2.065  0.00  0.00    +0.000 C 
BRANCH  14  15
ATOM     15  C   UNL     1       4.053   5.271  -1.400  0.00  0.00    +0.000 A 
ATOM     16  C   UNL     1       5.206   5.565  -2.138  0.00  0.00    +0.000 A 
ATOM     17  C   UNL     1       6.364   6.011  -1.500  0.00  0.00    +0.000 A 
ATOM     18  C   UNL     1       6.380   6.205  -0.116  0.00  0.00    +0.000 A 
ATOM     19  C   UNL     1       5.210   5.966   0.616  0.00  0.00    +0.000 A 
ATOM     20  C   UNL     1       4.055   5.508  -0.020  0.00  0.00    +0.000 A 
BRANCH  18  21
ATOM     21  C   UNL     1       7.641   6.631   0.596  0.00  0.00    +0.000 C 
BRANCH  21  22
ATOM     22  C   UNL     1       8.214   7.968   0.122  0.00  0.00    +0.000 C 
BRANCH  22  23
ATOM     23  C   UNL     1       7.249   9.134   0.329  0.00  0.00    +0.000 C 
BRANCH  23  24
ATOM     24  N   UNL     1       7.873  10.369  -0.130  0.00  0.00    +0.000 NA
ATOM     25  H   UNL     1       8.732  10.538   0.393  0.00  0.00    +0.000 HD
ATOM     26  H   UNL     1       7.256  11.155   0.069  0.00  0.00    +0.000 HD
ENDBRANCH  23  24
ENDBRANCH  22  23
ENDBRANCH  21  22
ENDBRANCH  18  21
ENDBRANCH  14  15
ENDBRANCH   3  14
TORSDOF 7
