REMARK  Name = 
REMARK  5 active torsions:
REMARK  status: ('A' for Active; 'I' for Inactive)
REMARK    1  A    between atoms: C_2  and  C_5
REMARK    2  A    between atoms: C_7  and  C_8
REMARK    3  A    between atoms: C_12  and  C_13
REMARK    4  A    between atoms: C_13  and  N_14
REMARK    5  A    between atoms: C_19  and  C_20
REMARK                            x       y       z     vdW  Elec       q    Type
REMARK                         _______ _______ _______ _____ _____    ______ ____
ROOT
ATOM      1  C   UNL     1       4.145   0.668   4.752  0.00  0.00    +0.000 A 
ATOM      2  C   UNL     1       3.371   1.784   5.116  0.00  0.00    +0.000 A 
ATOM      3  C   UNL     1       3.702   2.578   6.218  0.00  0.00    +0.000 A 
ATOM      4  C   UNL     1       4.796   2.253   7.014  0.00  0.00    +0.000 A 
ATOM      5  C   UNL     1       5.573   1.132   6.708  0.00  0.00    +0.000 A 
ATOM      6  C   UNL     1       5.265   0.382   5.559  0.00  0.00    +0.000 A 
ENDROOT
BRANCH   1   9
ATOM      7  C   UNL     1       3.763  -2.349   2.461  0.00  0.00    +0.000 A 
ATOM      8  C   UNL     1       4.085  -1.561   3.572  0.00  0.00    +0.000 A 
ATOM      9  C   UNL     1       3.787  -0.188   3.592  0.00  0.00    +0.000 A 
ATOM     10  C   UNL     1       3.134   0.327   2.465  0.00  0.00    +0.000 A 
ATOM     11  C   UNL     1       2.819  -0.515   1.410  0.00  0.00    +0.000 A 
ATOM     12  N   UNL     1       3.121  -1.828   1.380  0.00  0.00    +0.000 NA
BRANCH   7  14
ATOM     13  F   UNL     1       4.832  -4.214   3.566  0.00  0.00    +0.000 F 
ATOM     14  C   UNL     1       4.154  -3.822   2.443  0.00  0.00    +0.000 C 
ATOM     15  F   UNL     1       4.973  -4.145   1.401  0.00  0.00    +0.000 F 
ATOM     16  F   UNL     1       3.084  -4.663   2.358  0.00  0.00    +0.000 F 
ENDBRANCH   7  14
ENDBRANCH   1   9
BRANCH   5  17
ATOM     17  C   UNL     1       6.686   0.689   7.629  0.00  0.00    +0.000 C 
BRANCH  17  18
ATOM     18  N   UNL     1       7.955   1.289   7.238  0.00  0.00    +0.000 N 
ATOM     19  C   UNL     1       9.011   0.931   8.097  0.00  0.00    +0.000 A 
ATOM     20  C   UNL     1      10.296   1.432   7.883  0.00  0.00    +0.000 A 
ATOM     21  N   UNL     1      11.365   1.118   8.657  0.00  0.00    +0.000 NA
ATOM     22  C   UNL     1      11.117   0.256   9.668  0.00  0.00    +0.000 A 
ATOM     23  C   UNL     1       9.857  -0.272   9.905  0.00  0.00    +0.000 A 
ATOM     24  N   UNL     1       8.795   0.065   9.110  0.00  0.00    +0.000 NA
ATOM     25  H   UNL     1       7.890   2.301   7.172  0.00  0.00    +0.000 HD
BRANCH  23  26
ATOM     26  C   UNL     1       9.645  -1.219  11.063  0.00  0.00    +0.000 C 
ATOM     27  F   UNL     1      10.783  -1.467  11.777  0.00  0.00    +0.000 F 
ATOM     28  F   UNL     1       8.744  -0.749  11.973  0.00  0.00    +0.000 F 
ATOM     29  F   UNL     1       9.184  -2.443  10.678  0.00  0.00    +0.000 F 
ENDBRANCH  23  26
ENDBRANCH  17  18
ENDBRANCH   5  17
TORSDOF 5
