REMARK  Name = 
REMARK  5 active torsions:
REMARK  status: ('A' for Active; 'I' for Inactive)
REMARK    1  A    between atoms: C_2  and  C_3
REMARK    2  A    between atoms: C_6  and  N_7
REMARK    3  A    between atoms: N_7  and  C_8
REMARK    4  A    between atoms: C_8  and  C_9
REMARK    5  A    between atoms: C_14  and  C_15
REMARK                            x       y       z     vdW  Elec       q    Type
REMARK                         _______ _______ _______ _____ _____    ______ ____
ROOT
ATOM      1  C   UNL     1      10.092  -0.740  -0.989  0.00  0.00    +0.000 A 
ATOM      2  C   UNL     1      10.577   0.566  -1.117  0.00  0.00    +0.000 A 
ATOM      3  C   UNL     1      11.881   0.784  -1.555  0.00  0.00    +0.000 A 
ATOM      4  C   UNL     1      12.704  -0.295  -1.873  0.00  0.00    +0.000 A 
ATOM      5  F   UNL     1      13.951  -0.011  -2.280  0.00  0.00    +0.000 F 
ATOM      6  C   UNL     1      12.265  -1.627  -1.772  0.00  0.00    +0.000 A 
ATOM      7  C   UNL     1      10.944  -1.817  -1.312  0.00  0.00    +0.000 A 
ENDROOT
BRANCH   6   8
ATOM      8  C   UNL     1      13.132  -2.778  -2.135  0.00  0.00    +0.000 A 
ATOM      9  C   UNL     1      13.022  -4.022  -1.479  0.00  0.00    +0.000 A 
ATOM     10  C   UNL     1      13.858  -5.101  -1.797  0.00  0.00    +0.000 A 
ATOM     11  C   UNL     1      14.837  -4.956  -2.772  0.00  0.00    +0.000 A 
ATOM     12  C   UNL     1      14.950  -3.747  -3.440  0.00  0.00    +0.000 A 
ATOM     13  F   UNL     1      15.890  -3.601  -4.383  0.00  0.00    +0.000 F 
ATOM     14  C   UNL     1      14.105  -2.679  -3.146  0.00  0.00    +0.000 A 
ENDBRANCH   6   8
BRANCH   1  15
ATOM     15  C   UNL     1       8.645  -1.002  -0.625  0.00  0.00    +0.000 C 
BRANCH  15  16
ATOM     16  N   UNL     1       8.553  -1.872   0.527  0.00  0.00    +0.000 N 
ATOM     17  H   UNL     1       9.105  -1.640   1.347  0.00  0.00    +0.000 HD
BRANCH  16  21
ATOM     18  C   UNL     1       5.399  -4.307   1.478  0.00  0.00    +0.000 A 
ATOM     19  C   UNL     1       6.443  -4.062   2.351  0.00  0.00    +0.000 A 
ATOM     20  N   UNL     1       7.475  -3.224   2.052  0.00  0.00    +0.000 NA
ATOM     21  C   UNL     1       7.462  -2.646   0.831  0.00  0.00    +0.000 A 
ATOM     22  C   UNL     1       6.402  -2.925  -0.042  0.00  0.00    +0.000 A 
ATOM     23  N   UNL     1       5.352  -3.737   0.254  0.00  0.00    +0.000 NA
BRANCH  18  25
ATOM     24  N   UNL     1       3.449  -5.875   2.168  0.00  0.00    +0.000 NA
ATOM     25  C   UNL     1       4.318  -5.171   1.839  0.00  0.00    +0.000 C 
ENDBRANCH  18  25
ENDBRANCH  16  21
ENDBRANCH  15  16
ENDBRANCH   1  15
TORSDOF 5
