REMARK  Name = 
REMARK  7 active torsions:
REMARK  status: ('A' for Active; 'I' for Inactive)
REMARK    1  A    between atoms: C_1  and  O_2
REMARK    2  A    between atoms: O_2  and  C_3
REMARK    3  A    between atoms: C_5  and  C_6
REMARK    4  A    between atoms: C_6  and  N_7
REMARK    5  A    between atoms: C_12  and  C_13
REMARK    6  A    between atoms: C_20  and  O_21
REMARK    7  A    between atoms: O_21  and  C_22
REMARK                            x       y       z     vdW  Elec       q    Type
REMARK                         _______ _______ _______ _____ _____    ______ ____
ROOT
ATOM      1  N   UNL     1       1.933   0.854  -4.832  0.00  0.00    +0.000 N 
ATOM      2  C   UNL     1       2.037   2.221  -4.686  0.00  0.00    +0.000 A 
ATOM      3  C   UNL     1       0.802   2.773  -4.940  0.00  0.00    +0.000 A 
ATOM      4  C   UNL     1      -0.087   1.711  -5.249  0.00  0.00    +0.000 A 
ATOM      5  C   UNL     1      -1.440   1.632  -5.625  0.00  0.00    +0.000 A 
ATOM      6  C   UNL     1      -1.973   0.365  -5.884  0.00  0.00    +0.000 A 
ATOM      7  C   UNL     1      -1.138  -0.743  -5.745  0.00  0.00    +0.000 A 
ATOM      8  N   UNL     1       0.178  -0.720  -5.390  0.00  0.00    +0.000 NA
ATOM      9  C   UNL     1       0.642   0.524  -5.166  0.00  0.00    +0.000 A 
ENDROOT
BRANCH   6  10
ATOM     10  C   UNL     1      -3.374   0.140  -6.320  0.00  0.00    +0.000 C 
ATOM     11  N   UNL     1      -4.194   1.224  -6.474  0.00  0.00    +0.000 N 
ATOM     12  O   UNL     1      -3.797  -0.987  -6.544  0.00  0.00    +0.000 OA
ATOM     13  H   UNL     1      -3.942   2.187  -6.320  0.00  0.00    +0.000 HD
ATOM     14  H   UNL     1      -5.141   1.040  -6.784  0.00  0.00    +0.000 HD
ENDBRANCH   6  10
BRANCH   1  15
ATOM     15  C   UNL     1       3.053  -0.079  -4.778  0.00  0.00    +0.000 C 
BRANCH  15  18
ATOM     16  C   UNL     1       2.689  -1.625  -1.309  0.00  0.00    +0.000 A 
ATOM     17  C   UNL     1       2.433  -1.273  -2.635  0.00  0.00    +0.000 A 
ATOM     18  C   UNL     1       3.365  -0.528  -3.371  0.00  0.00    +0.000 A 
ATOM     19  C   UNL     1       4.596  -0.202  -2.781  0.00  0.00    +0.000 A 
ATOM     20  C   UNL     1       4.865  -0.552  -1.457  0.00  0.00    +0.000 A 
ATOM     21  C   UNL     1       3.905  -1.259  -0.728  0.00  0.00    +0.000 A 
BRANCH  16  23
ATOM     22  C   UNL     1       0.554  -2.628  -1.037  0.00  0.00    +0.000 C 
ATOM     23  O   UNL     1       1.827  -2.303  -0.488  0.00  0.00    +0.000 OA
ENDBRANCH  16  23
BRANCH  20  24
ATOM     24  O   UNL     1       6.008  -0.242  -0.769  0.00  0.00    +0.000 OA
ATOM     25  C   UNL     1       6.999   0.502  -1.469  0.00  0.00    +0.000 C 
ENDBRANCH  20  24
ENDBRANCH  15  18
ENDBRANCH   1  15
TORSDOF 5
