REMARK  Name = 
REMARK  5 active torsions:
REMARK  status: ('A' for Active; 'I' for Inactive)
REMARK    1  A    between atoms: C_2  and  C_3
REMARK    2  A    between atoms: C_6  and  C_7
REMARK    3  A    between atoms: C_11  and  C_12
REMARK    4  A    between atoms: C_12  and  N_13
REMARK    5  A    between atoms: C_17  and  C_18
REMARK                            x       y       z     vdW  Elec       q    Type
REMARK                         _______ _______ _______ _____ _____    ______ ____
ROOT
ATOM      1  C   UNL     1      -6.681  -1.572   1.382  0.00  0.00    +0.000 C 
ATOM      2  C   UNL     1      -7.318  -2.835   0.811  0.00  0.00    +0.000 C 
ATOM      3  C   UNL     1      -8.187  -1.698   1.224  0.00  0.00    +0.000 C 
ENDROOT
BRANCH   1   4
ATOM      4  N   UNL     1      -6.078  -1.633   2.728  0.00  0.00    +0.000 N 
ATOM      5  C   UNL     1      -6.280  -0.667   3.726  0.00  0.00    +0.000 A 
ATOM      6  C   UNL     1      -7.491  -0.023   3.960  0.00  0.00    +0.000 A 
ATOM      7  C   UNL     1      -7.615   0.862   5.037  0.00  0.00    +0.000 A 
ATOM      8  C   UNL     1      -6.524   1.099   5.868  0.00  0.00    +0.000 A 
ATOM      9  C   UNL     1      -5.359   0.414   5.570  0.00  0.00    +0.000 A 
ATOM     10  N   UNL     1      -5.218  -0.455   4.532  0.00  0.00    +0.000 NA
ATOM     11  H   UNL     1      -5.078  -1.826   2.754  0.00  0.00    +0.000 HD
BRANCH   8  12
ATOM     12  C   UNL     1      -6.663   2.042   7.005  0.00  0.00    +0.000 C 
ATOM     13  N   UNL     1      -5.583   2.277   7.810  0.00  0.00    +0.000 N 
ATOM     14  O   UNL     1      -7.725   2.613   7.229  0.00  0.00    +0.000 OA
ATOM     15  H   UNL     1      -4.664   1.876   7.706  0.00  0.00    +0.000 HD
ATOM     16  H   UNL     1      -5.720   2.935   8.567  0.00  0.00    +0.000 HD
ENDBRANCH   8  12
ENDBRANCH   1   4
BRANCH   1  21
ATOM     17  C   UNL     1      -5.581   1.459  -0.733  0.00  0.00    +0.000 A 
ATOM     18  C   UNL     1      -4.483   0.928  -1.426  0.00  0.00    +0.000 A 
ATOM     19  C   UNL     1      -4.091  -0.396  -1.234  0.00  0.00    +0.000 A 
ATOM     20  C   UNL     1      -4.791  -1.210  -0.339  0.00  0.00    +0.000 A 
ATOM     21  C   UNL     1      -5.893  -0.721   0.387  0.00  0.00    +0.000 A 
ATOM     22  C   UNL     1      -6.254   0.616   0.170  0.00  0.00    +0.000 A 
BRANCH  17  26
ATOM     23  C   UNL     1      -6.808   5.483  -1.006  0.00  0.00    +0.000 A 
ATOM     24  C   UNL     1      -6.265   4.893  -2.142  0.00  0.00    +0.000 A 
ATOM     25  C   UNL     1      -5.871   3.560  -2.091  0.00  0.00    +0.000 A 
ATOM     26  C   UNL     1      -6.021   2.852  -0.899  0.00  0.00    +0.000 A 
ATOM     27  N   UNL     1      -6.584   3.419   0.201  0.00  0.00    +0.000 NA
ATOM     28  C   UNL     1      -6.961   4.712   0.130  0.00  0.00    +0.000 A 
BRANCH  23  30
ATOM     29  N   UNL     1      -7.492   7.969  -0.995  0.00  0.00    +0.000 NA
ATOM     30  C   UNL     1      -7.192   6.852  -1.001  0.00  0.00    +0.000 C 
ENDBRANCH  23  30
ENDBRANCH  17  26
ENDBRANCH   1  21
TORSDOF 5
