REMARK  Name = 
REMARK  5 active torsions:
REMARK  status: ('A' for Active; 'I' for Inactive)
REMARK    1  A    between atoms: N_1  and  C_2
REMARK    2  A    between atoms: C_2  and  C_3
REMARK    3  A    between atoms: C_3  and  C_4
REMARK    4  A    between atoms: N_10  and  C_11
REMARK    5  A    between atoms: C_11  and  C_12
REMARK                            x       y       z     vdW  Elec       q    Type
REMARK                         _______ _______ _______ _____ _____    ______ ____
ROOT
ATOM      1  C   UNL     1       4.529  -1.019  -1.198  0.00  0.00    +0.000 A 
ATOM      2  C   UNL     1       5.321  -2.158  -1.109  0.00  0.00    +0.000 A 
ATOM      3  N   UNL     1       6.674  -2.187  -1.093  0.00  0.00    +0.000 NA
ATOM      4  C   UNL     1       7.258  -0.967  -1.143  0.00  0.00    +0.000 A 
ATOM      5  C   UNL     1       8.614  -0.597  -1.107  0.00  0.00    +0.000 A 
ATOM      6  N   UNL     1       8.787   0.730  -1.138  0.00  0.00    +0.000 NA
ATOM      7  N   UNL     1       7.519   1.213  -1.194  0.00  0.00    +0.000 N 
ATOM      8  C   UNL     1       6.557   0.233  -1.221  0.00  0.00    +0.000 A 
ATOM      9  C   UNL     1       5.157   0.235  -1.294  0.00  0.00    +0.000 A 
ENDROOT
BRANCH   1  10
ATOM     10  C   UNL     1       3.019  -1.124  -1.178  0.00  0.00    +0.000 C 
BRANCH  10  11
ATOM     11  C   UNL     1       2.427  -1.293  -2.580  0.00  0.00    +0.000 C 
BRANCH  11  12
ATOM     12  N   UNL     1       0.965  -1.344  -2.531  0.00  0.00    +0.000 NA
ATOM     13  H   UNL     1       0.601  -1.457  -3.478  0.00  0.00    +0.000 HD
ATOM     14  H   UNL     1       0.600  -0.451  -2.199  0.00  0.00    +0.000 HD
ENDBRANCH  11  12
ENDBRANCH  10  11
ENDBRANCH   1  10
BRANCH   7  15
ATOM     15  C   UNL     1       7.316   2.654  -1.088  0.00  0.00    +0.000 C 
BRANCH  15  16
ATOM     16  C   UNL     1       7.272   3.300  -2.446  0.00  0.00    +0.000 A 
ATOM     17  C   UNL     1       8.380   3.261  -3.295  0.00  0.00    +0.000 A 
ATOM     18  C   UNL     1       8.258   3.757  -4.589  0.00  0.00    +0.000 A 
ATOM     19  C   UNL     1       7.051   4.315  -4.991  0.00  0.00    +0.000 A 
ATOM     20  C   UNL     1       6.023   4.382  -4.067  0.00  0.00    +0.000 A 
ATOM     21  N   UNL     1       6.103   3.886  -2.813  0.00  0.00    +0.000 NA
ENDBRANCH  15  16
ENDBRANCH   7  15
TORSDOF 5
