REMARK  Name = 
REMARK  7 active torsions:
REMARK  status: ('A' for Active; 'I' for Inactive)
REMARK    1  A    between atoms: C_2  and  C_4
REMARK    2  A    between atoms: C_7  and  C_8
REMARK    3  A    between atoms: C_8  and  C_9
REMARK    4  A    between atoms: C_14  and  C_15
REMARK    5  A    between atoms: C_19  and  O_20
REMARK    6  A    between atoms: O_20  and  C_21
REMARK    7  A    between atoms: C_21  and  C_22
REMARK                            x       y       z     vdW  Elec       q    Type
REMARK                         _______ _______ _______ _____ _____    ______ ____
ROOT
ATOM      1  C   UNL     1       4.650   4.906   2.262  0.00  0.00    +0.000 A 
ATOM      2  C   UNL     1       3.437   5.542   2.529  0.00  0.00    +0.000 A 
ATOM      3  C   UNL     1       2.876   5.460   3.796  0.00  0.00    +0.000 A 
ATOM      4  F   UNL     1       1.685   6.028   4.026  0.00  0.00    +0.000 F 
ATOM      5  C   UNL     1       3.515   4.780   4.832  0.00  0.00    +0.000 A 
ATOM      6  C   UNL     1       4.757   4.166   4.629  0.00  0.00    +0.000 A 
ATOM      7  C   UNL     1       5.298   4.247   3.336  0.00  0.00    +0.000 A 
ENDROOT
BRANCH   6   8
ATOM      8  C   UNL     1       5.467   3.457   5.713  0.00  0.00    +0.000 A 
ATOM      9  C   UNL     1       4.783   2.697   6.665  0.00  0.00    +0.000 A 
ATOM     10  N   UNL     1       5.355   2.075   7.722  0.00  0.00    +0.000 NA
ATOM     11  C   UNL     1       6.695   2.203   7.840  0.00  0.00    +0.000 A 
ATOM     12  C   UNL     1       7.497   2.884   6.934  0.00  0.00    +0.000 A 
ATOM     13  C   UNL     1       6.867   3.522   5.865  0.00  0.00    +0.000 A 
BRANCH  12  14
ATOM     14  O   UNL     1       8.830   2.928   7.220  0.00  0.00    +0.000 OA
BRANCH  14  15
ATOM     15  C   UNL     1       9.723   3.003   6.102  0.00  0.00    +0.000 C 
BRANCH  15  16
ATOM     16  C   UNL     1      11.182   3.005   6.560  0.00  0.00    +0.000 C 
ATOM     17  F   UNL     1      11.316   2.976   7.903  0.00  0.00    +0.000 F 
ATOM     18  F   UNL     1      11.848   1.938   6.060  0.00  0.00    +0.000 F 
ATOM     19  F   UNL     1      11.818   4.115   6.113  0.00  0.00    +0.000 F 
ENDBRANCH  15  16
ENDBRANCH  14  15
ENDBRANCH  12  14
ENDBRANCH   6   8
BRANCH   1  20
ATOM     20  C   UNL     1       5.276   4.835   0.876  0.00  0.00    +0.000 C 
ATOM     21  C   UNL     1       5.060   3.457   0.238  0.00  0.00    +0.000 C 
ATOM     22  C   UNL     1       4.502   4.668  -0.414  0.00  0.00    +0.000 C 
ATOM     23  F   UNL     1       3.130   4.834  -0.398  0.00  0.00    +0.000 F 
BRANCH  20  27
ATOM     24  C   UNL     1       8.909   7.049   0.711  0.00  0.00    +0.000 A 
ATOM     25  C   UNL     1       8.887   5.691   0.936  0.00  0.00    +0.000 A 
ATOM     26  N   UNL     1       7.755   4.947   0.946  0.00  0.00    +0.000 NA
ATOM     27  C   UNL     1       6.586   5.601   0.732  0.00  0.00    +0.000 A 
ATOM     28  N   UNL     1       6.525   6.927   0.492  0.00  0.00    +0.000 NA
ATOM     29  C   UNL     1       7.680   7.629   0.505  0.00  0.00    +0.000 A 
BRANCH  24  31
ATOM     30  N   UNL     1      11.310   7.242   0.420  0.00  0.00    +0.000 N 
ATOM     31  C   UNL     1      10.127   7.861   0.734  0.00  0.00    +0.000 C 
ATOM     32  O   UNL     1      10.090   9.058   1.001  0.00  0.00    +0.000 OA
ATOM     33  H   UNL     1      12.117   7.845   0.350  0.00  0.00    +0.000 HD
ATOM     34  H   UNL     1      11.361   6.352  -0.054  0.00  0.00    +0.000 HD
ENDBRANCH  24  31
ENDBRANCH  20  27
ENDBRANCH   1  20
TORSDOF 7
