REMARK  Name = 
REMARK  7 active torsions:
REMARK  status: ('A' for Active; 'I' for Inactive)
REMARK    1  A    between atoms: C_1  and  C_2
REMARK    2  A    between atoms: C_2  and  C_3
REMARK    3  A    between atoms: C_2  and  C_18
REMARK    4  A    between atoms: C_3  and  N_4
REMARK    5  A    between atoms: N_4  and  C_5
REMARK    6  A    between atoms: C_8  and  C_9
REMARK    7  A    between atoms: C_12  and  C_13
REMARK                            x       y       z     vdW  Elec       q    Type
REMARK                         _______ _______ _______ _____ _____    ______ ____
ROOT
ATOM      1  C   UNL     1       2.864   0.328   3.813  0.00  0.00    +0.000 A 
ATOM      2  C   UNL     1       3.810  -0.580   4.278  0.00  0.00    +0.000 A 
ATOM      3  C   UNL     1       4.192  -0.597   5.624  0.00  0.00    +0.000 A 
ATOM      4  C   UNL     1       3.617   0.275   6.564  0.00  0.00    +0.000 A 
ATOM      5  C   UNL     1       2.668   1.208   6.125  0.00  0.00    +0.000 A 
ATOM      6  C   UNL     1       2.287   1.190   4.756  0.00  0.00    +0.000 A 
ENDROOT
BRANCH   4   7
ATOM      7  C   UNL     1       4.113   0.089   7.956  0.00  0.00    +0.000 C 
ATOM      8  N   UNL     1       3.232   0.178   8.991  0.00  0.00    +0.000 N 
ATOM      9  O   UNL     1       5.281  -0.216   8.168  0.00  0.00    +0.000 OA
ATOM     10  H   UNL     1       2.314   0.594   8.928  0.00  0.00    +0.000 HD
ATOM     11  H   UNL     1       3.631   0.106   9.920  0.00  0.00    +0.000 HD
ENDBRANCH   4   7
BRANCH   5  12
ATOM     12  C   UNL     1       2.028   2.275   6.967  0.00  0.00    +0.000 C 
ATOM     13  F   UNL     1       2.506   2.412   8.230  0.00  0.00    +0.000 F 
ATOM     14  F   UNL     1       2.147   3.513   6.406  0.00  0.00    +0.000 F 
ATOM     15  F   UNL     1       0.688   2.069   7.113  0.00  0.00    +0.000 F 
ENDBRANCH   5  12
BRANCH   1  16
ATOM     16  N   UNL     1       2.374   0.351   2.504  0.00  0.00    +0.000 N 
ATOM     17  H   UNL     1       2.159   1.293   2.188  0.00  0.00    +0.000 HD
BRANCH  16  18
ATOM     18  C   UNL     1       3.020  -0.456   1.480  0.00  0.00    +0.000 C 
BRANCH  18  20
ATOM     19  C   UNL     1       0.887  -0.430   0.004  0.00  0.00    +0.000 C 
ATOM     20  C   UNL     1       2.363  -0.214   0.152  0.00  0.00    +0.000 C 
BRANCH  20  21
ATOM     21  C   UNL     1       3.196  -0.532  -1.020  0.00  0.00    +0.000 A 
ATOM     22  C   UNL     1       3.958   0.465  -1.632  0.00  0.00    +0.000 A 
ATOM     23  C   UNL     1       4.778   0.150  -2.718  0.00  0.00    +0.000 A 
ATOM     24  C   UNL     1       4.842  -1.161  -3.190  0.00  0.00    +0.000 A 
ATOM     25  C   UNL     1       4.083  -2.160  -2.581  0.00  0.00    +0.000 A 
ATOM     26  C   UNL     1       3.256  -1.845  -1.504  0.00  0.00    +0.000 A 
ENDBRANCH  20  21
ENDBRANCH  18  20
ENDBRANCH  16  18
ENDBRANCH   1  16
TORSDOF 6
