REMARK  Name = 
REMARK  5 active torsions:
REMARK  status: ('A' for Active; 'I' for Inactive)
REMARK    1  A    between atoms: C_2  and  C_4
REMARK    2  A    between atoms: C_7  and  O_8
REMARK    3  A    between atoms: O_8  and  C_9
REMARK    4  A    between atoms: C_9  and  C_10
REMARK    5  A    between atoms: C_15  and  C_16
REMARK                            x       y       z     vdW  Elec       q    Type
REMARK                         _______ _______ _______ _____ _____    ______ ____
ROOT
ATOM      1  C   UNL     1       4.856   6.007  -0.210  0.00  0.00    +0.000 C 
ENDROOT
BRANCH   1   2
ATOM      2  C   UNL     1       5.724   7.181  -0.603  0.00  0.00    +0.000 A 
ATOM      3  C   UNL     1       5.175   8.468  -0.598  0.00  0.00    +0.000 A 
ATOM      4  C   UNL     1       5.980   9.563  -0.875  0.00  0.00    +0.000 A 
ATOM      5  F   UNL     1       5.445  10.791  -0.859  0.00  0.00    +0.000 F 
ATOM      6  C   UNL     1       7.335   9.411  -1.147  0.00  0.00    +0.000 A 
ATOM      7  C   UNL     1       7.934   8.139  -1.135  0.00  0.00    +0.000 A 
ATOM      8  C   UNL     1       7.099   7.033  -0.863  0.00  0.00    +0.000 A 
BRANCH   7   9
ATOM      9  C   UNL     1       9.386   7.972  -1.359  0.00  0.00    +0.000 A 
ATOM     10  C   UNL     1       9.924   6.857  -2.017  0.00  0.00    +0.000 A 
ATOM     11  C   UNL     1      11.304   6.725  -2.185  0.00  0.00    +0.000 A 
ATOM     12  C   UNL     1      12.125   7.724  -1.697  0.00  0.00    +0.000 A 
ATOM     13  N   UNL     1      11.665   8.819  -1.062  0.00  0.00    +0.000 NA
ATOM     14  C   UNL     1      10.320   8.911  -0.908  0.00  0.00    +0.000 A 
ENDBRANCH   7   9
ENDBRANCH   1   2
BRANCH   1  15
ATOM     15  O   UNL     1       5.222   4.817  -0.911  0.00  0.00    +0.000 OA
BRANCH  15  19
ATOM     16  C   UNL     1       3.126   1.278  -0.177  0.00  0.00    +0.000 A 
ATOM     17  C   UNL     1       2.763   2.426   0.531  0.00  0.00    +0.000 A 
ATOM     18  C   UNL     1       3.443   3.629   0.312  0.00  0.00    +0.000 A 
ATOM     19  C   UNL     1       4.490   3.696  -0.611  0.00  0.00    +0.000 A 
ATOM     20  C   UNL     1       4.859   2.541  -1.306  0.00  0.00    +0.000 A 
ATOM     21  C   UNL     1       4.185   1.335  -1.088  0.00  0.00    +0.000 A 
BRANCH  16  23
ATOM     22  N   UNL     1       1.121   0.041   0.438  0.00  0.00    +0.000 N 
ATOM     23  C   UNL     1       2.423  -0.016   0.025  0.00  0.00    +0.000 C 
ATOM     24  O   UNL     1       2.969  -1.087  -0.198  0.00  0.00    +0.000 OA
ATOM     25  H   UNL     1       0.625  -0.841   0.468  0.00  0.00    +0.000 HD
ATOM     26  H   UNL     1       0.569   0.884   0.378  0.00  0.00    +0.000 HD
ENDBRANCH  16  23
ENDBRANCH  15  19
ENDBRANCH   1  15
TORSDOF 5
