REMARK  Name = 
REMARK  8 active torsions:
REMARK  status: ('A' for Active; 'I' for Inactive)
REMARK    1  A    between atoms: N_1  and  C_2
REMARK    2  A    between atoms: C_2  and  C_3
REMARK    3  A    between atoms: C_3  and  N_4
REMARK    4  A    between atoms: C_3  and  C_17
REMARK    5  A    between atoms: C_5  and  C_7
REMARK    6  A    between atoms: C_20  and  C_21
REMARK    7  A    between atoms: C_21  and  N_22
REMARK    8  A    between atoms: C_23  and  C_25
REMARK                            x       y       z     vdW  Elec       q    Type
REMARK                         _______ _______ _______ _____ _____    ______ ____
ROOT
ATOM      1  C   UNL     1      13.774  -5.171  -3.134  0.00  0.00    +0.000 C 
ENDROOT
BRANCH   1   2
ATOM      2  C   UNL     1      13.756  -3.702  -2.690  0.00  0.00    +0.000 A 
ATOM      3  C   UNL     1      13.024  -3.331  -1.553  0.00  0.00    +0.000 A 
ATOM      4  C   UNL     1      12.920  -1.989  -1.165  0.00  0.00    +0.000 A 
ATOM      5  C   UNL     1      13.547  -0.976  -1.901  0.00  0.00    +0.000 A 
ATOM      6  C   UNL     1      14.327  -1.343  -3.005  0.00  0.00    +0.000 A 
ATOM      7  C   UNL     1      14.427  -2.687  -3.397  0.00  0.00    +0.000 A 
BRANCH   5   8
ATOM      8  C   UNL     1      13.355   0.473  -1.529  0.00  0.00    +0.000 C 
BRANCH   8   9
ATOM      9  N   UNL     1      14.357   0.953  -0.605  0.00  0.00    +0.000 N 
ATOM     10  C   UNL     1      14.363   2.281  -0.220  0.00  0.00    +0.000 C 
ATOM     11  O   UNL     1      13.545   3.096  -0.645  0.00  0.00    +0.000 OA
ATOM     12  H   UNL     1      14.860   0.276  -0.046  0.00  0.00    +0.000 HD
BRANCH  10  13
ATOM     13  C   UNL     1      15.467   2.656   0.796  0.00  0.00    +0.000 C 
ATOM     14  C   UNL     1      16.866   2.445   0.245  0.00  0.00    +0.000 C 
ATOM     15  C   UNL     1      17.101   3.687  -0.599  0.00  0.00    +0.000 C 
ATOM     16  C   UNL     1      16.243   4.766   0.046  0.00  0.00    +0.000 C 
ATOM     17  N   UNL     1      15.457   4.106   1.095  0.00  0.00    +0.000 NA
ATOM     18  H   UNL     1      14.492   4.444   1.054  0.00  0.00    +0.000 HD
ENDBRANCH  10  13
ENDBRANCH   8   9
ENDBRANCH   5   8
ENDBRANCH   1   2
BRANCH   1  19
ATOM     19  N   UNL     1      15.113  -5.712  -2.974  0.00  0.00    +0.000 N 
ATOM     20  C   UNL     1      15.438  -7.028  -3.162  0.00  0.00    +0.000 C 
ATOM     21  O   UNL     1      14.603  -7.905  -3.365  0.00  0.00    +0.000 OA
ATOM     22  H   UNL     1      15.854  -5.027  -2.894  0.00  0.00    +0.000 HD
BRANCH  20  23
ATOM     23  C   UNL     1      16.868  -7.339  -3.056  0.00  0.00    +0.000 A 
ATOM     24  C   UNL     1      17.298  -8.604  -2.681  0.00  0.00    +0.000 A 
ATOM     25  S   UNL     1      18.995  -8.718  -2.512  0.00  0.00    +0.000 S 
ATOM     26  C   UNL     1      19.209  -7.094  -2.980  0.00  0.00    +0.000 A 
ATOM     27  N   UNL     1      20.444  -6.524  -3.015  0.00  0.00    +0.000 NA
ATOM     28  C   UNL     1      20.449  -5.286  -3.392  0.00  0.00    +0.000 A 
ATOM     29  N   UNL     1      19.337  -4.578  -3.761  0.00  0.00    +0.000 N 
ATOM     30  C   UNL     1      18.077  -5.121  -3.774  0.00  0.00    +0.000 A 
ATOM     31  O   UNL     1      17.114  -4.467  -4.147  0.00  0.00    +0.000 OA
ATOM     32  C   UNL     1      18.009  -6.487  -3.292  0.00  0.00    +0.000 A 
ATOM     33  H   UNL     1      19.409  -3.617  -4.065  0.00  0.00    +0.000 HD
ENDBRANCH  20  23
ENDBRANCH   1  19
BRANCH   1  34
ATOM     34  C   UNL     1      13.230  -5.358  -4.584  0.00  0.00    +0.000 C 
BRANCH  34  35
ATOM     35  N   UNL     1      11.864  -4.854  -4.785  0.00  0.00    +0.000 NA
ATOM     36  H   UNL     1      11.680  -4.789  -5.785  0.00  0.00    +0.000 HD
ATOM     37  H   UNL     1      11.792  -3.906  -4.416  0.00  0.00    +0.000 HD
ENDBRANCH  34  35
ENDBRANCH   1  34
TORSDOF 8
