REMARK  Name = 
REMARK  7 active torsions:
REMARK  status: ('A' for Active; 'I' for Inactive)
REMARK    1  A    between atoms: C_2  and  C_20
REMARK    2  A    between atoms: N_3  and  C_4
REMARK    3  A    between atoms: C_4  and  C_5
REMARK    4  A    between atoms: C_8  and  C_9
REMARK    5  A    between atoms: C_9  and  O_10
REMARK    6  A    between atoms: O_10  and  C_11
REMARK    7  A    between atoms: C_11  and  C_12
REMARK                            x       y       z     vdW  Elec       q    Type
REMARK                         _______ _______ _______ _____ _____    ______ ____
ROOT
ATOM      1  C   UNL     1       2.321  -2.064  -1.526  0.00  0.00    +0.000 C 
ENDROOT
BRANCH   1   2
ATOM      2  C   UNL     1       3.248  -3.054  -2.173  0.00  0.00    +0.000 A 
ATOM      3  C   UNL     1       2.975  -4.412  -2.125  0.00  0.00    +0.000 A 
ATOM      4  C   UNL     1       3.837  -5.288  -2.770  0.00  0.00    +0.000 A 
ATOM      5  C   UNL     1       4.941  -4.771  -3.431  0.00  0.00    +0.000 A 
ATOM      6  N   UNL     1       5.201  -3.443  -3.428  0.00  0.00    +0.000 NA
ATOM      7  N   UNL     1       4.353  -2.578  -2.790  0.00  0.00    +0.000 NA
BRANCH   5   8
ATOM      8  C   UNL     1       5.903  -5.669  -4.165  0.00  0.00    +0.000 C 
BRANCH   8   9
ATOM      9  O   UNL     1       5.214  -6.389  -5.191  0.00  0.00    +0.000 OA
BRANCH   9  10
ATOM     10  C   UNL     1       6.093  -7.244  -5.919  0.00  0.00    +0.000 C 
BRANCH  10  11
ATOM     11  C   UNL     1       5.324  -7.948  -7.010  0.00  0.00    +0.000 A 
ATOM     12  C   UNL     1       4.674  -7.200  -7.999  0.00  0.00    +0.000 A 
ATOM     13  C   UNL     1       4.008  -7.833  -9.052  0.00  0.00    +0.000 A 
ATOM     14  C   UNL     1       3.991  -9.225  -9.128  0.00  0.00    +0.000 A 
ATOM     15  C   UNL     1       4.624  -9.983  -8.145  0.00  0.00    +0.000 A 
ATOM     16  C   UNL     1       5.284  -9.349  -7.087  0.00  0.00    +0.000 A 
ENDBRANCH  10  11
ENDBRANCH   9  10
ENDBRANCH   8   9
ENDBRANCH   5   8
ENDBRANCH   1   2
BRANCH   1  19
ATOM     17  O   UNL     1       1.257  -3.504   0.616  0.00  0.00    +0.000 OA
ATOM     18  C   UNL     1       2.041  -2.585   0.854  0.00  0.00    +0.000 C 
ATOM     19  N   UNL     1       2.647  -1.865  -0.140  0.00  0.00    +0.000 N 
ATOM     20  H   UNL     1       3.292  -1.115   0.079  0.00  0.00    +0.000 HD
BRANCH  18  21
ATOM     21  C   UNL     1       2.416  -2.227   2.213  0.00  0.00    +0.000 A 
ATOM     22  C   UNL     1       2.440  -3.163   3.236  0.00  0.00    +0.000 A 
ATOM     23  S   UNL     1       2.921  -2.495   4.737  0.00  0.00    +0.000 S 
ATOM     24  C   UNL     1       3.081  -0.941   4.059  0.00  0.00    +0.000 A 
ATOM     25  N   UNL     1       3.465   0.125   4.814  0.00  0.00    +0.000 NA
ATOM     26  C   UNL     1       3.557   1.232   4.155  0.00  0.00    +0.000 A 
ATOM     27  N   UNL     1       3.302   1.376   2.818  0.00  0.00    +0.000 N 
ATOM     28  C   UNL     1       2.864   0.350   2.029  0.00  0.00    +0.000 A 
ATOM     29  O   UNL     1       2.601   0.535   0.849  0.00  0.00    +0.000 OA
ATOM     30  C   UNL     1       2.780  -0.935   2.713  0.00  0.00    +0.000 A 
ATOM     31  H   UNL     1       3.381   2.272   2.360  0.00  0.00    +0.000 HD
ENDBRANCH  18  21
ENDBRANCH   1  19
TORSDOF 7
