REMARK  Name = 
REMARK  3 active torsions:
REMARK  status: ('A' for Active; 'I' for Inactive)
REMARK    1  A    between atoms: C_2  and  C_4
REMARK    2  A    between atoms: N_8  and  C_9
REMARK    3  A    between atoms: C_9  and  C_10
REMARK                            x       y       z     vdW  Elec       q    Type
REMARK                         _______ _______ _______ _____ _____    ______ ____
ROOT
ATOM      1  C   UNL     1       3.365   0.535   1.184  0.00  0.00    +0.000 A 
ATOM      2  C   UNL     1       3.695   1.778   0.653  0.00  0.00    +0.000 A 
ATOM      3  C   UNL     1       4.335   2.710   1.467  0.00  0.00    +0.000 A 
ATOM      4  C   UNL     1       4.591   2.406   2.803  0.00  0.00    +0.000 A 
ATOM      5  N   UNL     1       5.183   3.399   3.583  0.00  0.00    +0.000 N 
ATOM      6  N   UNL     1       4.263   1.213   3.332  0.00  0.00    +0.000 NA
ATOM      7  C   UNL     1       3.663   0.303   2.519  0.00  0.00    +0.000 A 
ATOM      8  H   UNL     1       6.143   3.547   3.287  0.00  0.00    +0.000 HD
ENDROOT
BRANCH   1  10
ATOM      9  N   UNL     1       2.836  -0.485  -0.959  0.00  0.00    +0.000 N 
ATOM     10  C   UNL     1       2.694  -0.523   0.401  0.00  0.00    +0.000 C 
ATOM     11  O   UNL     1       2.060  -1.417   0.945  0.00  0.00    +0.000 OA
ATOM     12  H   UNL     1       2.450  -1.267  -1.473  0.00  0.00    +0.000 HD
ATOM     13  H   UNL     1       3.528   0.084  -1.424  0.00  0.00    +0.000 HD
ENDBRANCH   1  10
BRANCH   5  14
ATOM     14  C   UNL     1       5.094   3.208   5.030  0.00  0.00    +0.000 C 
BRANCH  14  15
ATOM     15  C   UNL     1       5.319   4.544   5.723  0.00  0.00    +0.000 A 
ATOM     16  C   UNL     1       4.532   5.645   5.377  0.00  0.00    +0.000 A 
ATOM     17  C   UNL     1       4.739   6.858   6.024  0.00  0.00    +0.000 A 
ATOM     18  C   UNL     1       5.715   6.942   7.004  0.00  0.00    +0.000 A 
ATOM     19  C   UNL     1       6.451   5.805   7.296  0.00  0.00    +0.000 A 
ATOM     20  N   UNL     1       6.283   4.615   6.677  0.00  0.00    +0.000 NA
ENDBRANCH  14  15
ENDBRANCH   5  14
TORSDOF 3
