REMARK  Name = 
REMARK  9 active torsions:
REMARK  status: ('A' for Active; 'I' for Inactive)
REMARK    1  A    between atoms: C_2  and  C_22
REMARK    2  A    between atoms: N_3  and  CA_4
REMARK    3  A    between atoms: CA_4  and  C_5
REMARK    4  A    between atoms: CA_4  and  C_7
REMARK    5  A    between atoms: C_5  and  O_6
REMARK    6  A    between atoms: C_10  and  C_11
REMARK    7  A    between atoms: C_11  and  N_12
REMARK    8  A    between atoms: N_12  and  C_13
REMARK    9  A    between atoms: C_13  and  C_14
REMARK                            x       y       z     vdW  Elec       q    Type
REMARK                         _______ _______ _______ _____ _____    ______ ____
ROOT
ATOM      1  CA  UNL     1       2.269   1.617   1.911  0.00  0.00    +0.000 C 
ENDROOT
BRANCH   1   2
ATOM      2  C   UNL     1       3.266   2.384   2.771  0.00  0.00    +0.000 A 
ATOM      3  C   UNL     1       3.176   3.771   2.855  0.00  0.00    +0.000 A 
ATOM      4  C   UNL     1       4.022   4.449   3.726  0.00  0.00    +0.000 A 
ATOM      5  C   UNL     1       4.946   3.739   4.497  0.00  0.00    +0.000 A 
ATOM      6  C   UNL     1       4.977   2.358   4.337  0.00  0.00    +0.000 A 
ATOM      7  N   UNL     1       4.155   1.664   3.512  0.00  0.00    +0.000 NA
BRANCH   5   8
ATOM      8  C   UNL     1       5.862   4.444   5.463  0.00  0.00    +0.000 C 
BRANCH   8   9
ATOM      9  N   UNL     1       5.094   5.158   6.481  0.00  0.00    +0.000 NA
ATOM     10  H   UNL     1       4.513   4.490   6.993  0.00  0.00    +0.000 HD
BRANCH   9  11
ATOM     11  C   UNL     1       5.969   5.822   7.452  0.00  0.00    +0.000 C 
BRANCH  11  12
ATOM     12  C   UNL     1       5.166   6.532   8.517  0.00  0.00    +0.000 A 
ATOM     13  C   UNL     1       4.742   7.844   8.327  0.00  0.00    +0.000 A 
ATOM     14  N   UNL     1       3.990   8.516   9.233  0.00  0.00    +0.000 NA
ATOM     15  C   UNL     1       3.656   7.811  10.336  0.00  0.00    +0.000 A 
ATOM     16  C   UNL     1       4.060   6.501  10.530  0.00  0.00    +0.000 A 
ATOM     17  N   UNL     1       4.820   5.832   9.632  0.00  0.00    +0.000 NA
ENDBRANCH  11  12
ENDBRANCH   9  11
ENDBRANCH   8   9
ENDBRANCH   5   8
ENDBRANCH   1   2
BRANCH   1  20
ATOM     18  O   UNL     1       2.676   1.018  -0.844  0.00  0.00    +0.000 OA
ATOM     19  C   UNL     1       3.011   0.194   0.004  0.00  0.00    +0.000 C 
ATOM     20  N   UNL     1       2.877   0.423   1.343  0.00  0.00    +0.000 N 
ATOM     21  H   UNL     1       3.166  -0.280   2.012  0.00  0.00    +0.000 HD
BRANCH  19  22
ATOM     22  C   UNL     1       3.627  -1.086  -0.366  0.00  0.00    +0.000 A 
ATOM     23  C   UNL     1       4.283  -1.225  -1.581  0.00  0.00    +0.000 A 
ATOM     24  S   UNL     1       4.967  -2.772  -1.811  0.00  0.00    +0.000 S 
ATOM     25  C   UNL     1       4.376  -3.322  -0.312  0.00  0.00    +0.000 A 
ATOM     26  N   UNL     1       4.613  -4.593   0.117  0.00  0.00    +0.000 NA
ATOM     27  C   UNL     1       4.080  -4.877   1.258  0.00  0.00    +0.000 A 
ATOM     28  N   UNL     1       3.326  -4.011   2.006  0.00  0.00    +0.000 N 
ATOM     29  C   UNL     1       3.079  -2.715   1.625  0.00  0.00    +0.000 A 
ATOM     30  O   UNL     1       2.435  -1.959   2.341  0.00  0.00    +0.000 OA
ATOM     31  C   UNL     1       3.665  -2.339   0.352  0.00  0.00    +0.000 A 
ATOM     32  H   UNL     1       2.937  -4.290   2.895  0.00  0.00    +0.000 HD
ENDBRANCH  19  22
ENDBRANCH   1  20
BRANCH   1  33
ATOM     33  C   UNL     1       1.032   1.244   2.762  0.00  0.00    +0.000 C 
BRANCH  33  34
ATOM     34  O   UNL     1       1.323   0.411   3.890  0.00  0.00    +0.000 OA
ATOM     35  H   UNL     1       2.294   0.338   3.969  0.00  0.00    +0.000 HD
ENDBRANCH  33  34
ENDBRANCH   1  33
TORSDOF 9
