REMARK  Name = 
REMARK  8 active torsions:
REMARK  status: ('A' for Active; 'I' for Inactive)
REMARK    1  A    between atoms: C_1  and  C_2
REMARK    2  A    between atoms: C_9  and  C_10
REMARK    3  A    between atoms: C_10  and  C_11
REMARK    4  A    between atoms: C_10  and  C_12
REMARK    5  A    between atoms: C_10  and  C_13
REMARK    6  A    between atoms: C_13  and  N_14
REMARK    7  A    between atoms: N_14  and  C_15
REMARK    8  A    between atoms: C_18  and  C_19
REMARK                            x       y       z     vdW  Elec       q    Type
REMARK                         _______ _______ _______ _____ _____    ______ ____
ROOT
ATOM      1  C   UNL     1       1.897  -5.761  -4.355  0.00  0.00    +0.000 C 
ATOM      2  C   UNL     1       1.892  -7.126  -3.629  0.00  0.00    +0.000 C 
ATOM      3  C   UNL     1       0.922  -5.799  -5.553  0.00  0.00    +0.000 C 
ENDROOT
BRANCH   1  12
ATOM      4  C   UNL     1      -1.067  -2.482   1.469  0.00  0.00    +0.000 C 
ATOM      5  C   UNL     1      -2.360  -2.630   0.665  0.00  0.00    +0.000 C 
ATOM      6  C   UNL     1      -3.114  -3.921   1.020  0.00  0.00    +0.000 C 
ATOM      7  C   UNL     1      -2.407  -5.163   0.484  0.00  0.00    +0.000 C 
ATOM      8  C   UNL     1      -2.145  -5.055  -1.016  0.00  0.00    +0.000 C 
ATOM      9  N   UNL     1      -1.471  -3.797  -1.324  0.00  0.00    +0.000 N 
ATOM     10  C   UNL     1      -0.228  -3.749  -1.920  0.00  0.00    +0.000 A 
ATOM     11  C   UNL     1       0.175  -4.743  -2.797  0.00  0.00    +0.000 A 
ATOM     12  C   UNL     1       1.436  -4.676  -3.369  0.00  0.00    +0.000 A 
ATOM     13  N   UNL     1       2.272  -3.661  -3.076  0.00  0.00    +0.000 NA
ATOM     14  C   UNL     1       1.796  -2.725  -2.240  0.00  0.00    +0.000 A 
ATOM     15  N   UNL     1       0.589  -2.716  -1.660  0.00  0.00    +0.000 NA
ATOM     16  C   UNL     1      -2.092  -2.564  -0.845  0.00  0.00    +0.000 C 
ENDBRANCH   1  12
BRANCH   1  17
ATOM     17  C   UNL     1       3.335  -5.443  -4.855  0.00  0.00    +0.000 C 
BRANCH  17  18
ATOM     18  N   UNL     1       3.802  -6.371  -5.891  0.00  0.00    +0.000 N 
ATOM     19  H   UNL     1       3.438  -7.317  -5.845  0.00  0.00    +0.000 HD
BRANCH  18  20
ATOM     20  C   UNL     1       5.113  -6.307  -6.359  0.00  0.00    +0.000 A 
ATOM     21  C   UNL     1       5.995  -5.266  -6.051  0.00  0.00    +0.000 A 
ATOM     22  C   UNL     1       7.260  -5.187  -6.644  0.00  0.00    +0.000 A 
ATOM     23  C   UNL     1       7.662  -6.145  -7.575  0.00  0.00    +0.000 A 
ATOM     24  C   UNL     1       6.789  -7.182  -7.911  0.00  0.00    +0.000 A 
ATOM     25  C   UNL     1       5.526  -7.253  -7.308  0.00  0.00    +0.000 A 
BRANCH  23  26
ATOM     26  C   UNL     1       8.995  -5.990  -8.214  0.00  0.00    +0.000 C 
ATOM     27  N   UNL     1       9.587  -7.115  -8.714  0.00  0.00    +0.000 N 
ATOM     28  O   UNL     1       9.561  -4.906  -8.267  0.00  0.00    +0.000 OA
ATOM     29  H   UNL     1       9.270  -8.046  -8.488  0.00  0.00    +0.000 HD
ATOM     30  H   UNL     1      10.535  -7.006  -9.051  0.00  0.00    +0.000 HD
ENDBRANCH  23  26
ENDBRANCH  18  20
ENDBRANCH  17  18
ENDBRANCH   1  17
TORSDOF 5
