REMARK  Name = 
REMARK  7 active torsions:
REMARK  status: ('A' for Active; 'I' for Inactive)
REMARK    1  A    between atoms: C_2  and  C_4
REMARK    2  A    between atoms: C_7  and  O_8
REMARK    3  A    between atoms: O_8  and  C_9
REMARK    4  A    between atoms: C_9  and  C_10
REMARK    5  A    between atoms: C_14  and  C_15
REMARK    6  A    between atoms: C_19  and  C_20
REMARK    7  A    between atoms: C_20  and  O_21
REMARK                            x       y       z     vdW  Elec       q    Type
REMARK                         _______ _______ _______ _____ _____    ______ ____
ROOT
ATOM      1  C   UNL     1      11.130   4.013  -0.703  0.00  0.00    +0.000 A 
ATOM      2  C   UNL     1      10.714   3.369   0.463  0.00  0.00    +0.000 A 
ATOM      3  C   UNL     1       9.913   4.049   1.379  0.00  0.00    +0.000 A 
ATOM      4  C   UNL     1       9.557   5.385   1.153  0.00  0.00    +0.000 A 
ATOM      5  C   UNL     1       9.937   6.049  -0.026  0.00  0.00    +0.000 A 
ATOM      6  C   UNL     1      10.674   5.314  -0.968  0.00  0.00    +0.000 A 
ENDROOT
BRANCH   5   7
ATOM      7  C   UNL     1       9.760   7.565  -0.153  0.00  0.00    +0.000 C 
ATOM      8  C   UNL     1      10.249   8.202  -1.474  0.00  0.00    +0.000 C 
ATOM      9  C   UNL     1       9.263   8.013  -2.625  0.00  0.00    +0.000 C 
ATOM     10  C   UNL     1       7.897   8.590  -2.269  0.00  0.00    +0.000 C 
ATOM     11  C   UNL     1       7.329   8.011  -0.965  0.00  0.00    +0.000 C 
ATOM     12  C   UNL     1       8.357   8.116   0.177  0.00  0.00    +0.000 C 
BRANCH  11  13
ATOM     13  C   UNL     1       6.778   6.596  -1.174  0.00  0.00    +0.000 C 
BRANCH  13  14
ATOM     14  O   UNL     1       6.210   6.097   0.030  0.00  0.00    +0.000 OA
ATOM     15  H   UNL     1       6.934   5.683   0.531  0.00  0.00    +0.000 HD
ENDBRANCH  13  14
ENDBRANCH  11  13
ENDBRANCH   5   7
BRANCH   1  16
ATOM     16  C   UNL     1      12.242   3.445  -1.562  0.00  0.00    +0.000 C 
BRANCH  16  17
ATOM     17  O   UNL     1      11.823   2.406  -2.445  0.00  0.00    +0.000 OA
BRANCH  17  21
ATOM     18  C   UNL     1      14.976   1.196  -4.835  0.00  0.00    +0.000 A 
ATOM     19  C   UNL     1      13.712   0.622  -5.011  0.00  0.00    +0.000 A 
ATOM     20  C   UNL     1      12.652   1.031  -4.194  0.00  0.00    +0.000 A 
ATOM     21  C   UNL     1      12.893   1.997  -3.232  0.00  0.00    +0.000 A 
ATOM     22  N   UNL     1      14.108   2.552  -3.034  0.00  0.00    +0.000 NA
ATOM     23  C   UNL     1      15.123   2.138  -3.827  0.00  0.00    +0.000 A 
BRANCH  18  25
ATOM     24  N   UNL     1      15.945   0.421  -6.919  0.00  0.00    +0.000 N 
ATOM     25  C   UNL     1      16.161   0.857  -5.645  0.00  0.00    +0.000 C 
ATOM     26  O   UNL     1      17.300   1.010  -5.211  0.00  0.00    +0.000 OA
ATOM     27  H   UNL     1      16.770   0.319  -7.501  0.00  0.00    +0.000 HD
ATOM     28  H   UNL     1      15.057   0.533  -7.390  0.00  0.00    +0.000 HD
ENDBRANCH  18  25
ENDBRANCH  17  21
ENDBRANCH  16  17
ENDBRANCH   1  16
TORSDOF 7
