REMARK  Name = 
REMARK  4 active torsions:
REMARK  status: ('A' for Active; 'I' for Inactive)
REMARK    1  A    between atoms: N_1  and  C_2
REMARK    2  A    between atoms: C_2  and  C_3
REMARK    3  A    between atoms: C_6  and  C_7
REMARK    4  A    between atoms: C_7  and  N_8
REMARK                            x       y       z     vdW  Elec       q    Type
REMARK                         _______ _______ _______ _____ _____    ______ ____
ROOT
ATOM      1  C   UNL     1       4.950   3.709  -3.706  0.00  0.00    +0.000 C 
ENDROOT
BRANCH   1   2
ATOM      2  N   UNL     1       6.384   3.681  -3.996  0.00  0.00    +0.000 N 
ATOM      3  C   UNL     1       7.266   4.655  -3.607  0.00  0.00    +0.000 A 
ATOM      4  C   UNL     1       8.540   4.230  -3.891  0.00  0.00    +0.000 A 
ATOM      5  C   UNL     1       8.437   2.953  -4.489  0.00  0.00    +0.000 A 
ATOM      6  N   UNL     1       9.428   2.107  -4.861  0.00  0.00    +0.000 NA
ATOM      7  C   UNL     1       8.998   0.923  -5.363  0.00  0.00    +0.000 A 
ATOM      8  C   UNL     1       7.670   0.586  -5.593  0.00  0.00    +0.000 A 
ATOM      9 CL   UNL     1       7.258  -0.982  -6.166  0.00  0.00    +0.000 Cl
ATOM     10  C   UNL     1       6.664   1.497  -5.294  0.00  0.00    +0.000 A 
ATOM     11  C   UNL     1       7.073   2.674  -4.643  0.00  0.00    +0.000 A 
ENDBRANCH   1   2
BRANCH   1  15
ATOM     12  C   UNL     1       2.829   0.848  -1.108  0.00  0.00    +0.000 C 
ATOM     13  C   UNL     1       4.356   0.766  -1.170  0.00  0.00    +0.000 C 
ATOM     14  C   UNL     1       4.911   1.538  -2.357  0.00  0.00    +0.000 C 
ATOM     15  C   UNL     1       4.523   3.023  -2.376  0.00  0.00    +0.000 C 
ATOM     16  C   UNL     1       3.003   3.199  -2.146  0.00  0.00    +0.000 C 
ATOM     17  C   UNL     1       2.438   2.334  -1.009  0.00  0.00    +0.000 C 
BRANCH  12  18
ATOM     18  C   UNL     1       2.110   0.151  -2.288  0.00  0.00    +0.000 C 
BRANCH  18  19
ATOM     19  N   UNL     1       2.403  -1.271  -2.412  0.00  0.00    +0.000 NA
ATOM     20  H   UNL     1       3.258  -1.413  -2.947  0.00  0.00    +0.000 HD
ATOM     21  H   UNL     1       2.569  -1.685  -1.494  0.00  0.00    +0.000 HD
ENDBRANCH  18  19
ENDBRANCH  12  18
ENDBRANCH   1  15
TORSDOF 4
