REMARK  Name = 
REMARK  6 active torsions:
REMARK  status: ('A' for Active; 'I' for Inactive)
REMARK    1  A    between atoms: C_1  and  C_2
REMARK    2  A    between atoms: C_2  and  C_3
REMARK    3  A    between atoms: C_3  and  N_4
REMARK    4  A    between atoms: C_3  and  C_15
REMARK    5  A    between atoms: N_4  and  C_5
REMARK    6  A    between atoms: C_8  and  C_9
REMARK                            x       y       z     vdW  Elec       q    Type
REMARK                         _______ _______ _______ _____ _____    ______ ____
ROOT
ATOM      1  C   UNL     1       2.384  -3.164   1.968  0.00  0.00    +0.000 A 
ATOM      2  N   UNL     1       1.910  -2.634   3.120  0.00  0.00    +0.000 NA
ATOM      3  C   UNL     1       1.524  -3.483   4.109  0.00  0.00    +0.000 A 
ATOM      4  C   UNL     1       1.558  -4.865   4.000  0.00  0.00    +0.000 A 
ATOM      5  C   UNL     1       2.070  -5.417   2.830  0.00  0.00    +0.000 A 
ATOM      6  C   UNL     1       2.479  -4.561   1.807  0.00  0.00    +0.000 A 
ATOM      7 CL   UNL     1       3.141  -5.259   0.369  0.00  0.00    +0.000 Cl
ENDROOT
BRANCH   4   8
ATOM      8  C   UNL     1       1.062  -5.685   5.124  0.00  0.00    +0.000 C 
ATOM      9  N   UNL     1       0.560  -6.921   4.824  0.00  0.00    +0.000 N 
ATOM     10  O   UNL     1       1.062  -5.259   6.270  0.00  0.00    +0.000 OA
ATOM     11  H   UNL     1       0.309  -7.199   3.886  0.00  0.00    +0.000 HD
ATOM     12  H   UNL     1       0.122  -7.423   5.588  0.00  0.00    +0.000 HD
ENDBRANCH   4   8
BRANCH   1  13
ATOM     13  N   UNL     1       2.651  -2.317   0.874  0.00  0.00    +0.000 N 
ATOM     14  H   UNL     1       3.336  -2.770   0.274  0.00  0.00    +0.000 HD
BRANCH  13  15
ATOM     15  C   UNL     1       3.050  -0.942   1.200  0.00  0.00    +0.000 C 
BRANCH  15  16
ATOM     16  C   UNL     1       4.572  -0.892   1.326  0.00  0.00    +0.000 A 
ATOM     17  C   UNL     1       5.160  -0.595   2.565  0.00  0.00    +0.000 A 
ATOM     18  C   UNL     1       6.549  -0.556   2.701  0.00  0.00    +0.000 A 
ATOM     19  C   UNL     1       7.367  -0.829   1.607  0.00  0.00    +0.000 A 
ATOM     20  C   UNL     1       6.801  -1.140   0.374  0.00  0.00    +0.000 A 
ATOM     21  C   UNL     1       5.413  -1.170   0.234  0.00  0.00    +0.000 A 
ENDBRANCH  15  16
BRANCH  15  23
ATOM     22  C   UNL     1       1.061   0.145   0.001  0.00  0.00    +0.000 C 
ATOM     23  C   UNL     1       2.577   0.023   0.092  0.00  0.00    +0.000 C 
ENDBRANCH  15  23
ENDBRANCH  13  15
ENDBRANCH   1  13
TORSDOF 5
