REMARK  Name = 
REMARK  4 active torsions:
REMARK  status: ('A' for Active; 'I' for Inactive)
REMARK    1  A    between atoms: C_2  and  C_4
REMARK    2  A    between atoms: N_8  and  C_9
REMARK    3  A    between atoms: C_9  and  C_10
REMARK    4  A    between atoms: C_15  and  C_16
REMARK                            x       y       z     vdW  Elec       q    Type
REMARK                         _______ _______ _______ _____ _____    ______ ____
ROOT
ATOM      1  C   UNL     1       5.563  -4.844   3.044  0.00  0.00    +0.000 C 
ENDROOT
BRANCH   1   6
ATOM      2  C   UNL     1       7.765  -1.108   0.276  0.00  0.00    +0.000 A 
ATOM      3  C   UNL     1       7.283  -2.340  -0.154  0.00  0.00    +0.000 A 
ATOM      4  C   UNL     1       6.575  -3.146   0.741  0.00  0.00    +0.000 A 
ATOM      5  C   UNL     1       6.373  -2.714   2.048  0.00  0.00    +0.000 A 
ATOM      6  N   UNL     1       5.631  -3.401   2.978  0.00  0.00    +0.000 N 
ATOM      7  N   UNL     1       6.845  -1.527   2.475  0.00  0.00    +0.000 NA
ATOM      8  C   UNL     1       7.535  -0.755   1.595  0.00  0.00    +0.000 A 
ATOM      9  H   UNL     1       5.680  -2.918   3.870  0.00  0.00    +0.000 HD
BRANCH   2  11
ATOM     10  N   UNL     1       8.277  -0.259  -1.944  0.00  0.00    +0.000 N 
ATOM     11  C   UNL     1       8.511  -0.180  -0.598  0.00  0.00    +0.000 C 
ATOM     12  O   UNL     1       9.281   0.653  -0.139  0.00  0.00    +0.000 OA
ATOM     13  H   UNL     1       8.714   0.454  -2.516  0.00  0.00    +0.000 HD
ATOM     14  H   UNL     1       7.478  -0.739  -2.331  0.00  0.00    +0.000 HD
ENDBRANCH   2  11
ENDBRANCH   1   6
BRANCH   1  15
ATOM     15  C   UNL     1       6.667  -5.510   3.840  0.00  0.00    +0.000 A 
ATOM     16  C   UNL     1       7.696  -4.824   4.490  0.00  0.00    +0.000 A 
ATOM     17  C   UNL     1       8.651  -5.534   5.210  0.00  0.00    +0.000 A 
ATOM     18  F   UNL     1       9.628  -4.867   5.839  0.00  0.00    +0.000 F 
ATOM     19  C   UNL     1       8.615  -6.924   5.295  0.00  0.00    +0.000 A 
ATOM     20  C   UNL     1       7.598  -7.657   4.666  0.00  0.00    +0.000 A 
ATOM     21  C   UNL     1       6.634  -6.919   3.948  0.00  0.00    +0.000 A 
BRANCH  20  22
ATOM     22  C   UNL     1       7.530  -9.137   4.757  0.00  0.00    +0.000 A 
ATOM     23  C   UNL     1       7.960  -9.827   5.908  0.00  0.00    +0.000 A 
ATOM     24  C   UNL     1       7.890 -11.224   6.000  0.00  0.00    +0.000 A 
ATOM     25  C   UNL     1       7.375 -11.965   4.943  0.00  0.00    +0.000 A 
ATOM     26  C   UNL     1       6.945 -11.303   3.803  0.00  0.00    +0.000 A 
ATOM     27  F   UNL     1       6.442 -12.009   2.782  0.00  0.00    +0.000 F 
ATOM     28  C   UNL     1       7.024  -9.915   3.700  0.00  0.00    +0.000 A 
ENDBRANCH  20  22
ENDBRANCH   1  15
TORSDOF 4
