REMARK  Name = 
REMARK  10 active torsions:
REMARK  status: ('A' for Active; 'I' for Inactive)
REMARK    1  A    between atoms: C_1  and  C_2
REMARK    2  A    between atoms: C_7  and  C_8
REMARK    3  A    between atoms: N_10  and  C_11
REMARK    4  A    between atoms: C_11  and  C_12
REMARK    5  A    between atoms: C_15  and  C_16
REMARK    6  A    between atoms: C_16  and  N_17
REMARK    7  A    between atoms: N_17  and  C_18
REMARK    8  A    between atoms: C_18  and  C_19
REMARK    9  A    between atoms: C_18  and  C_20
REMARK   10  A    between atoms: C_18  and  C_21
REMARK                            x       y       z     vdW  Elec       q    Type
REMARK                         _______ _______ _______ _____ _____    ______ ____
ROOT
ATOM      1  C   UNL     1       8.059   4.475  -0.025  0.00  0.00    +0.000 A 
ATOM      2  C   UNL     1       8.909   5.590  -0.011  0.00  0.00    +0.000 A 
ATOM      3  C   UNL     1       8.386   6.887  -0.014  0.00  0.00    +0.000 A 
ATOM      4  C   UNL     1       7.001   7.091  -0.008  0.00  0.00    +0.000 A 
ATOM      5  C   UNL     1       6.151   5.977  -0.027  0.00  0.00    +0.000 A 
ATOM      6  C   UNL     1       6.673   4.682  -0.025  0.00  0.00    +0.000 A 
ENDROOT
BRANCH   1   7
ATOM      7  C   UNL     1       8.627   3.079  -0.041  0.00  0.00    +0.000 C 
BRANCH   7  10
ATOM      8  C   UNL     1       9.960   2.621   1.988  0.00  0.00    +0.000 C 
ATOM      9  O   UNL     1      10.946   3.190   1.525  0.00  0.00    +0.000 OA
ATOM     10  N   UNL     1       8.786   2.534   1.286  0.00  0.00    +0.000 N 
ATOM     11  H   UNL     1       7.978   2.075   1.692  0.00  0.00    +0.000 HD
BRANCH   8  18
ATOM     12  C   UNL     1       6.704  -0.991   6.836  0.00  0.00    +0.000 C 
ATOM     13  C   UNL     1       7.588  -0.208   5.912  0.00  0.00    +0.000 A 
ATOM     14  N   UNL     1       8.803   0.103   6.241  0.00  0.00    +0.000 NA
ATOM     15  C   UNL     1       9.482   0.818   5.304  0.00  0.00    +0.000 A 
ATOM     16  S   UNL     1      11.089   1.303   5.583  0.00  0.00    +0.000 S 
ATOM     17  C   UNL     1      11.175   2.076   4.067  0.00  0.00    +0.000 A 
ATOM     18  C   UNL     1      10.005   1.991   3.321  0.00  0.00    +0.000 A 
ATOM     19  C   UNL     1       9.019   1.235   4.067  0.00  0.00    +0.000 A 
ATOM     20  C   UNL     1       7.659   0.853   3.738  0.00  0.00    +0.000 A 
ATOM     21  O   UNL     1       7.099   1.122   2.678  0.00  0.00    +0.000 OA
ATOM     22  N   UNL     1       7.007   0.140   4.715  0.00  0.00    +0.000 N 
ATOM     23  H   UNL     1       6.060  -0.133   4.503  0.00  0.00    +0.000 HD
ENDBRANCH   8  18
ENDBRANCH   7  10
ENDBRANCH   1   7
BRANCH   4  24
ATOM     24  C   UNL     1       6.416   8.484   0.016  0.00  0.00    +0.000 C 
BRANCH  24  25
ATOM     25  N   UNL     1       6.161   8.970  -1.337  0.00  0.00    +0.000 NA
ATOM     26  H   UNL     1       5.582   8.283  -1.821  0.00  0.00    +0.000 HD
BRANCH  25  27
ATOM     27  C   UNL     1       5.484  10.292  -1.435  0.00  0.00    +0.000 C 
ATOM     28  C   UNL     1       4.098  10.227  -0.749  0.00  0.00    +0.000 C 
ATOM     29  C   UNL     1       6.331  11.399  -0.777  0.00  0.00    +0.000 C 
BRANCH  27  30
ATOM     30  C   UNL     1       5.284  10.693  -2.921  0.00  0.00    +0.000 A 
ATOM     31  C   UNL     1       6.175  10.273  -3.912  0.00  0.00    +0.000 A 
ATOM     32  C   UNL     1       5.951  10.645  -5.237  0.00  0.00    +0.000 A 
ATOM     33  C   UNL     1       4.859  11.442  -5.547  0.00  0.00    +0.000 A 
ATOM     34  C   UNL     1       4.035  11.843  -4.512  0.00  0.00    +0.000 A 
ATOM     35  N   UNL     1       4.224  11.493  -3.222  0.00  0.00    +0.000 NA
ENDBRANCH  27  30
ENDBRANCH  25  27
ENDBRANCH  24  25
ENDBRANCH   4  24
TORSDOF 7
