REMARK  Name = 
REMARK  8 active torsions:
REMARK  status: ('A' for Active; 'I' for Inactive)
REMARK    1  A    between atoms: C_1  and  C_2
REMARK    2  A    between atoms: C_2  and  N_3
REMARK    3  A    between atoms: C_2  and  C_25
REMARK    4  A    between atoms: N_3  and  C_4
REMARK    5  A    between atoms: C_4  and  C_5
REMARK    6  A    between atoms: C_8  and  C_9
REMARK    7  A    between atoms: C_9  and  N_10
REMARK    8  A    between atoms: C_11  and  C_13
REMARK                            x       y       z     vdW  Elec       q    Type
REMARK                         _______ _______ _______ _____ _____    ______ ____
ROOT
ATOM      1  C   UNL     1      -0.961   1.058   1.034  0.00  0.00    +0.000 A 
ATOM      2  C   UNL     1      -1.710   0.318   0.115  0.00  0.00    +0.000 A 
ATOM      3  C   UNL     1      -3.085   0.508   0.028  0.00  0.00    +0.000 A 
ATOM      4  C   UNL     1      -3.690   1.419   0.888  0.00  0.00    +0.000 A 
ATOM      5  N   UNL     1      -2.984   2.160   1.782  0.00  0.00    +0.000 NA
ATOM      6  C   UNL     1      -1.648   1.963   1.833  0.00  0.00    +0.000 A 
ENDROOT
BRANCH   1   7
ATOM      7  C   UNL     1       0.513   0.821   1.212  0.00  0.00    +0.000 C 
BRANCH   7   8
ATOM      8  N   UNL     1       1.252   1.023  -0.033  0.00  0.00    +0.000 NA
ATOM      9  H   UNL     1       1.115   1.984  -0.346  0.00  0.00    +0.000 HD
BRANCH   8  11
ATOM     10  C   UNL     1       3.015  -0.649   0.561  0.00  0.00    +0.000 C 
ATOM     11  C   UNL     1       2.700   0.782   0.097  0.00  0.00    +0.000 C 
BRANCH  11  12
ATOM     12  C   UNL     1       3.435   1.015  -1.223  0.00  0.00    +0.000 A 
ATOM     13  C   UNL     1       4.770   1.456  -1.217  0.00  0.00    +0.000 A 
ATOM     14  C   UNL     1       5.508   1.521  -2.403  0.00  0.00    +0.000 A 
ATOM     15  C   UNL     1       4.921   1.162  -3.613  0.00  0.00    +0.000 A 
ATOM     16  C   UNL     1       3.588   0.760  -3.643  0.00  0.00    +0.000 A 
ATOM     17  C   UNL     1       2.852   0.683  -2.458  0.00  0.00    +0.000 A 
ENDBRANCH  11  12
ENDBRANCH   8  11
ENDBRANCH   7   8
ENDBRANCH   1   7
BRANCH   4  18
ATOM     18  C   UNL     1      -5.182   1.627   0.841  0.00  0.00    +0.000 C 
BRANCH  18  19
ATOM     19  N   UNL     1      -5.555   2.688  -0.061  0.00  0.00    +0.000 N 
ATOM     20  C   UNL     1      -5.992   2.461  -1.337  0.00  0.00    +0.000 C 
ATOM     21  O   UNL     1      -6.100   1.332  -1.805  0.00  0.00    +0.000 OA
ATOM     22  H   UNL     1      -5.237   3.614   0.206  0.00  0.00    +0.000 HD
BRANCH  20  23
ATOM     23  C   UNL     1      -6.418   3.650  -2.094  0.00  0.00    +0.000 A 
ATOM     24  C   UNL     1      -7.314   3.515  -3.141  0.00  0.00    +0.000 A 
ATOM     25  S   UNL     1      -7.758   5.000  -3.857  0.00  0.00    +0.000 S 
ATOM     26  C   UNL     1      -6.723   5.870  -2.824  0.00  0.00    +0.000 A 
ATOM     27  N   UNL     1      -6.609   7.222  -2.924  0.00  0.00    +0.000 NA
ATOM     28  C   UNL     1      -5.768   7.750  -2.099  0.00  0.00    +0.000 A 
ATOM     29  N   UNL     1      -5.036   7.049  -1.175  0.00  0.00    +0.000 N 
ATOM     30  C   UNL     1      -5.152   5.690  -1.009  0.00  0.00    +0.000 A 
ATOM     31  O   UNL     1      -4.541   5.107  -0.121  0.00  0.00    +0.000 OA
ATOM     32  C   UNL     1      -6.065   5.042  -1.931  0.00  0.00    +0.000 A 
ATOM     33  H   UNL     1      -4.406   7.521  -0.543  0.00  0.00    +0.000 HD
ENDBRANCH  20  23
ENDBRANCH  18  19
ENDBRANCH   4  18
TORSDOF 7
