REMARK  Name = 
REMARK  10 active torsions:
REMARK  status: ('A' for Active; 'I' for Inactive)
REMARK    1  A    between atoms: C_1  and  C_2
REMARK    2  A    between atoms: C_5  and  N_6
REMARK    3  A    between atoms: N_6  and  C_7
REMARK    4  A    between atoms: C_9  and  N_10
REMARK    5  A    between atoms: N_10  and  C_11
REMARK    6  A    between atoms: C_11  and  C_12
REMARK    7  A    between atoms: C_12  and  C_13
REMARK    8  A    between atoms: C_12  and  C_14
REMARK    9  A    between atoms: C_17  and  C_18
REMARK   10  A    between atoms: C_24  and  C_25
REMARK                            x       y       z     vdW  Elec       q    Type
REMARK                         _______ _______ _______ _____ _____    ______ ____
ROOT
ATOM      1  C   UNL     1      -2.697   5.651  -5.614  0.00  0.00    +0.000 A 
ATOM      2  C   UNL     1      -2.759   4.679  -4.600  0.00  0.00    +0.000 A 
ATOM      3  C   UNL     1      -1.846   3.614  -4.526  0.00  0.00    +0.000 A 
ATOM      4  C   UNL     1      -0.913   3.496  -5.555  0.00  0.00    +0.000 A 
ATOM      5  C   UNL     1      -0.897   4.375  -6.645  0.00  0.00    +0.000 A 
ATOM      6  C   UNL     1      -1.778   5.467  -6.651  0.00  0.00    +0.000 A 
ENDROOT
BRANCH   5   7
ATOM      7  C   UNL     1       0.029   4.109  -7.805  0.00  0.00    +0.000 C 
ATOM      8  F   UNL     1       0.803   3.006  -7.651  0.00  0.00    +0.000 F 
ATOM      9  F   UNL     1      -0.656   3.926  -8.969  0.00  0.00    +0.000 F 
ATOM     10  F   UNL     1       0.891   5.139  -8.039  0.00  0.00    +0.000 F 
ENDBRANCH   5   7
BRANCH   1  11
ATOM     11  N   UNL     1      -3.602   6.734  -5.597  0.00  0.00    +0.000 N 
ATOM     12  H   UNL     1      -4.114   6.816  -4.720  0.00  0.00    +0.000 HD
BRANCH  11  17
ATOM     13  C   UNL     1      -1.787   8.916  -4.118  0.00  0.00    +0.000 C 
ATOM     14  C   UNL     1      -2.732   9.135  -5.286  0.00  0.00    +0.000 C 
ATOM     15  N   UNL     1      -4.106   9.474  -4.818  0.00  0.00    +0.000 NA
ATOM     16  C   UNL     1      -4.637   8.940  -6.091  0.00  0.00    +0.000 C 
ATOM     17  C   UNL     1      -3.379   8.032  -6.198  0.00  0.00    +0.000 C 
ATOM     18  H   UNL     1      -4.256  10.469  -4.664  0.00  0.00    +0.000 HD
ENDBRANCH  11  17
ENDBRANCH   1  11
BRANCH   3  19
ATOM     19  N   UNL     1      -1.850   2.771  -3.421  0.00  0.00    +0.000 N 
ATOM     20  H   UNL     1      -2.605   2.916  -2.758  0.00  0.00    +0.000 HD
BRANCH  19  21
ATOM     21  C   UNL     1      -1.334   1.405  -3.486  0.00  0.00    +0.000 C 
BRANCH  21  22
ATOM     22  C   UNL     1       0.154   1.321  -3.073  0.00  0.00    +0.000 C 
ATOM     23  C   UNL     1       0.692  -0.088  -3.350  0.00  0.00    +0.000 C 
BRANCH  22  24
ATOM     24  C   UNL     1       0.416   1.750  -1.643  0.00  0.00    +0.000 A 
ATOM     25  C   UNL     1       1.169   2.900  -1.376  0.00  0.00    +0.000 A 
ATOM     26  C   UNL     1       1.405   3.295  -0.063  0.00  0.00    +0.000 A 
ATOM     27  C   UNL     1       0.862   2.532   0.961  0.00  0.00    +0.000 A 
ATOM     28  N   UNL     1       0.117   1.408   0.753  0.00  0.00    +0.000 NA
ATOM     29  C   UNL     1      -0.086   1.051  -0.538  0.00  0.00    +0.000 A 
BRANCH  27  30
ATOM     30  C   UNL     1       1.090   2.950   2.383  0.00  0.00    +0.000 C 
ATOM     31  N   UNL     1       0.531   2.147   3.339  0.00  0.00    +0.000 N 
ATOM     32  O   UNL     1       1.733   3.949   2.682  0.00  0.00    +0.000 OA
ATOM     33  H   UNL     1      -0.008   1.334   3.061  0.00  0.00    +0.000 HD
ATOM     34  H   UNL     1       0.640   2.386   4.313  0.00  0.00    +0.000 HD
ENDBRANCH  27  30
ENDBRANCH  22  24
ENDBRANCH  21  22
ENDBRANCH  19  21
ENDBRANCH   3  19
TORSDOF 8
