REMARK  Name = 
REMARK  6 active torsions:
REMARK  status: ('A' for Active; 'I' for Inactive)
REMARK    1  A    between atoms: C_1  and  C_2
REMARK    2  A    between atoms: C_2  and  C_3
REMARK    3  A    between atoms: C_7  and  C_8
REMARK    4  A    between atoms: C_8  and  C_9
REMARK    5  A    between atoms: C_9  and  N_10
REMARK    6  A    between atoms: C_14  and  C_15
REMARK                            x       y       z     vdW  Elec       q    Type
REMARK                         _______ _______ _______ _____ _____    ______ ____
ROOT
ATOM      1  C   UNL     1       3.290   3.733  -4.146  0.00  0.00    +0.000 C 
ENDROOT
BRANCH   1   2
ATOM      2  N   UNL     1       3.789   5.017  -4.656  0.00  0.00    +0.000 N 
ATOM      3  C   UNL     1       2.749   5.925  -4.938  0.00  0.00    +0.000 A 
ATOM      4  C   UNL     1       3.061   7.189  -5.429  0.00  0.00    +0.000 A 
ATOM      5  C   UNL     1       2.032   8.100  -5.695  0.00  0.00    +0.000 A 
ATOM      6  C   UNL     1       0.706   7.734  -5.464  0.00  0.00    +0.000 A 
ATOM      7  C   UNL     1       0.487   6.464  -4.965  0.00  0.00    +0.000 A 
ATOM      8  N   UNL     1       1.469   5.570  -4.699  0.00  0.00    +0.000 NA
ATOM      9  H   UNL     1       4.358   4.909  -5.491  0.00  0.00    +0.000 HD
BRANCH   6  10
ATOM     10  C   UNL     1      -0.387   8.695  -5.751  0.00  0.00    +0.000 C 
ATOM     11  N   UNL     1      -1.683   8.311  -5.529  0.00  0.00    +0.000 N 
ATOM     12  O   UNL     1      -0.147   9.812  -6.184  0.00  0.00    +0.000 OA
ATOM     13  H   UNL     1      -1.991   7.419  -5.178  0.00  0.00    +0.000 HD
ATOM     14  H   UNL     1      -2.398   8.997  -5.740  0.00  0.00    +0.000 HD
ENDBRANCH   6  10
ENDBRANCH   1   2
BRANCH   1  15
ATOM     15  C   UNL     1       4.436   2.760  -3.846  0.00  0.00    +0.000 C 
BRANCH  15  20
ATOM     16  C   UNL     1       3.009   0.182  -1.390  0.00  0.00    +0.000 A 
ATOM     17  C   UNL     1       2.709  -0.862  -2.287  0.00  0.00    +0.000 A 
ATOM     18  C   UNL     1       2.989  -0.757  -3.651  0.00  0.00    +0.000 A 
ATOM     19  C   UNL     1       3.570   0.402  -4.157  0.00  0.00    +0.000 A 
ATOM     20  C   UNL     1       3.896   1.455  -3.297  0.00  0.00    +0.000 A 
ATOM     21  C   UNL     1       3.629   1.327  -1.920  0.00  0.00    +0.000 A 
BRANCH  16  23
ATOM     22  C   UNL     1       1.031  -0.014   0.121  0.00  0.00    +0.000 C 
ATOM     23  C   UNL     1       2.568   0.069   0.081  0.00  0.00    +0.000 C 
ATOM     24  C   UNL     1       3.226  -1.130   0.773  0.00  0.00    +0.000 C 
ATOM     25  C   UNL     1       4.456  -0.556   1.462  0.00  0.00    +0.000 C 
ATOM     26  O   UNL     1       4.361   0.871   1.423  0.00  0.00    +0.000 OA
ATOM     27  C   UNL     1       3.026   1.197   1.020  0.00  0.00    +0.000 C 
ENDBRANCH  16  23
ENDBRANCH  15  20
ENDBRANCH   1  15
TORSDOF 5
