REMARK  Name = 
REMARK  7 active torsions:
REMARK  status: ('A' for Active; 'I' for Inactive)
REMARK    1  A    between atoms: C_1  and  C_2
REMARK    2  A    between atoms: C_2  and  N_3
REMARK    3  A    between atoms: C_2  and  C_16
REMARK    4  A    between atoms: C_4  and  C_6
REMARK    5  A    between atoms: C_19  and  O_20
REMARK    6  A    between atoms: O_20  and  C_21
REMARK    7  A    between atoms: C_21  and  C_22
REMARK                            x       y       z     vdW  Elec       q    Type
REMARK                         _______ _______ _______ _____ _____    ______ ____
ROOT
ATOM      1  C   UNL     1       0.847   0.006   0.023  0.00  0.00    +0.000 C 
ATOM      2  C   UNL     1       2.378  -0.087   0.044  0.00  0.00    +0.000 C 
ENDROOT
BRANCH   2   3
ATOM      3  C   UNL     1       2.949   0.792  -1.057  0.00  0.00    +0.000 A 
ATOM      4  C   UNL     1       3.123   0.349  -2.375  0.00  0.00    +0.000 A 
ATOM      5  C   UNL     1       3.659   1.207  -3.337  0.00  0.00    +0.000 A 
ATOM      6  C   UNL     1       3.959   2.506  -2.967  0.00  0.00    +0.000 A 
ATOM      7  N   UNL     1       3.780   2.981  -1.716  0.00  0.00    +0.000 NA
ATOM      8  C   UNL     1       3.288   2.117  -0.796  0.00  0.00    +0.000 A 
BRANCH   6   9
ATOM      9  O   UNL     1       4.510   3.326  -3.935  0.00  0.00    +0.000 OA
BRANCH   9  10
ATOM     10  C   UNL     1       4.299   4.709  -3.644  0.00  0.00    +0.000 C 
BRANCH  10  11
ATOM     11  C   UNL     1       5.024   5.565  -4.657  0.00  0.00    +0.000 A 
ATOM     12  C   UNL     1       4.328   6.419  -5.517  0.00  0.00    +0.000 A 
ATOM     13  C   UNL     1       5.051   7.227  -6.384  0.00  0.00    +0.000 A 
ATOM     14  N   UNL     1       6.399   7.242  -6.452  0.00  0.00    +0.000 NA
ATOM     15  C   UNL     1       7.054   6.409  -5.616  0.00  0.00    +0.000 A 
ATOM     16  C   UNL     1       6.422   5.564  -4.716  0.00  0.00    +0.000 A 
ENDBRANCH  10  11
ENDBRANCH   9  10
ENDBRANCH   6   9
ENDBRANCH   2   3
BRANCH   2  17
ATOM     17  N   UNL     1       2.852  -1.460  -0.085  0.00  0.00    +0.000 N 
ATOM     18  C   UNL     1       2.534  -2.448   0.816  0.00  0.00    +0.000 C 
ATOM     19  O   UNL     1       1.806  -2.253   1.784  0.00  0.00    +0.000 OA
ATOM     20  H   UNL     1       3.707  -1.589  -0.619  0.00  0.00    +0.000 HD
BRANCH  18  21
ATOM     21  C   UNL     1       3.059  -3.787   0.525  0.00  0.00    +0.000 A 
ATOM     22  C   UNL     1       2.367  -4.906   0.968  0.00  0.00    +0.000 A 
ATOM     23  S   UNL     1       3.107  -6.381   0.540  0.00  0.00    +0.000 S 
ATOM     24  C   UNL     1       4.401  -5.575  -0.219  0.00  0.00    +0.000 A 
ATOM     25  N   UNL     1       5.429  -6.268  -0.772  0.00  0.00    +0.000 NA
ATOM     26  C   UNL     1       6.357  -5.531  -1.281  0.00  0.00    +0.000 A 
ATOM     27  N   UNL     1       6.341  -4.157  -1.302  0.00  0.00    +0.000 N 
ATOM     28  C   UNL     1       5.299  -3.418  -0.797  0.00  0.00    +0.000 A 
ATOM     29  O   UNL     1       5.269  -2.197  -0.899  0.00  0.00    +0.000 OA
ATOM     30  C   UNL     1       4.250  -4.199  -0.176  0.00  0.00    +0.000 A 
ATOM     31  H   UNL     1       7.090  -3.640  -1.736  0.00  0.00    +0.000 HD
ENDBRANCH  18  21
ENDBRANCH   2  17
TORSDOF 6
