REMARK  Name = 
REMARK  6 active torsions:
REMARK  status: ('A' for Active; 'I' for Inactive)
REMARK    1  A    between atoms: C_1  and  O_2
REMARK    2  A    between atoms: O_2  and  C_3
REMARK    3  A    between atoms: N_9  and  C_10
REMARK    4  A    between atoms: C_10  and  C_11
REMARK    5  A    between atoms: C_14  and  C_15
REMARK    6  A    between atoms: C_15  and  N_16
REMARK                            x       y       z     vdW  Elec       q    Type
REMARK                         _______ _______ _______ _____ _____    ______ ____
ROOT
ATOM      1  C   UNL     1       3.163   0.800  -0.862  0.00  0.00    +0.000 A 
ATOM      2  C   UNL     1       2.774   2.055  -1.326  0.00  0.00    +0.000 A 
ATOM      3  C   UNL     1       3.546   2.735  -2.277  0.00  0.00    +0.000 A 
ATOM      4  C   UNL     1       4.721   2.142  -2.781  0.00  0.00    +0.000 A 
ATOM      5  C   UNL     1       5.695   2.564  -3.720  0.00  0.00    +0.000 A 
ATOM      6  C   UNL     1       6.616   1.551  -3.847  0.00  0.00    +0.000 A 
ATOM      7  N   UNL     1       6.234   0.517  -3.022  0.00  0.00    +0.000 N 
ATOM      8  C   UNL     1       5.089   0.872  -2.327  0.00  0.00    +0.000 A 
ATOM      9  C   UNL     1       4.330   0.196  -1.354  0.00  0.00    +0.000 A 
ENDROOT
BRANCH   1  11
ATOM     10  C   UNL     1       1.256   0.590   0.548  0.00  0.00    +0.000 C 
ATOM     11  O   UNL     1       2.486   0.055   0.068  0.00  0.00    +0.000 OA
ENDBRANCH   1  11
BRANCH   7  12
ATOM     12  C   UNL     1       6.899  -0.786  -3.000  0.00  0.00    +0.000 C 
BRANCH  12  13
ATOM     13  C   UNL     1       8.056  -0.805  -2.036  0.00  0.00    +0.000 A 
ATOM     14  C   UNL     1       7.881  -1.275  -0.729  0.00  0.00    +0.000 A 
ATOM     15  C   UNL     1       8.907  -1.155   0.212  0.00  0.00    +0.000 A 
ATOM     16  C   UNL     1      10.134  -0.569  -0.133  0.00  0.00    +0.000 A 
ATOM     17  C   UNL     1      10.330  -0.164  -1.459  0.00  0.00    +0.000 A 
ATOM     18  C   UNL     1       9.307  -0.288  -2.403  0.00  0.00    +0.000 A 
BRANCH  16  19
ATOM     19  C   UNL     1      11.133  -0.255   0.954  0.00  0.00    +0.000 C 
BRANCH  19  20
ATOM     20  N   UNL     1      12.522  -0.311   0.513  0.00  0.00    +0.000 NA
ATOM     21  H   UNL     1      12.735  -1.267   0.233  0.00  0.00    +0.000 HD
ATOM     22  H   UNL     1      13.124  -0.100   1.305  0.00  0.00    +0.000 HD
ENDBRANCH  19  20
ENDBRANCH  16  19
ENDBRANCH  12  13
ENDBRANCH   7  12
TORSDOF 5
