REMARK  Name = 
REMARK  5 active torsions:
REMARK  status: ('A' for Active; 'I' for Inactive)
REMARK    1  A    between atoms: C_2  and  C_3
REMARK    2  A    between atoms: C_6  and  C_7
REMARK    3  A    between atoms: C_7  and  N_8
REMARK    4  A    between atoms: N_8  and  C_9
REMARK    5  A    between atoms: C_12  and  C_13
REMARK                            x       y       z     vdW  Elec       q    Type
REMARK                         _______ _______ _______ _____ _____    ______ ____
ROOT
ATOM      1  N   UNL     1       8.376   1.325   1.131  0.00  0.00    +0.000 N 
ATOM      2  H   UNL     1       9.046   1.078   1.855  0.00  0.00    +0.000 HD
ENDROOT
BRANCH   1   3
ATOM      3  C   UNL     1       8.581   2.640   0.663  0.00  0.00    +0.000 A 
ATOM      4  C   UNL     1       7.979   3.150  -0.492  0.00  0.00    +0.000 A 
ATOM      5  C   UNL     1       8.177   4.485  -0.878  0.00  0.00    +0.000 A 
ATOM      6  C   UNL     1       8.976   5.332  -0.101  0.00  0.00    +0.000 A 
ATOM      7  C   UNL     1       9.570   4.837   1.061  0.00  0.00    +0.000 A 
ATOM      8  C   UNL     1       9.355   3.511   1.447  0.00  0.00    +0.000 A 
BRANCH   6   9
ATOM      9  C   UNL     1       9.234   6.745  -0.477  0.00  0.00    +0.000 C 
ATOM     10  N   UNL     1       8.279   7.382  -1.219  0.00  0.00    +0.000 N 
ATOM     11  O   UNL     1      10.243   7.334  -0.108  0.00  0.00    +0.000 OA
ATOM     12  H   UNL     1       7.346   7.013  -1.338  0.00  0.00    +0.000 HD
ATOM     13  H   UNL     1       8.420   8.370  -1.382  0.00  0.00    +0.000 HD
ENDBRANCH   6   9
ENDBRANCH   1   3
BRANCH   1  14
ATOM     14  C   UNL     1       7.970   0.205   0.244  0.00  0.00    +0.000 C 
ATOM     15  C   UNL     1       8.890  -0.274  -0.866  0.00  0.00    +0.000 C 
ATOM     16  C   UNL     1       8.789  -1.076   0.390  0.00  0.00    +0.000 C 
BRANCH  14  20
ATOM     17  C   UNL     1       3.761  -0.342  -0.284  0.00  0.00    +0.000 A 
ATOM     18  C   UNL     1       4.257  -0.326   1.006  0.00  0.00    +0.000 A 
ATOM     19  C   UNL     1       5.626  -0.137   1.181  0.00  0.00    +0.000 A 
ATOM     20  C   UNL     1       6.458   0.028   0.074  0.00  0.00    +0.000 A 
ATOM     21  N   UNL     1       5.912   0.014  -1.169  0.00  0.00    +0.000 NA
ATOM     22  N   UNL     1       4.560  -0.175  -1.354  0.00  0.00    +0.000 NA
BRANCH  17  24
ATOM     23  N   UNL     1       1.235  -0.718  -0.734  0.00  0.00    +0.000 NA
ATOM     24  C   UNL     1       2.373  -0.546  -0.557  0.00  0.00    +0.000 C 
ENDBRANCH  17  24
ENDBRANCH  14  20
ENDBRANCH   1  14
TORSDOF 5
