REMARK  Name = 
REMARK  9 active torsions:
REMARK  status: ('A' for Active; 'I' for Inactive)
REMARK    1  A    between atoms: C_1  and  O_2
REMARK    2  A    between atoms: O_2  and  C_3
REMARK    3  A    between atoms: C_10  and  C_11
REMARK    4  A    between atoms: N_13  and  C_14
REMARK    5  A    between atoms: C_14  and  C_15
REMARK    6  A    between atoms: C_18  and  C_19
REMARK    7  A    between atoms: C_19  and  N_20
REMARK    8  A    between atoms: N_20  and  C_21
REMARK    9  A    between atoms: C_21  and  C_22
REMARK                            x       y       z     vdW  Elec       q    Type
REMARK                         _______ _______ _______ _____ _____    ______ ____
ROOT
ATOM      1  C   UNL     1       1.823   1.794   2.856  0.00  0.00    +0.000 A 
ATOM      2  C   UNL     1       0.507   1.391   2.597  0.00  0.00    +0.000 A 
ATOM      3  C   UNL     1      -0.472   2.332   2.259  0.00  0.00    +0.000 A 
ATOM      4  C   UNL     1      -0.157   3.695   2.167  0.00  0.00    +0.000 A 
ATOM      5  C   UNL     1       1.163   4.095   2.418  0.00  0.00    +0.000 A 
ATOM      6  C   UNL     1       2.143   3.154   2.754  0.00  0.00    +0.000 A 
ENDROOT
BRANCH   1   7
ATOM      7  C   UNL     1       2.889   0.780   3.184  0.00  0.00    +0.000 C 
BRANCH   7  10
ATOM      8  C   UNL     1       4.511  -0.658   2.025  0.00  0.00    +0.000 C 
ATOM      9  O   UNL     1       4.871  -1.153   3.091  0.00  0.00    +0.000 OA
ATOM     10  N   UNL     1       3.543   0.307   1.986  0.00  0.00    +0.000 N 
ATOM     11  H   UNL     1       3.284   0.738   1.109  0.00  0.00    +0.000 HD
BRANCH   8  19
ATOM     12  C   UNL     1       3.876   0.131  -1.269  0.00  0.00    +0.000 A 
ATOM     13  N   UNL     1       3.851   0.262  -2.611  0.00  0.00    +0.000 NA
ATOM     14  C   UNL     1       4.729  -0.445  -3.328  0.00  0.00    +0.000 A 
ATOM     15  N   UNL     1       5.647  -1.286  -2.863  0.00  0.00    +0.000 NA
ATOM     16  C   UNL     1       5.643  -1.381  -1.523  0.00  0.00    +0.000 A 
ATOM     17  S   UNL     1       6.750  -2.415  -0.756  0.00  0.00    +0.000 S 
ATOM     18  C   UNL     1       6.148  -2.002   0.777  0.00  0.00    +0.000 A 
ATOM     19  C   UNL     1       5.110  -1.077   0.746  0.00  0.00    +0.000 A 
ATOM     20  C   UNL     1       4.806  -0.711  -0.635  0.00  0.00    +0.000 A 
BRANCH  12  22
ATOM     21  C   UNL     1       1.804   1.210  -1.253  0.00  0.00    +0.000 C 
ATOM     22  O   UNL     1       2.990   0.887  -0.530  0.00  0.00    +0.000 OA
ENDBRANCH  12  22
ENDBRANCH   8  19
ENDBRANCH   7  10
ENDBRANCH   1   7
BRANCH   4  23
ATOM     23  C   UNL     1      -1.210   4.709   1.776  0.00  0.00    +0.000 C 
BRANCH  23  24
ATOM     24  N   UNL     1      -2.321   4.720   2.727  0.00  0.00    +0.000 NA
ATOM     25  H   UNL     1      -1.954   4.923   3.657  0.00  0.00    +0.000 HD
BRANCH  24  26
ATOM     26  C   UNL     1      -3.320   5.726   2.371  0.00  0.00    +0.000 C 
BRANCH  26  27
ATOM     27  C   UNL     1      -4.469   5.713   3.345  0.00  0.00    +0.000 A 
ATOM     28  C   UNL     1      -4.826   6.854   4.062  0.00  0.00    +0.000 A 
ATOM     29  N   UNL     1      -5.847   6.907   4.949  0.00  0.00    +0.000 NA
ATOM     30  C   UNL     1      -6.552   5.764   5.131  0.00  0.00    +0.000 A 
ATOM     31  C   UNL     1      -6.285   4.580   4.462  0.00  0.00    +0.000 A 
ATOM     32 CL   UNL     1      -7.228   3.174   4.744  0.00  0.00    +0.000 Cl
ATOM     33  C   UNL     1      -5.232   4.557   3.555  0.00  0.00    +0.000 A 
ENDBRANCH  26  27
ENDBRANCH  24  26
ENDBRANCH  23  24
ENDBRANCH   4  23
TORSDOF 8
