REMARK  Name = 
REMARK  7 active torsions:
REMARK  status: ('A' for Active; 'I' for Inactive)
REMARK    1  A    between atoms: C_1  and  O_2
REMARK    2  A    between atoms: O_2  and  C_3
REMARK    3  A    between atoms: C_5  and  C_6
REMARK    4  A    between atoms: C_11  and  O_12
REMARK    5  A    between atoms: O_12  and  C_13
REMARK    6  A    between atoms: C_13  and  C_14
REMARK    7  A    between atoms: C_19  and  C_20
REMARK                            x       y       z     vdW  Elec       q    Type
REMARK                         _______ _______ _______ _____ _____    ______ ____
ROOT
ATOM      1  O   UNL     1       4.546   0.515   1.621  0.00  0.00    +0.000 OA
ENDROOT
BRANCH   1   7
ATOM      2  C   UNL     1       3.126  -1.056   0.275  0.00  0.00    +0.000 A 
ATOM      3  C   UNL     1       2.925  -2.395  -0.091  0.00  0.00    +0.000 A 
ATOM      4  C   UNL     1       3.788  -3.410   0.340  0.00  0.00    +0.000 A 
ATOM      5  C   UNL     1       4.874  -3.077   1.152  0.00  0.00    +0.000 A 
ATOM      6  C   UNL     1       5.069  -1.745   1.540  0.00  0.00    +0.000 A 
ATOM      7  C   UNL     1       4.206  -0.726   1.120  0.00  0.00    +0.000 A 
BRANCH   4   8
ATOM      8  C   UNL     1       3.486  -4.794  -0.128  0.00  0.00    +0.000 C 
ATOM      9  N   UNL     1       4.316  -5.812   0.244  0.00  0.00    +0.000 N 
ATOM     10  O   UNL     1       2.511  -5.034  -0.835  0.00  0.00    +0.000 OA
ATOM     11  H   UNL     1       5.142  -5.715   0.817  0.00  0.00    +0.000 HD
ATOM     12  H   UNL     1       4.086  -6.734  -0.099  0.00  0.00    +0.000 HD
ENDBRANCH   4   8
BRANCH   2  14
ATOM     13  C   UNL     1       1.034  -0.381  -0.673  0.00  0.00    +0.000 C 
ATOM     14  O   UNL     1       2.341  -0.052  -0.227  0.00  0.00    +0.000 OA
ENDBRANCH   2  14
ENDBRANCH   1   7
BRANCH   1  15
ATOM     15  C   UNL     1       3.680   1.593   1.274  0.00  0.00    +0.000 C 
BRANCH  15  16
ATOM     16  C   UNL     1       4.068   2.919   1.887  0.00  0.00    +0.000 A 
ATOM     17  C   UNL     1       3.782   4.092   1.174  0.00  0.00    +0.000 A 
ATOM     18  C   UNL     1       4.006   5.332   1.750  0.00  0.00    +0.000 A 
ATOM     19  F   UNL     1       3.718   6.441   1.054  0.00  0.00    +0.000 F 
ATOM     20  C   UNL     1       4.487   5.442   3.048  0.00  0.00    +0.000 A 
ATOM     21  C   UNL     1       4.751   4.286   3.797  0.00  0.00    +0.000 A 
ATOM     22  C   UNL     1       4.557   3.027   3.195  0.00  0.00    +0.000 A 
BRANCH  21  23
ATOM     23  C   UNL     1       5.180   4.407   5.246  0.00  0.00    +0.000 C 
ATOM     24  C   UNL     1       6.577   3.817   5.479  0.00  0.00    +0.000 C 
ATOM     25  C   UNL     1       6.916   3.770   6.965  0.00  0.00    +0.000 C 
ATOM     26  C   UNL     1       5.790   3.111   7.750  0.00  0.00    +0.000 C 
ATOM     27  O   UNL     1       4.571   3.823   7.551  0.00  0.00    +0.000 OA
ATOM     28  C   UNL     1       4.142   3.771   6.189  0.00  0.00    +0.000 C 
ENDBRANCH  21  23
ENDBRANCH  15  16
ENDBRANCH   1  15
TORSDOF 6
