REMARK  Name = 
REMARK  7 active torsions:
REMARK  status: ('A' for Active; 'I' for Inactive)
REMARK    1  A    between atoms: C_2  and  C_3
REMARK    2  A    between atoms: C_6  and  O_7
REMARK    3  A    between atoms: O_7  and  C_8
REMARK    4  A    between atoms: C_8  and  C_9
REMARK    5  A    between atoms: C_9  and  C_12
REMARK    6  A    between atoms: C_16  and  C_17
REMARK    7  A    between atoms: C_17  and  C_18
REMARK                            x       y       z     vdW  Elec       q    Type
REMARK                         _______ _______ _______ _____ _____    ______ ____
ROOT
ATOM      1  C   UNL     1       5.888  -0.921   0.323  0.00  0.00    +0.000 C 
ATOM      2  F   UNL     1       6.318  -0.170  -0.736  0.00  0.00    +0.000 F 
ATOM      3  F   UNL     1       6.080  -0.133   1.426  0.00  0.00    +0.000 F 
ENDROOT
BRANCH   1   4
ATOM      4  C   UNL     1       6.683  -2.214   0.434  0.00  0.00    +0.000 A 
ATOM      5  C   UNL     1       8.052  -2.130   0.586  0.00  0.00    +0.000 A 
ATOM      6  C   UNL     1       8.712  -3.326   0.733  0.00  0.00    +0.000 A 
ATOM      7  N   UNL     1       8.095  -4.529   0.709  0.00  0.00    +0.000 NA
ATOM      8  C   UNL     1       6.767  -4.530   0.508  0.00  0.00    +0.000 A 
ATOM      9  N   UNL     1       6.028  -3.410   0.390  0.00  0.00    +0.000 NA
BRANCH   8  10
ATOM     10  C   UNL     1       6.035  -5.853   0.412  0.00  0.00    +0.000 C 
BRANCH  10  11
ATOM     11  C   UNL     1       5.952  -6.391  -1.016  0.00  0.00    +0.000 C 
ATOM     12  C   UNL     1       5.200  -5.596  -2.115  0.00  0.00    +0.000 C 
ATOM     13  C   UNL     1       4.677  -6.931  -2.679  0.00  0.00    +0.000 C 
ATOM     14  C   UNL     1       4.997  -7.591  -1.324  0.00  0.00    +0.000 C 
ENDBRANCH  10  11
ENDBRANCH   8  10
ENDBRANCH   1   4
BRANCH   1  15
ATOM     15  C   UNL     1       4.388  -1.187   0.164  0.00  0.00    +0.000 C 
BRANCH  15  16
ATOM     16  O   UNL     1       3.659   0.048   0.132  0.00  0.00    +0.000 OA
BRANCH  16  20
ATOM     17  C   UNL     1      -0.486   0.018  -0.262  0.00  0.00    +0.000 A 
ATOM     18  C   UNL     1       0.187  -1.205  -0.248  0.00  0.00    +0.000 A 
ATOM     19  C   UNL     1       1.578  -1.241  -0.121  0.00  0.00    +0.000 A 
ATOM     20  C   UNL     1       2.303  -0.053  -0.006  0.00  0.00    +0.000 A 
ATOM     21  C   UNL     1       1.627   1.169  -0.028  0.00  0.00    +0.000 A 
ATOM     22  C   UNL     1       0.238   1.210  -0.156  0.00  0.00    +0.000 A 
BRANCH  17  24
ATOM     23  N   UNL     1      -3.071   0.075  -0.475  0.00  0.00    +0.000 NA
ATOM     24  C   UNL     1      -1.907   0.053  -0.381  0.00  0.00    +0.000 C 
ENDBRANCH  17  24
ENDBRANCH  16  20
ENDBRANCH  15  16
ENDBRANCH   1  15
TORSDOF 7
