REMARK  Name = 
REMARK  6 active torsions:
REMARK  status: ('A' for Active; 'I' for Inactive)
REMARK    1  A    between atoms: N_1  and  C_2
REMARK    2  A    between atoms: C_2  and  C_3
REMARK    3  A    between atoms: C_3  and  C_4
REMARK    4  A    between atoms: C_7  and  C_8
REMARK    5  A    between atoms: C_8  and  N_9
REMARK    6  A    between atoms: C_14  and  C_15
REMARK                            x       y       z     vdW  Elec       q    Type
REMARK                         _______ _______ _______ _____ _____    ______ ____
ROOT
ATOM      1  N   UNL     1       9.960   0.294  -1.124  0.00  0.00    +0.000 N 
ATOM      2  C   UNL     1       9.899   1.615  -1.481  0.00  0.00    +0.000 A 
ATOM      3  N   UNL     1      11.085   2.179  -1.481  0.00  0.00    +0.000 NA
ATOM      4  C   UNL     1      11.948   1.193  -1.084  0.00  0.00    +0.000 A 
ATOM      5  C   UNL     1      13.349   1.207  -1.045  0.00  0.00    +0.000 A 
ATOM      6  C   UNL     1      14.035   0.044  -0.654  0.00  0.00    +0.000 A 
ATOM      7  C   UNL     1      13.309  -1.066  -0.189  0.00  0.00    +0.000 A 
ATOM      8  C   UNL     1      11.907  -1.098  -0.223  0.00  0.00    +0.000 A 
ATOM      9  C   UNL     1      11.261   0.031  -0.740  0.00  0.00    +0.000 A 
ENDROOT
BRANCH   6  10
ATOM     10  C   UNL     1      15.533  -0.041  -0.801  0.00  0.00    +0.000 C 
ATOM     11  F   UNL     1      16.095   1.068  -1.360  0.00  0.00    +0.000 F 
ATOM     12  F   UNL     1      16.175  -0.231   0.385  0.00  0.00    +0.000 F 
ATOM     13  F   UNL     1      15.909  -1.082  -1.597  0.00  0.00    +0.000 F 
ENDBRANCH   6  10
BRANCH   1  14
ATOM     14  C   UNL     1       8.983  -0.722  -1.501  0.00  0.00    +0.000 C 
BRANCH  14  18
ATOM     15  C   UNL     1       4.829   0.265  -0.719  0.00  0.00    +0.000 A 
ATOM     16  C   UNL     1       5.420   0.593  -1.946  0.00  0.00    +0.000 A 
ATOM     17  C   UNL     1       6.761   0.276  -2.198  0.00  0.00    +0.000 A 
ATOM     18  C   UNL     1       7.548  -0.357  -1.224  0.00  0.00    +0.000 A 
ATOM     19  C   UNL     1       6.964  -0.671   0.007  0.00  0.00    +0.000 A 
ATOM     20  C   UNL     1       5.626  -0.365   0.250  0.00  0.00    +0.000 A 
BRANCH  15  21
ATOM     21  C   UNL     1       3.407   0.637  -0.355  0.00  0.00    +0.000 C 
BRANCH  21  22
ATOM     22  C   UNL     1       2.388   0.689  -1.502  0.00  0.00    +0.000 C 
BRANCH  22  23
ATOM     23  N   UNL     1       1.055   1.021  -0.995  0.00  0.00    +0.000 NA
ATOM     24  H   UNL     1       0.397   1.070  -1.773  0.00  0.00    +0.000 HD
ATOM     25  H   UNL     1       1.068   1.953  -0.578  0.00  0.00    +0.000 HD
ENDBRANCH  22  23
ENDBRANCH  21  22
ENDBRANCH  15  21
ENDBRANCH  14  18
ENDBRANCH   1  14
TORSDOF 6
