REMARK  Name = 
REMARK  8 active torsions:
REMARK  status: ('A' for Active; 'I' for Inactive)
REMARK    1  A    between atoms: C_1  and  C_2
REMARK    2  A    between atoms: C_2  and  C_3
REMARK    3  A    between atoms: C_2  and  C_4
REMARK    4  A    between atoms: C_2  and  C_5
REMARK    5  A    between atoms: C_7  and  C_8
REMARK    6  A    between atoms: C_8  and  N_9
REMARK    7  A    between atoms: C_14  and  C_15
REMARK    8  A    between atoms: C_15  and  O_17
REMARK                            x       y       z     vdW  Elec       q    Type
REMARK                         _______ _______ _______ _____ _____    ______ ____
ROOT
ATOM      1  N   UNL     1       6.105  -1.083  -4.942  0.00  0.00    +0.000 N 
ATOM      2  C   UNL     1       6.959  -0.010  -4.803  0.00  0.00    +0.000 A 
ATOM      3  C   UNL     1       8.219  -0.550  -4.646  0.00  0.00    +0.000 A 
ATOM      4  C   UNL     1       8.176  -1.703  -5.471  0.00  0.00    +0.000 A 
ATOM      5  C   UNL     1       9.090  -2.388  -6.277  0.00  0.00    +0.000 A 
ATOM      6  C   UNL     1       8.579  -3.448  -7.028  0.00  0.00    +0.000 A 
ATOM      7  C   UNL     1       7.271  -3.884  -6.805  0.00  0.00    +0.000 A 
ATOM      8  N   UNL     1       6.339  -3.226  -6.062  0.00  0.00    +0.000 NA
ATOM      9  C   UNL     1       6.840  -2.106  -5.499  0.00  0.00    +0.000 A 
ENDROOT
BRANCH   6  10
ATOM     10  C   UNL     1       9.388  -4.117  -8.064  0.00  0.00    +0.000 C 
ATOM     11  O   UNL     1       9.397  -5.316  -8.218  0.00  0.00    +0.000 OA
BRANCH  10  12
ATOM     12  O   UNL     1      10.036  -3.242  -8.852  0.00  0.00    +0.000 OA
ATOM     13  H   UNL     1       9.774  -2.299  -8.754  0.00  0.00    +0.000 HD
ENDBRANCH  10  12
ENDBRANCH   6  10
BRANCH   1  14
ATOM     14  C   UNL     1       4.653  -0.989  -4.869  0.00  0.00    +0.000 C 
BRANCH  14  17
ATOM     15  C   UNL     1       3.098  -0.960  -1.350  0.00  0.00    +0.000 A 
ATOM     16  C   UNL     1       3.743  -0.510  -2.516  0.00  0.00    +0.000 A 
ATOM     17  C   UNL     1       4.075  -1.426  -3.538  0.00  0.00    +0.000 A 
ATOM     18  C   UNL     1       3.778  -2.780  -3.342  0.00  0.00    +0.000 A 
ATOM     19  C   UNL     1       3.129  -3.139  -2.168  0.00  0.00    +0.000 A 
ATOM     20  N   UNL     1       2.773  -2.270  -1.204  0.00  0.00    +0.000 NA
BRANCH  15  22
ATOM     21  C   UNL     1       1.183   0.417  -0.483  0.00  0.00    +0.000 C 
ATOM     22  C   UNL     1       2.642  -0.031  -0.218  0.00  0.00    +0.000 C 
ATOM     23  C   UNL     1       3.515   1.222  -0.037  0.00  0.00    +0.000 C 
ATOM     24  C   UNL     1       2.657  -0.789   1.138  0.00  0.00    +0.000 C 
ENDBRANCH  15  22
ENDBRANCH  14  17
ENDBRANCH   1  14
TORSDOF 5
