REMARK  Name = 
REMARK  4 active torsions:
REMARK  status: ('A' for Active; 'I' for Inactive)
REMARK    1  A    between atoms: C_2  and  C_4
REMARK    2  A    between atoms: N_8  and  C_9
REMARK    3  A    between atoms: C_9  and  C_10
REMARK    4  A    between atoms: C_14  and  C_15
REMARK                            x       y       z     vdW  Elec       q    Type
REMARK                         _______ _______ _______ _____ _____    ______ ____
ROOT
ATOM      1  C   UNL     1       4.909   3.833  -4.659  0.00  0.00    +0.000 C 
ATOM      2  C   UNL     1       4.649   5.235  -4.129  0.00  0.00    +0.000 C 
ATOM      3  C   UNL     1       3.508   4.439  -4.671  0.00  0.00    +0.000 C 
ENDROOT
BRANCH   1   8
ATOM      4  C   UNL     1       8.245   2.549  -0.928  0.00  0.00    +0.000 A 
ATOM      5  C   UNL     1       8.403   3.386  -2.025  0.00  0.00    +0.000 A 
ATOM      6  C   UNL     1       7.383   3.459  -2.973  0.00  0.00    +0.000 A 
ATOM      7  C   UNL     1       6.226   2.704  -2.812  0.00  0.00    +0.000 A 
ATOM      8  N   UNL     1       5.167   2.736  -3.722  0.00  0.00    +0.000 N 
ATOM      9  N   UNL     1       6.071   1.874  -1.758  0.00  0.00    +0.000 NA
ATOM     10  C   UNL     1       7.081   1.801  -0.849  0.00  0.00    +0.000 A 
ATOM     11  H   UNL     1       4.400   2.183  -3.353  0.00  0.00    +0.000 HD
BRANCH   4  13
ATOM     12  N   UNL     1      10.090   3.486   0.341  0.00  0.00    +0.000 N 
ATOM     13  C   UNL     1       9.269   2.413   0.128  0.00  0.00    +0.000 C 
ATOM     14  O   UNL     1       9.356   1.401   0.810  0.00  0.00    +0.000 OA
ATOM     15  H   UNL     1      10.722   3.421   1.129  0.00  0.00    +0.000 HD
ATOM     16  H   UNL     1       9.894   4.406  -0.028  0.00  0.00    +0.000 HD
ENDBRANCH   4  13
ENDBRANCH   1   8
BRANCH   1  17
ATOM     17  C   UNL     1       5.548   3.672  -6.038  0.00  0.00    +0.000 A 
ATOM     18  C   UNL     1       5.042   2.750  -6.973  0.00  0.00    +0.000 A 
ATOM     19  C   UNL     1       5.524   2.707  -8.278  0.00  0.00    +0.000 A 
ATOM     20  C   UNL     1       6.518   3.593  -8.683  0.00  0.00    +0.000 A 
ATOM     21  C   UNL     1       7.065   4.526  -7.788  0.00  0.00    +0.000 A 
ATOM     22  C   UNL     1       6.593   4.512  -6.465  0.00  0.00    +0.000 A 
BRANCH  21  23
ATOM     23  C   UNL     1       8.024   5.557  -8.221  0.00  0.00    +0.000 A 
ATOM     24  C   UNL     1       7.865   6.227  -9.435  0.00  0.00    +0.000 A 
ATOM     25  C   UNL     1       8.761   7.234  -9.782  0.00  0.00    +0.000 A 
ATOM     26  C   UNL     1       9.789   7.553  -8.909  0.00  0.00    +0.000 A 
ATOM     27  C   UNL     1       9.874   6.856  -7.716  0.00  0.00    +0.000 A 
ATOM     28  N   UNL     1       9.016   5.876  -7.350  0.00  0.00    +0.000 NA
ENDBRANCH  21  23
ENDBRANCH   1  17
TORSDOF 4
