REMARK  Name = 
REMARK  6 active torsions:
REMARK  status: ('A' for Active; 'I' for Inactive)
REMARK    1  A    between atoms: C_1  and  C_2
REMARK    2  A    between atoms: C_7  and  C_8
REMARK    3  A    between atoms: C_8  and  C_9
REMARK    4  A    between atoms: C_12  and  C_13
REMARK    5  A    between atoms: C_13  and  N_14
REMARK    6  A    between atoms: C_15  and  C_17
REMARK                            x       y       z     vdW  Elec       q    Type
REMARK                         _______ _______ _______ _____ _____    ______ ____
ROOT
ATOM      1  C   UNL     1       6.599  -1.682   0.021  0.00  0.00    +0.000 C 
ENDROOT
BRANCH   1   5
ATOM      2  C   UNL     1       2.423  -2.561   0.124  0.00  0.00    +0.000 A 
ATOM      3  C   UNL     1       3.025  -2.055   1.275  0.00  0.00    +0.000 A 
ATOM      4  C   UNL     1       4.402  -1.816   1.278  0.00  0.00    +0.000 A 
ATOM      5  C   UNL     1       5.153  -2.068   0.130  0.00  0.00    +0.000 A 
ATOM      6  C   UNL     1       4.487  -2.647  -0.942  0.00  0.00    +0.000 A 
ATOM      7  N   UNL     1       3.153  -2.892  -0.975  0.00  0.00    +0.000 NA
BRANCH   2   8
ATOM      8  C   UNL     1       0.919  -2.553  -0.048  0.00  0.00    +0.000 C 
BRANCH   8  15
ATOM      9  C   UNL     1      -0.137  -5.409  -0.291  0.00  0.00    +0.000 C 
ATOM     10  C   UNL     1      -0.417  -4.528   0.891  0.00  0.00    +0.000 A 
ATOM     11  C   UNL     1      -1.290  -4.994   1.886  0.00  0.00    +0.000 A 
ATOM     12  C   UNL     1      -1.604  -4.193   2.976  0.00  0.00    +0.000 A 
ATOM     13  C   UNL     1      -1.037  -2.938   3.040  0.00  0.00    +0.000 A 
ATOM     14  N   UNL     1      -0.210  -2.441   2.097  0.00  0.00    +0.000 NA
ATOM     15  C   UNL     1       0.089  -3.226   1.022  0.00  0.00    +0.000 A 
ENDBRANCH   8  15
ENDBRANCH   2   8
ENDBRANCH   1   5
BRANCH   1  16
ATOM     16  N   UNL     1       7.496  -2.734   0.425  0.00  0.00    +0.000 N 
ATOM     17  C   UNL     1       8.853  -2.515   0.448  0.00  0.00    +0.000 C 
ATOM     18  O   UNL     1       9.335  -1.412   0.201  0.00  0.00    +0.000 OA
ATOM     19  H   UNL     1       7.147  -3.688   0.397  0.00  0.00    +0.000 HD
BRANCH  17  20
ATOM     20  C   UNL     1       9.704  -3.649   0.828  0.00  0.00    +0.000 A 
ATOM     21  C   UNL     1      10.967  -3.415   1.355  0.00  0.00    +0.000 A 
ATOM     22  S   UNL     1      11.806  -4.838   1.776  0.00  0.00    +0.000 S 
ATOM     23  C   UNL     1      10.532  -5.818   1.222  0.00  0.00    +0.000 A 
ATOM     24  N   UNL     1      10.621  -7.175   1.268  0.00  0.00    +0.000 NA
ATOM     25  C   UNL     1       9.597  -7.793   0.786  0.00  0.00    +0.000 A 
ATOM     26  N   UNL     1       8.485  -7.180   0.268  0.00  0.00    +0.000 N 
ATOM     27  C   UNL     1       8.335  -5.814   0.231  0.00  0.00    +0.000 A 
ATOM     28  O   UNL     1       7.309  -5.292  -0.191  0.00  0.00    +0.000 OA
ATOM     29  C   UNL     1       9.469  -5.070   0.746  0.00  0.00    +0.000 A 
ATOM     30  H   UNL     1       7.711  -7.722  -0.083  0.00  0.00    +0.000 HD
ENDBRANCH  17  20
ENDBRANCH   1  16
TORSDOF 5
