REMARK  Name = 
REMARK  9 active torsions:
REMARK  status: ('A' for Active; 'I' for Inactive)
REMARK    1  A    between atoms: C_1  and  O_2
REMARK    2  A    between atoms: O_2  and  C_3
REMARK    3  A    between atoms: C_3  and  C_4
REMARK    4  A    between atoms: C_3  and  C_18
REMARK    5  A    between atoms: C_4  and  N_5
REMARK    6  A    between atoms: C_6  and  C_8
REMARK    7  A    between atoms: C_21  and  O_22
REMARK    8  A    between atoms: O_22  and  C_23
REMARK    9  A    between atoms: C_23  and  C_24
REMARK                            x       y       z     vdW  Elec       q    Type
REMARK                         _______ _______ _______ _____ _____    ______ ____
ROOT
ATOM      1  C   UNL     1       2.938  -0.612  -1.264  0.00  0.00    +0.000 C 
ENDROOT
BRANCH   1   2
ATOM      2  C   UNL     1       4.465  -0.665  -1.298  0.00  0.00    +0.000 A 
ATOM      3  C   UNL     1       5.204  -0.825  -0.112  0.00  0.00    +0.000 A 
ATOM      4  C   UNL     1       6.600  -0.892  -0.131  0.00  0.00    +0.000 A 
ATOM      5  C   UNL     1       7.284  -0.828  -1.341  0.00  0.00    +0.000 A 
ATOM      6  C   UNL     1       6.571  -0.633  -2.521  0.00  0.00    +0.000 A 
ATOM      7  C   UNL     1       5.178  -0.578  -2.502  0.00  0.00    +0.000 A 
BRANCH   5   8
ATOM      8  O   UNL     1       8.641  -0.977  -1.275  0.00  0.00    +0.000 OA
BRANCH   8   9
ATOM      9  C   UNL     1       9.238  -1.423  -2.498  0.00  0.00    +0.000 C 
BRANCH   9  10
ATOM     10  C   UNL     1      10.563  -2.084  -2.224  0.00  0.00    +0.000 A 
ATOM     11  C   UNL     1      10.633  -3.159  -1.339  0.00  0.00    +0.000 A 
ATOM     12  C   UNL     1      11.853  -3.799  -1.161  0.00  0.00    +0.000 A 
ATOM     13  C   UNL     1      12.962  -3.351  -1.868  0.00  0.00    +0.000 A 
ATOM     14  C   UNL     1      12.806  -2.280  -2.731  0.00  0.00    +0.000 A 
ATOM     15  N   UNL     1      11.635  -1.643  -2.930  0.00  0.00    +0.000 NA
ENDBRANCH   9  10
ENDBRANCH   8   9
ENDBRANCH   5   8
ENDBRANCH   1   2
BRANCH   1  17
ATOM     16  C   UNL     1       1.179  -0.050   0.279  0.00  0.00    +0.000 C 
ATOM     17  O   UNL     1       2.562   0.012  -0.023  0.00  0.00    +0.000 OA
ENDBRANCH   1  17
BRANCH   1  18
ATOM     18  C   UNL     1       2.299   0.118  -2.476  0.00  0.00    +0.000 C 
BRANCH  18  19
ATOM     19  N   UNL     1       2.745   1.497  -2.585  0.00  0.00    +0.000 N 
ATOM     20  C   UNL     1       2.404   2.309  -3.630  0.00  0.00    +0.000 C 
ATOM     21  O   UNL     1       1.775   1.889  -4.598  0.00  0.00    +0.000 OA
ATOM     22  H   UNL     1       3.186   1.886  -1.753  0.00  0.00    +0.000 HD
BRANCH  20  23
ATOM     23  C   UNL     1       2.845   3.708  -3.545  0.00  0.00    +0.000 A 
ATOM     24  C   UNL     1       2.922   4.479  -4.697  0.00  0.00    +0.000 A 
ATOM     25  S   UNL     1       3.395   6.093  -4.411  0.00  0.00    +0.000 S 
ATOM     26  C   UNL     1       3.482   5.828  -2.732  0.00  0.00    +0.000 A 
ATOM     27  N   UNL     1       3.779   6.844  -1.877  0.00  0.00    +0.000 NA
ATOM     28  C   UNL     1       3.770   6.511  -0.629  0.00  0.00    +0.000 A 
ATOM     29  N   UNL     1       3.511   5.250  -0.160  0.00  0.00    +0.000 N 
ATOM     30  C   UNL     1       3.282   4.180  -0.988  0.00  0.00    +0.000 A 
ATOM     31  O   UNL     1       3.181   3.043  -0.540  0.00  0.00    +0.000 OA
ATOM     32  C   UNL     1       3.208   4.514  -2.400  0.00  0.00    +0.000 A 
ATOM     33  H   UNL     1       3.562   5.040   0.826  0.00  0.00    +0.000 HD
ENDBRANCH  20  23
ENDBRANCH  18  19
ENDBRANCH   1  18
TORSDOF 8
