REMARK  Name = 
REMARK  5 active torsions:
REMARK  status: ('A' for Active; 'I' for Inactive)
REMARK    1  A    between atoms: C_2  and  C_18
REMARK    2  A    between atoms: N_3  and  C_4
REMARK    3  A    between atoms: C_4  and  C_5
REMARK    4  A    between atoms: C_8  and  C_9
REMARK    5  A    between atoms: C_9  and  C_10
REMARK                            x       y       z     vdW  Elec       q    Type
REMARK                         _______ _______ _______ _____ _____    ______ ____
ROOT
ATOM      1  O   UNL     1       1.086   3.025  -1.097  0.00  0.00    +0.000 OA
ATOM      2  C   UNL     1       1.997   2.208  -1.193  0.00  0.00    +0.000 C 
ATOM      3  N   UNL     1       2.639   1.693  -0.097  0.00  0.00    +0.000 N 
ATOM      4  H   UNL     1       3.487   1.152  -0.226  0.00  0.00    +0.000 HD
ENDROOT
BRANCH   2   5
ATOM      5  C   UNL     1       2.420   1.684  -2.497  0.00  0.00    +0.000 A 
ATOM      6  C   UNL     1       1.556   1.761  -3.581  0.00  0.00    +0.000 A 
ATOM      7  S   UNL     1       2.198   1.103  -5.017  0.00  0.00    +0.000 S 
ATOM      8  C   UNL     1       3.673   0.731  -4.253  0.00  0.00    +0.000 A 
ATOM      9  N   UNL     1       4.697   0.171  -4.947  0.00  0.00    +0.000 NA
ATOM     10  C   UNL     1       5.772  -0.020  -4.256  0.00  0.00    +0.000 A 
ATOM     11  N   UNL     1       5.906   0.286  -2.926  0.00  0.00    +0.000 N 
ATOM     12  C   UNL     1       4.872   0.777  -2.165  0.00  0.00    +0.000 A 
ATOM     13  O   UNL     1       4.981   0.901  -0.949  0.00  0.00    +0.000 OA
ATOM     14  C   UNL     1       3.662   1.069  -2.910  0.00  0.00    +0.000 A 
ATOM     15  H   UNL     1       6.763   0.075  -2.435  0.00  0.00    +0.000 HD
ENDBRANCH   2   5
BRANCH   3  16
ATOM     16  C   UNL     1       2.341   2.115   1.247  0.00  0.00    +0.000 C 
BRANCH  16  17
ATOM     17  C   UNL     1       3.278   3.189   1.713  0.00  0.00    +0.000 A 
ATOM     18  C   UNL     1       3.013   4.537   1.473  0.00  0.00    +0.000 A 
ATOM     19  C   UNL     1       3.877   5.511   1.967  0.00  0.00    +0.000 A 
ATOM     20  C   UNL     1       5.007   5.111   2.675  0.00  0.00    +0.000 A 
ATOM     21  N   UNL     1       5.310   3.803   2.883  0.00  0.00    +0.000 NA
ATOM     22  C   UNL     1       4.448   2.881   2.397  0.00  0.00    +0.000 A 
BRANCH  20  23
ATOM     23  C   UNL     1       5.907   6.141   3.319  0.00  0.00    +0.000 C 
BRANCH  23  24
ATOM     24  C   UNL     1       5.430   6.551   4.695  0.00  0.00    +0.000 A 
ATOM     25  C   UNL     1       5.386   5.618   5.732  0.00  0.00    +0.000 A 
ATOM     26  C   UNL     1       4.890   6.009   6.972  0.00  0.00    +0.000 A 
ATOM     27  C   UNL     1       4.468   7.319   7.153  0.00  0.00    +0.000 A 
ATOM     28  C   UNL     1       4.568   8.190   6.081  0.00  0.00    +0.000 A 
ATOM     29  N   UNL     1       5.034   7.839   4.861  0.00  0.00    +0.000 NA
ENDBRANCH  23  24
ENDBRANCH  20  23
ENDBRANCH  16  17
ENDBRANCH   3  16
TORSDOF 5
