REMARK  Name = 
REMARK  7 active torsions:
REMARK  status: ('A' for Active; 'I' for Inactive)
REMARK    1  A    between atoms: C_1  and  C_2
REMARK    2  A    between atoms: C_2  and  C_3
REMARK    3  A    between atoms: C_2  and  C_4
REMARK    4  A    between atoms: C_2  and  C_15
REMARK    5  A    between atoms: C_5  and  C_6
REMARK    6  A    between atoms: C_9  and  C_10
REMARK    7  A    between atoms: C_20  and  C_21
REMARK                            x       y       z     vdW  Elec       q    Type
REMARK                         _______ _______ _______ _____ _____    ______ ____
ROOT
ATOM      1  C   UNL     1       0.909   0.010   0.101  0.00  0.00    +0.000 C 
ATOM      2  C   UNL     1       2.451   0.077   0.004  0.00  0.00    +0.000 C 
ATOM      3  C   UNL     1       2.966   0.626   1.361  0.00  0.00    +0.000 C 
ENDROOT
BRANCH   2   4
ATOM      4  C   UNL     1       2.933   1.009  -1.129  0.00  0.00    +0.000 A 
ATOM      5  C   UNL     1       2.042   1.681  -1.978  0.00  0.00    +0.000 A 
ATOM      6  C   UNL     1       2.500   2.547  -2.974  0.00  0.00    +0.000 A 
ATOM      7  C   UNL     1       3.865   2.779  -3.148  0.00  0.00    +0.000 A 
ATOM      8 CL   UNL     1       4.297   3.876  -4.406  0.00  0.00    +0.000 Cl
ATOM      9  C   UNL     1       4.792   2.138  -2.324  0.00  0.00    +0.000 A 
ATOM     10  C   UNL     1       4.308   1.248  -1.331  0.00  0.00    +0.000 A 
BRANCH   9  11
ATOM     11  C   UNL     1       6.282   2.352  -2.397  0.00  0.00    +0.000 C 
ATOM     12  F   UNL     1       6.729   3.208  -3.352  0.00  0.00    +0.000 F 
ATOM     13  F   UNL     1       6.776   2.836  -1.220  0.00  0.00    +0.000 F 
ATOM     14  F   UNL     1       6.951   1.184  -2.617  0.00  0.00    +0.000 F 
ENDBRANCH   9  11
ENDBRANCH   2   4
BRANCH   2  15
ATOM     15  C   UNL     1       2.953  -1.361  -0.121  0.00  0.00    +0.000 C 
ATOM     16  C   UNL     1       3.245  -2.055  -1.238  0.00  0.00    +0.000 C 
BRANCH  16  17
ATOM     17  C   UNL     1       3.721  -3.451  -1.207  0.00  0.00    +0.000 A 
ATOM     18  C   UNL     1       3.988  -4.161  -2.379  0.00  0.00    +0.000 A 
ATOM     19  N   UNL     1       4.423  -5.453  -2.398  0.00  0.00    +0.000 NA
ATOM     20  C   UNL     1       4.585  -6.013  -1.166  0.00  0.00    +0.000 A 
ATOM     21  C   UNL     1       4.328  -5.319   0.005  0.00  0.00    +0.000 A 
ATOM     22  N   UNL     1       3.893  -4.032   0.009  0.00  0.00    +0.000 NA
BRANCH  20  23
ATOM     23  C   UNL     1       5.051  -7.425  -1.092  0.00  0.00    +0.000 C 
ATOM     24  N   UNL     1       5.280  -8.056  -2.284  0.00  0.00    +0.000 N 
ATOM     25  O   UNL     1       5.222  -7.998  -0.021  0.00  0.00    +0.000 OA
ATOM     26  H   UNL     1       5.132  -7.566  -3.161  0.00  0.00    +0.000 HD
ATOM     27  H   UNL     1       5.595  -9.015  -2.283  0.00  0.00    +0.000 HD
ENDBRANCH  20  23
ENDBRANCH  16  17
ENDBRANCH   2  15
TORSDOF 5
