REMARK  Name = 
REMARK  5 active torsions:
REMARK  status: ('A' for Active; 'I' for Inactive)
REMARK    1  A    between atoms: C_2  and  C_4
REMARK    2  A    between atoms: C_4  and  O_5
REMARK    3  A    between atoms: O_5  and  C_6
REMARK    4  A    between atoms: C_9  and  C_10
REMARK    5  A    between atoms: C_10  and  N_11
REMARK                            x       y       z     vdW  Elec       q    Type
REMARK                         _______ _______ _______ _____ _____    ______ ____
ROOT
ATOM      1  C   UNL     1       5.416   1.651  -1.198  0.00  0.00    +0.000 A 
ATOM      2  C   UNL     1       5.116   2.992  -0.954  0.00  0.00    +0.000 A 
ATOM      3  C   UNL     1       5.995   4.000  -1.364  0.00  0.00    +0.000 A 
ATOM      4  C   UNL     1       7.187   3.675  -2.024  0.00  0.00    +0.000 A 
ATOM      5  C   UNL     1       7.508   2.324  -2.212  0.00  0.00    +0.000 A 
ATOM      6  C   UNL     1       6.633   1.319  -1.794  0.00  0.00    +0.000 A 
ENDROOT
BRANCH   1   7
ATOM      7  O   UNL     1       4.461   0.748  -0.815  0.00  0.00    +0.000 OA
BRANCH   7   8
ATOM      8  C   UNL     1       4.508  -0.504  -1.501  0.00  0.00    +0.000 C 
BRANCH   8  10
ATOM      9  N   UNL     1       2.235  -0.700  -0.601  0.00  0.00    +0.000 N 
ATOM     10  C   UNL     1       3.195  -1.272  -1.381  0.00  0.00    +0.000 C 
ATOM     11  O   UNL     1       2.996  -2.344  -1.946  0.00  0.00    +0.000 OA
ATOM     12  H   UNL     1       1.338  -1.156  -0.514  0.00  0.00    +0.000 HD
ATOM     13  H   UNL     1       2.394   0.201  -0.167  0.00  0.00    +0.000 HD
ENDBRANCH   8  10
ENDBRANCH   7   8
ENDBRANCH   1   7
BRANCH   4  14
ATOM     14  C   UNL     1       8.105   4.753  -2.540  0.00  0.00    +0.000 C 
BRANCH  14  15
ATOM     15  N   UNL     1       9.129   5.122  -1.576  0.00  0.00    +0.000 N 
ATOM     16  C   UNL     1      10.345   4.495  -1.427  0.00  0.00    +0.000 A 
ATOM     17  C   UNL     1      11.091   5.225  -0.527  0.00  0.00    +0.000 A 
ATOM     18  C   UNL     1      10.308   6.339  -0.123  0.00  0.00    +0.000 A 
ATOM     19  C   UNL     1      10.503   7.442   0.724  0.00  0.00    +0.000 A 
ATOM     20  C   UNL     1       9.456   8.355   0.848  0.00  0.00    +0.000 A 
ATOM     21  C   UNL     1       8.281   8.133   0.142  0.00  0.00    +0.000 A 
ATOM     22  N   UNL     1       8.043   7.094  -0.689  0.00  0.00    +0.000 NA
ATOM     23  C   UNL     1       9.084   6.240  -0.781  0.00  0.00    +0.000 A 
ENDBRANCH  14  15
ENDBRANCH   4  14
TORSDOF 5
