REMARK  Name = 
REMARK  4 active torsions:
REMARK  status: ('A' for Active; 'I' for Inactive)
REMARK    1  A    between atoms: C_1  and  C_2
REMARK    2  A    between atoms: N_6  and  C_7
REMARK    3  A    between atoms: C_7  and  C_8
REMARK    4  A    between atoms: C_12  and  C_13
REMARK                            x       y       z     vdW  Elec       q    Type
REMARK                         _______ _______ _______ _____ _____    ______ ____
ROOT
ATOM      1  C   UNL     1       5.293  -0.975  -0.088  0.00  0.00    +0.000 A 
ATOM      2  C   UNL     1       5.815   0.318  -0.180  0.00  0.00    +0.000 A 
ATOM      3  C   UNL     1       7.188   0.525  -0.071  0.00  0.00    +0.000 A 
ATOM      4  C   UNL     1       8.051  -0.558   0.130  0.00  0.00    +0.000 A 
ATOM      5  C   UNL     1       7.567  -1.874   0.229  0.00  0.00    +0.000 A 
ATOM      6  C   UNL     1       6.177  -2.055   0.097  0.00  0.00    +0.000 A 
ENDROOT
BRANCH   5   7
ATOM      7  C   UNL     1       8.471  -3.019   0.496  0.00  0.00    +0.000 A 
ATOM      8  C   UNL     1       8.219  -4.300  -0.034  0.00  0.00    +0.000 A 
ATOM      9  C   UNL     1       9.056  -5.389   0.238  0.00  0.00    +0.000 A 
ATOM     10  C   UNL     1      10.178  -5.217   1.042  0.00  0.00    +0.000 A 
ATOM     11  C   UNL     1      10.444  -3.963   1.570  0.00  0.00    +0.000 A 
ATOM     12  F   UNL     1      11.522  -3.791   2.348  0.00  0.00    +0.000 F 
ATOM     13  C   UNL     1       9.608  -2.879   1.313  0.00  0.00    +0.000 A 
ENDBRANCH   5   7
BRANCH   1  14
ATOM     14  C   UNL     1       3.803  -1.226  -0.131  0.00  0.00    +0.000 C 
BRANCH  14  20
ATOM     15  C   UNL     1      -2.184  -2.296  -1.776  0.00  0.00    +0.000 C 
ATOM     16  C   UNL     1      -0.709  -2.095  -1.725  0.00  0.00    +0.000 A 
ATOM     17  C   UNL     1       0.015  -1.473  -2.716  0.00  0.00    +0.000 A 
ATOM     18  N   UNL     1       1.347  -1.257  -2.654  0.00  0.00    +0.000 NA
ATOM     19  C   UNL     1       1.983  -1.697  -1.560  0.00  0.00    +0.000 A 
ATOM     20  N   UNL     1       3.351  -1.450  -1.489  0.00  0.00    +0.000 N 
ATOM     21  N   UNL     1       1.368  -2.325  -0.548  0.00  0.00    +0.000 NA
ATOM     22  C   UNL     1       0.042  -2.509  -0.653  0.00  0.00    +0.000 A 
ATOM     23  H   UNL     1       3.552  -0.704  -2.147  0.00  0.00    +0.000 HD
ENDBRANCH  14  20
ENDBRANCH   1  14
TORSDOF 3
