REMARK  Name = 
REMARK  6 active torsions:
REMARK  status: ('A' for Active; 'I' for Inactive)
REMARK    1  A    between atoms: C_2  and  C_3
REMARK    2  A    between atoms: C_6  and  N_7
REMARK    3  A    between atoms: N_7  and  C_8
REMARK    4  A    between atoms: C_8  and  C_9
REMARK    5  A    between atoms: C_12  and  O_13
REMARK    6  A    between atoms: O_13  and  C_14
REMARK                            x       y       z     vdW  Elec       q    Type
REMARK                         _______ _______ _______ _____ _____    ______ ____
ROOT
ATOM      1  C   UNL     1       3.533   2.738   0.314  0.00  0.00    +0.000 C 
ATOM      2  C   UNL     1       3.359   4.170   0.798  0.00  0.00    +0.000 C 
ATOM      3  C   UNL     1       2.884   3.802  -0.567  0.00  0.00    +0.000 C 
ENDROOT
BRANCH   1   4
ATOM      4  C   UNL     1       4.944   2.299  -0.080  0.00  0.00    +0.000 A 
ATOM      5  C   UNL     1       5.189   1.566  -1.252  0.00  0.00    +0.000 A 
ATOM      6  C   UNL     1       6.492   1.356  -1.721  0.00  0.00    +0.000 A 
ATOM      7  C   UNL     1       7.577   1.899  -1.037  0.00  0.00    +0.000 A 
ATOM      8  C   UNL     1       7.366   2.501   0.198  0.00  0.00    +0.000 A 
ATOM      9  C   UNL     1       6.068   2.694   0.668  0.00  0.00    +0.000 A 
BRANCH   7  10
ATOM     10  O   UNL     1       8.871   1.853  -1.453  0.00  0.00    +0.000 OA
BRANCH  10  11
ATOM     11  C   UNL     1       9.134   2.080  -2.834  0.00  0.00    +0.000 C 
ATOM     12  F   UNL     1       8.038   2.311  -3.587  0.00  0.00    +0.000 F 
ATOM     13  F   UNL     1       9.950   3.153  -2.953  0.00  0.00    +0.000 F 
ATOM     14  F   UNL     1       9.779   1.004  -3.334  0.00  0.00    +0.000 F 
ENDBRANCH  10  11
ENDBRANCH   7  10
ENDBRANCH   1   4
BRANCH   1  15
ATOM     15  N   UNL     1       2.645   1.667   0.798  0.00  0.00    +0.000 N 
ATOM     16  H   UNL     1       1.780   1.510   0.284  0.00  0.00    +0.000 HD
BRANCH  15  20
ATOM     17  C   UNL     1       2.276   0.403   4.821  0.00  0.00    +0.000 A 
ATOM     18  C   UNL     1       3.350   1.217   4.443  0.00  0.00    +0.000 A 
ATOM     19  C   UNL     1       3.469   1.657   3.123  0.00  0.00    +0.000 A 
ATOM     20  C   UNL     1       2.520   1.310   2.157  0.00  0.00    +0.000 A 
ATOM     21  C   UNL     1       1.454   0.490   2.562  0.00  0.00    +0.000 A 
ATOM     22  F   UNL     1       0.523   0.130   1.662  0.00  0.00    +0.000 F 
ATOM     23  C   UNL     1       1.320   0.043   3.875  0.00  0.00    +0.000 A 
BRANCH  17  25
ATOM     24  N   UNL     1       2.089  -0.422   7.268  0.00  0.00    +0.000 NA
ATOM     25  C   UNL     1       2.168  -0.053   6.173  0.00  0.00    +0.000 C 
ENDBRANCH  17  25
ENDBRANCH  15  20
ENDBRANCH   1  15
TORSDOF 6
