REMARK  Name = 
REMARK  8 active torsions:
REMARK  status: ('A' for Active; 'I' for Inactive)
REMARK    1  A    between atoms: C_1  and  C_2
REMARK    2  A    between atoms: C_2  and  N_3
REMARK    3  A    between atoms: N_3  and  C_4
REMARK    4  A    between atoms: C_4  and  C_5
REMARK    5  A    between atoms: C_8  and  C_9
REMARK    6  A    between atoms: C_9  and  N_10
REMARK    7  A    between atoms: C_11  and  C_13
REMARK    8  A    between atoms: C_25  and  C_27
REMARK                            x       y       z     vdW  Elec       q    Type
REMARK                         _______ _______ _______ _____ _____    ______ ____
ROOT
ATOM      1  C   UNL     1       0.390   1.621  -1.485  0.00  0.00    +0.000 A 
ATOM      2  C   UNL     1      -0.043   0.323  -1.798  0.00  0.00    +0.000 A 
ATOM      3  C   UNL     1      -1.316  -0.112  -1.428  0.00  0.00    +0.000 A 
ATOM      4  C   UNL     1      -2.190   0.751  -0.756  0.00  0.00    +0.000 A 
ATOM      5  C   UNL     1      -1.789   2.074  -0.522  0.00  0.00    +0.000 A 
ATOM      6  C   UNL     1      -0.512   2.511  -0.891  0.00  0.00    +0.000 A 
ENDROOT
BRANCH   1   7
ATOM      7  C   UNL     1       1.860   1.948  -1.569  0.00  0.00    +0.000 C 
BRANCH   7   8
ATOM      8  N   UNL     1       2.421   2.685  -2.698  0.00  0.00    +0.000 N 
ATOM      9  C   UNL     1       3.754   3.156  -2.661  0.00  0.00    +0.000 C 
ATOM     10  O   UNL     1       4.189   3.868  -3.568  0.00  0.00    +0.000 OA
BRANCH   9  11
ATOM     11  C   UNL     1       4.603   2.810  -1.520  0.00  0.00    +0.000 A 
ATOM     12  C   UNL     1       5.676   3.477  -0.954  0.00  0.00    +0.000 A 
ATOM     13  C   UNL     1       6.140   2.689   0.128  0.00  0.00    +0.000 A 
ATOM     14  C   UNL     1       5.353   1.562   0.141  0.00  0.00    +0.000 A 
ATOM     15  O   UNL     1       4.442   1.619  -0.858  0.00  0.00    +0.000 OA
ENDBRANCH   9  11
BRANCH   8  17
ATOM     16  C   UNL     1       1.075   4.240  -4.101  0.00  0.00    +0.000 C 
ATOM     17  C   UNL     1       1.666   2.846  -3.940  0.00  0.00    +0.000 C 
ENDBRANCH   8  17
ENDBRANCH   7   8
ENDBRANCH   1   7
BRANCH   4  18
ATOM     18  C   UNL     1      -3.494   0.240  -0.201  0.00  0.00    +0.000 C 
BRANCH  18  19
ATOM     19  N   UNL     1      -3.325  -0.274   1.140  0.00  0.00    +0.000 N 
ATOM     20  C   UNL     1      -4.365  -0.881   1.797  0.00  0.00    +0.000 C 
ATOM     21  O   UNL     1      -5.458  -1.043   1.259  0.00  0.00    +0.000 OA
ATOM     22  H   UNL     1      -2.509   0.033   1.663  0.00  0.00    +0.000 HD
BRANCH  20  23
ATOM     23  C   UNL     1      -4.105  -1.384   3.152  0.00  0.00    +0.000 A 
ATOM     24  C   UNL     1      -4.910  -2.391   3.671  0.00  0.00    +0.000 A 
ATOM     25  S   UNL     1      -4.465  -2.892   5.238  0.00  0.00    +0.000 S 
ATOM     26  C   UNL     1      -3.210  -1.746   5.304  0.00  0.00    +0.000 A 
ATOM     27  N   UNL     1      -2.438  -1.623   6.417  0.00  0.00    +0.000 NA
ATOM     28  C   UNL     1      -1.550  -0.689   6.349  0.00  0.00    +0.000 A 
ATOM     29  N   UNL     1      -1.357   0.127   5.265  0.00  0.00    +0.000 N 
ATOM     30  C   UNL     1      -2.086   0.009   4.102  0.00  0.00    +0.000 A 
ATOM     31  O   UNL     1      -1.849   0.713   3.129  0.00  0.00    +0.000 OA
ATOM     32  C   UNL     1      -3.116  -1.010   4.135  0.00  0.00    +0.000 A 
ATOM     33  H   UNL     1      -0.636   0.832   5.272  0.00  0.00    +0.000 HD
ENDBRANCH  20  23
ENDBRANCH  18  19
ENDBRANCH   4  18
TORSDOF 7
