REMARK  Name = 
REMARK  6 active torsions:
REMARK  status: ('A' for Active; 'I' for Inactive)
REMARK    1  A    between atoms: C_2  and  C_3
REMARK    2  A    between atoms: C_7  and  C_8
REMARK    3  A    between atoms: C_8  and  C_9
REMARK    4  A    between atoms: C_12  and  C_13
REMARK    5  A    between atoms: C_13  and  N_14
REMARK    6  A    between atoms: C_15  and  C_17
REMARK                            x       y       z     vdW  Elec       q    Type
REMARK                         _______ _______ _______ _____ _____    ______ ____
ROOT
ATOM      1  C   UNL     1       8.064   1.669   0.245  0.00  0.00    +0.000 C 
ENDROOT
BRANCH   1   5
ATOM      2  C   UNL     1       3.844   2.299   0.065  0.00  0.00    +0.000 A 
ATOM      3  C   UNL     1       4.477   1.608  -0.970  0.00  0.00    +0.000 A 
ATOM      4  C   UNL     1       5.852   1.391  -0.920  0.00  0.00    +0.000 A 
ATOM      5  C   UNL     1       6.573   1.889   0.161  0.00  0.00    +0.000 A 
ATOM      6  N   UNL     1       5.981   2.565   1.180  0.00  0.00    +0.000 NA
ATOM      7  C   UNL     1       4.642   2.745   1.112  0.00  0.00    +0.000 A 
BRANCH   2   8
ATOM      8  C   UNL     1       2.353   2.499   0.079  0.00  0.00    +0.000 C 
BRANCH   8  13
ATOM      9  C   UNL     1       0.610  -0.860   0.612  0.00  0.00    +0.000 A 
ATOM     10  C   UNL     1       0.343  -0.818   1.984  0.00  0.00    +0.000 A 
ATOM     11  C   UNL     1       0.702   0.304   2.731  0.00  0.00    +0.000 A 
ATOM     12  C   UNL     1       1.334   1.384   2.114  0.00  0.00    +0.000 A 
ATOM     13  C   UNL     1       1.614   1.356   0.740  0.00  0.00    +0.000 A 
ATOM     14  C   UNL     1       1.246   0.225  -0.005  0.00  0.00    +0.000 A 
BRANCH   9  16
ATOM     15  N   UNL     1      -0.064  -2.939  -0.786  0.00  0.00    +0.000 NA
ATOM     16  C   UNL     1       0.240  -2.009  -0.159  0.00  0.00    +0.000 C 
ENDBRANCH   9  16
ENDBRANCH   8  13
ENDBRANCH   2   8
ENDBRANCH   1   5
BRANCH   1  17
ATOM     17  N   UNL     1       8.407   0.465   0.967  0.00  0.00    +0.000 N 
ATOM     18  C   UNL     1       8.685  -0.719   0.343  0.00  0.00    +0.000 C 
ATOM     19  O   UNL     1       8.647  -0.837  -0.880  0.00  0.00    +0.000 OA
ATOM     20  H   UNL     1       8.209   0.479   1.964  0.00  0.00    +0.000 HD
BRANCH  18  21
ATOM     21  C   UNL     1       9.117  -1.828   1.206  0.00  0.00    +0.000 A 
ATOM     22  C   UNL     1       9.874  -2.862   0.671  0.00  0.00    +0.000 A 
ATOM     23  S   UNL     1      10.350  -4.028   1.821  0.00  0.00    +0.000 S 
ATOM     24  C   UNL     1       9.522  -3.218   3.066  0.00  0.00    +0.000 A 
ATOM     25  N   UNL     1       9.515  -3.707   4.336  0.00  0.00    +0.000 NA
ATOM     26  C   UNL     1       8.821  -3.011   5.172  0.00  0.00    +0.000 A 
ATOM     27  N   UNL     1       8.137  -1.866   4.856  0.00  0.00    +0.000 N 
ATOM     28  C   UNL     1       8.156  -1.309   3.600  0.00  0.00    +0.000 A 
ATOM     29  O   UNL     1       7.600  -0.241   3.372  0.00  0.00    +0.000 OA
ATOM     30  C   UNL     1       8.903  -2.066   2.614  0.00  0.00    +0.000 A 
ATOM     31  H   UNL     1       7.624  -1.356   5.560  0.00  0.00    +0.000 HD
ENDBRANCH  18  21
ENDBRANCH   1  17
TORSDOF 6
