REMARK  Name = 
REMARK  5 active torsions:
REMARK  status: ('A' for Active; 'I' for Inactive)
REMARK    1  A    between atoms: N_1  and  C_2
REMARK    2  A    between atoms: C_2  and  C_3
REMARK    3  A    between atoms: C_6  and  C_7
REMARK    4  A    between atoms: C_7  and  N_8
REMARK    5  A    between atoms: C_13  and  C_14
REMARK                            x       y       z     vdW  Elec       q    Type
REMARK                         _______ _______ _______ _____ _____    ______ ____
ROOT
ATOM      1  N   UNL     1       4.609  -0.181  -6.082  0.00  0.00    +0.000 N 
ATOM      2  N   UNL     1       3.772   0.495  -6.898  0.00  0.00    +0.000 NA
ATOM      3  N   UNL     1       4.467   1.471  -7.466  0.00  0.00    +0.000 NA
ATOM      4  C   UNL     1       5.761   1.385  -7.027  0.00  0.00    +0.000 A 
ATOM      5  C   UNL     1       6.876   2.180  -7.333  0.00  0.00    +0.000 A 
ATOM      6  C   UNL     1       8.107   1.862  -6.740  0.00  0.00    +0.000 A 
ATOM      7  C   UNL     1       8.205   0.760  -5.870  0.00  0.00    +0.000 A 
ATOM      8  C   UNL     1       7.098  -0.038  -5.551  0.00  0.00    +0.000 A 
ATOM      9  C   UNL     1       5.887   0.314  -6.149  0.00  0.00    +0.000 A 
ENDROOT
BRANCH   6  10
ATOM     10  C   UNL     1       9.347   2.655  -6.984  0.00  0.00    +0.000 C 
ATOM     11  N   UNL     1       9.288   3.735  -7.819  0.00  0.00    +0.000 N 
ATOM     12  O   UNL     1      10.409   2.357  -6.448  0.00  0.00    +0.000 OA
ATOM     13  H   UNL     1       8.466   4.064  -8.299  0.00  0.00    +0.000 HD
ATOM     14  H   UNL     1      10.147   4.254  -7.947  0.00  0.00    +0.000 HD
ENDBRANCH   6  10
BRANCH   1  15
ATOM     15  C   UNL     1       4.112  -1.300  -5.305  0.00  0.00    +0.000 C 
BRANCH  15  19
ATOM     16  C   UNL     1       2.687  -0.108  -1.464  0.00  0.00    +0.000 A 
ATOM     17  C   UNL     1       3.710  -1.049  -1.531  0.00  0.00    +0.000 A 
ATOM     18  C   UNL     1       4.192  -1.439  -2.780  0.00  0.00    +0.000 A 
ATOM     19  C   UNL     1       3.644  -0.883  -3.939  0.00  0.00    +0.000 A 
ATOM     20  C   UNL     1       2.618   0.043  -3.774  0.00  0.00    +0.000 A 
ATOM     21  N   UNL     1       2.137   0.441  -2.574  0.00  0.00    +0.000 NA
BRANCH  16  22
ATOM     22  C   UNL     1       2.167   0.364  -0.123  0.00  0.00    +0.000 C 
BRANCH  22  23
ATOM     23  N   UNL     1       3.197   1.050   0.666  0.00  0.00    +0.000 NA
ATOM     24  H   UNL     1       2.752   1.475   1.477  0.00  0.00    +0.000 HD
ATOM     25  H   UNL     1       3.546   1.828   0.103  0.00  0.00    +0.000 HD
ENDBRANCH  22  23
ENDBRANCH  16  22
ENDBRANCH  15  19
ENDBRANCH   1  15
TORSDOF 5
