REMARK  Name = 
REMARK  5 active torsions:
REMARK  status: ('A' for Active; 'I' for Inactive)
REMARK    1  A    between atoms: N_1  and  C_2
REMARK    2  A    between atoms: C_2  and  C_3
REMARK    3  A    between atoms: C_6  and  N_7
REMARK    4  A    between atoms: N_7  and  C_8
REMARK    5  A    between atoms: C_8  and  C_9
REMARK                            x       y       z     vdW  Elec       q    Type
REMARK                         _______ _______ _______ _____ _____    ______ ____
ROOT
ATOM      1  C   UNL     1       3.035   0.893  -1.107  0.00  0.00    +0.000 A 
ATOM      2  N   UNL     1       3.305   2.223  -0.996  0.00  0.00    +0.000 NA
ATOM      3  C   UNL     1       3.619   2.900  -2.129  0.00  0.00    +0.000 A 
ATOM      4  C   UNL     1       3.732   2.344  -3.405  0.00  0.00    +0.000 A 
ATOM      5  C   UNL     1       3.456   0.978  -3.483  0.00  0.00    +0.000 A 
ATOM      6  C   UNL     1       3.120   0.237  -2.337  0.00  0.00    +0.000 A 
ATOM      7  I   UNL     1       2.737  -1.805  -2.605  0.00  0.00    +0.000 I 
ENDROOT
BRANCH   4   8
ATOM      8  N   UNL     1       3.947   3.157  -4.516  0.00  0.00    +0.000 N 
ATOM      9  H   UNL     1       4.245   4.100  -4.278  0.00  0.00    +0.000 HD
BRANCH   8  10
ATOM     10  C   UNL     1       4.651   2.666  -5.695  0.00  0.00    +0.000 C 
BRANCH  10  11
ATOM     11  C   UNL     1       4.161   3.406  -6.920  0.00  0.00    +0.000 A 
ATOM     12  C   UNL     1       5.038   4.147  -7.724  0.00  0.00    +0.000 A 
ATOM     13  C   UNL     1       4.575   4.774  -8.884  0.00  0.00    +0.000 A 
ATOM     14  C   UNL     1       3.234   4.668  -9.253  0.00  0.00    +0.000 A 
ATOM     15  C   UNL     1       2.351   3.941  -8.458  0.00  0.00    +0.000 A 
ATOM     16  C   UNL     1       2.811   3.314  -7.300  0.00  0.00    +0.000 A 
ENDBRANCH  10  11
ENDBRANCH   8  10
ENDBRANCH   4   8
BRANCH   1  17
ATOM     17  C   UNL     1       2.650   0.216   0.190  0.00  0.00    +0.000 C 
BRANCH  17  18
ATOM     18  N   UNL     1       3.806  -0.309   0.922  0.00  0.00    +0.000 NA
ATOM     19  H   UNL     1       3.500  -0.599   1.848  0.00  0.00    +0.000 HD
ATOM     20  H   UNL     1       4.448   0.472   1.072  0.00  0.00    +0.000 HD
ENDBRANCH  17  18
ENDBRANCH   1  17
TORSDOF 5
