REMARK  Name = 
REMARK  7 active torsions:
REMARK  status: ('A' for Active; 'I' for Inactive)
REMARK    1  A    between atoms: C_1  and  C_2
REMARK    2  A    between atoms: C_2  and  C_3
REMARK    3  A    between atoms: C_7  and  C_8
REMARK    4  A    between atoms: C_8  and  C_9
REMARK    5  A    between atoms: C_9  and  N_10
REMARK    6  A    between atoms: C_14  and  C_15
REMARK    7  A    between atoms: C_23  and  N_24
REMARK                            x       y       z     vdW  Elec       q    Type
REMARK                         _______ _______ _______ _____ _____    ______ ____
ROOT
ATOM      1  C   UNL     1       2.803   0.108  -1.447  0.00  0.00    +0.000 A 
ATOM      2  C   UNL     1       2.492  -0.943  -2.325  0.00  0.00    +0.000 A 
ATOM      3  C   UNL     1       2.784  -0.856  -3.684  0.00  0.00    +0.000 A 
ATOM      4  C   UNL     1       3.383   0.291  -4.200  0.00  0.00    +0.000 A 
ATOM      5  C   UNL     1       3.664   1.379  -3.364  0.00  0.00    +0.000 A 
ATOM      6  C   UNL     1       3.376   1.264  -2.000  0.00  0.00    +0.000 A 
ENDROOT
BRANCH   1   8
ATOM      7  C   UNL     1       0.897  -0.137   0.105  0.00  0.00    +0.000 C 
ATOM      8  C   UNL     1       2.432   0.002   0.039  0.00  0.00    +0.000 C 
ATOM      9  C   UNL     1       3.127  -1.204   0.729  0.00  0.00    +0.000 C 
ATOM     10  C   UNL     1       4.317  -0.658   1.534  0.00  0.00    +0.000 C 
ATOM     11  C   UNL     1       4.345   0.854   1.327  0.00  0.00    +0.000 C 
ATOM     12  C   UNL     1       2.896   1.174   0.938  0.00  0.00    +0.000 C 
BRANCH  11  13
ATOM     13  N   UNL     1       5.339   1.216   0.315  0.00  0.00    +0.000 NA
ATOM     14  H   UNL     1       5.195   0.659  -0.527  0.00  0.00    +0.000 HD
ATOM     15  H   UNL     1       6.268   0.947   0.636  0.00  0.00    +0.000 HD
ENDBRANCH  11  13
ENDBRANCH   1   8
BRANCH   5  16
ATOM     16  C   UNL     1       4.184   2.704  -3.882  0.00  0.00    +0.000 C 
BRANCH  16  17
ATOM     17  C   UNL     1       5.526   2.588  -4.590  0.00  0.00    +0.000 C 
BRANCH  17  18
ATOM     18  N   UNL     1       6.002   3.893  -5.070  0.00  0.00    +0.000 N 
ATOM     19  C   UNL     1       7.247   3.760  -5.737  0.00  0.00    +0.000 A 
ATOM     20  C   UNL     1       7.876   4.880  -6.265  0.00  0.00    +0.000 A 
ATOM     21  C   UNL     1       9.109   4.717  -6.899  0.00  0.00    +0.000 A 
ATOM     22  C   UNL     1       9.683   3.443  -6.975  0.00  0.00    +0.000 A 
ATOM     23  C   UNL     1       8.986   2.397  -6.431  0.00  0.00    +0.000 A 
ATOM     24  N   UNL     1       7.790   2.533  -5.827  0.00  0.00    +0.000 NA
ATOM     25  H   UNL     1       6.145   4.560  -4.314  0.00  0.00    +0.000 HD
BRANCH  22  26
ATOM     26  C   UNL     1      11.010   3.307  -7.630  0.00  0.00    +0.000 C 
ATOM     27  N   UNL     1      11.586   2.070  -7.700  0.00  0.00    +0.000 N 
ATOM     28  O   UNL     1      11.598   4.278  -8.090  0.00  0.00    +0.000 OA
ATOM     29  H   UNL     1      11.195   1.209  -7.358  0.00  0.00    +0.000 HD
ATOM     30  H   UNL     1      12.500   2.024  -8.140  0.00  0.00    +0.000 HD
ENDBRANCH  22  26
ENDBRANCH  17  18
ENDBRANCH  16  17
ENDBRANCH   5  16
TORSDOF 6
