REMARK  Name = 
REMARK  8 active torsions:
REMARK  status: ('A' for Active; 'I' for Inactive)
REMARK    1  A    between atoms: C_1  and  O_2
REMARK    2  A    between atoms: O_2  and  C_3
REMARK    3  A    between atoms: C_8  and  C_9
REMARK    4  A    between atoms: N_11  and  C_12
REMARK    5  A    between atoms: C_12  and  C_13
REMARK    6  A    between atoms: C_16  and  C_17
REMARK    7  A    between atoms: C_17  and  N_18
REMARK    8  A    between atoms: C_19  and  C_21
REMARK                            x       y       z     vdW  Elec       q    Type
REMARK                         _______ _______ _______ _____ _____    ______ ____
ROOT
ATOM      1  C   UNL     1       3.037   0.165  -4.316  0.00  0.00    +0.000 A 
ATOM      2  C   UNL     1       3.185  -1.223  -4.441  0.00  0.00    +0.000 A 
ATOM      3  C   UNL     1       2.249  -1.981  -5.159  0.00  0.00    +0.000 A 
ATOM      4  C   UNL     1       1.157  -1.364  -5.783  0.00  0.00    +0.000 A 
ATOM      5  C   UNL     1       1.004   0.023  -5.643  0.00  0.00    +0.000 A 
ATOM      6  C   UNL     1       1.939   0.781  -4.929  0.00  0.00    +0.000 A 
ENDROOT
BRANCH   1   7
ATOM      7  C   UNL     1       4.058   0.982  -3.563  0.00  0.00    +0.000 C 
BRANCH   7  10
ATOM      8  C   UNL     1       6.199   2.138  -3.945  0.00  0.00    +0.000 C 
ATOM      9  O   UNL     1       6.260   2.503  -2.776  0.00  0.00    +0.000 OA
ATOM     10  N   UNL     1       5.136   1.405  -4.421  0.00  0.00    +0.000 N 
ATOM     11  H   UNL     1       5.132   1.133  -5.398  0.00  0.00    +0.000 HD
BRANCH   8  17
ATOM     12  C   UNL     1       7.349   2.079  -6.261  0.00  0.00    +0.000 A 
ATOM     13  C   UNL     1       8.507   2.336  -7.013  0.00  0.00    +0.000 A 
ATOM     14  C   UNL     1       9.601   2.994  -6.447  0.00  0.00    +0.000 A 
ATOM     15  C   UNL     1       9.550   3.417  -5.125  0.00  0.00    +0.000 A 
ATOM     16  C   UNL     1       8.418   3.145  -4.357  0.00  0.00    +0.000 A 
ATOM     17  C   UNL     1       7.317   2.455  -4.901  0.00  0.00    +0.000 A 
BRANCH  12  19
ATOM     18  C   UNL     1       6.231   1.196  -8.186  0.00  0.00    +0.000 C 
ATOM     19  O   UNL     1       6.234   1.476  -6.790  0.00  0.00    +0.000 OA
ENDBRANCH  12  19
ENDBRANCH   8  17
ENDBRANCH   7  10
ENDBRANCH   1   7
BRANCH   4  20
ATOM     20  C   UNL     1       0.153  -2.159  -6.583  0.00  0.00    +0.000 C 
BRANCH  20  21
ATOM     21  N   UNL     1      -0.945  -2.616  -5.771  0.00  0.00    +0.000 N 
ATOM     22  C   UNL     1      -1.955  -3.387  -6.290  0.00  0.00    +0.000 C 
ATOM     23  O   UNL     1      -1.962  -3.756  -7.459  0.00  0.00    +0.000 OA
ATOM     24  H   UNL     1      -1.106  -2.113  -4.902  0.00  0.00    +0.000 HD
BRANCH  22  25
ATOM     25  C   UNL     1      -3.000  -3.801  -5.345  0.00  0.00    +0.000 A 
ATOM     26  C   UNL     1      -3.721  -4.967  -5.568  0.00  0.00    +0.000 A 
ATOM     27  S   UNL     1      -4.856  -5.315  -4.341  0.00  0.00    +0.000 S 
ATOM     28  C   UNL     1      -4.464  -3.890  -3.496  0.00  0.00    +0.000 A 
ATOM     29  N   UNL     1      -5.107  -3.555  -2.345  0.00  0.00    +0.000 NA
ATOM     30  C   UNL     1      -4.724  -2.435  -1.827  0.00  0.00    +0.000 A 
ATOM     31  N   UNL     1      -3.755  -1.622  -2.351  0.00  0.00    +0.000 N 
ATOM     32  C   UNL     1      -3.058  -1.935  -3.490  0.00  0.00    +0.000 A 
ATOM     33  O   UNL     1      -2.157  -1.212  -3.906  0.00  0.00    +0.000 OA
ATOM     34  C   UNL     1      -3.461  -3.175  -4.125  0.00  0.00    +0.000 A 
ATOM     35  H   UNL     1      -3.492  -0.762  -1.892  0.00  0.00    +0.000 HD
ENDBRANCH  22  25
ENDBRANCH  20  21
ENDBRANCH   4  20
TORSDOF 7
