REMARK  Name = 
REMARK  10 active torsions:
REMARK  status: ('A' for Active; 'I' for Inactive)
REMARK    1  A    between atoms: C_1  and  C_2
REMARK    2  A    between atoms: C_2  and  O_3
REMARK    3  A    between atoms: O_3  and  C_4
REMARK    4  A    between atoms: C_4  and  C_6
REMARK    5  A    between atoms: C_9  and  C_10
REMARK    6  A    between atoms: C_10  and  O_11
REMARK    7  A    between atoms: O_11  and  C_12
REMARK    8  A    between atoms: C_15  and  C_16
REMARK    9  A    between atoms: C_16  and  N_17
REMARK   10  A    between atoms: C_18  and  C_20
REMARK                            x       y       z     vdW  Elec       q    Type
REMARK                         _______ _______ _______ _____ _____    ______ ____
ROOT
ATOM      1  C   UNL     1       5.375   6.039  -7.141  0.00  0.00    +0.000 A 
ATOM      2  C   UNL     1       5.360   5.463  -8.398  0.00  0.00    +0.000 A 
ATOM      3  C   UNL     1       5.514   6.291  -9.506  0.00  0.00    +0.000 A 
ATOM      4  C   UNL     1       5.646   7.671  -9.327  0.00  0.00    +0.000 A 
ATOM      5  C   UNL     1       5.627   8.149  -8.020  0.00  0.00    +0.000 A 
ATOM      6  N   UNL     1       5.493   7.366  -6.924  0.00  0.00    +0.000 NA
ENDROOT
BRANCH   1   7
ATOM      7  O   UNL     1       5.277   5.176  -6.070  0.00  0.00    +0.000 OA
BRANCH   7   8
ATOM      8  C   UNL     1       5.786   5.761  -4.873  0.00  0.00    +0.000 C 
BRANCH   8  12
ATOM      9  C   UNL     1       6.757   2.681  -2.000  0.00  0.00    +0.000 A 
ATOM     10  C   UNL     1       7.277   2.619  -3.297  0.00  0.00    +0.000 A 
ATOM     11  C   UNL     1       6.946   3.605  -4.229  0.00  0.00    +0.000 A 
ATOM     12  C   UNL     1       6.090   4.662  -3.880  0.00  0.00    +0.000 A 
ATOM     13  C   UNL     1       5.571   4.717  -2.582  0.00  0.00    +0.000 A 
ATOM     14  C   UNL     1       5.902   3.735  -1.648  0.00  0.00    +0.000 A 
BRANCH   9  15
ATOM     15  C   UNL     1       7.065   1.571  -1.060  0.00  0.00    +0.000 C 
ATOM     16  O   UNL     1       7.729   0.590  -1.354  0.00  0.00    +0.000 OA
BRANCH  15  17
ATOM     17  O   UNL     1       6.393   1.767   0.101  0.00  0.00    +0.000 OA
BRANCH  17  19
ATOM     18  C   UNL     1       4.840  -0.028   0.318  0.00  0.00    +0.000 C 
ATOM     19  C   UNL     1       6.117   0.587   0.863  0.00  0.00    +0.000 C 
ENDBRANCH  17  19
ENDBRANCH  15  17
ENDBRANCH   9  15
ENDBRANCH   8  12
ENDBRANCH   7   8
ENDBRANCH   1   7
BRANCH   4  20
ATOM     20  C   UNL     1       5.853   8.600 -10.486  0.00  0.00    +0.000 C 
BRANCH  20  21
ATOM     21  N   UNL     1       7.258   8.790 -10.756  0.00  0.00    +0.000 N 
ATOM     22  C   UNL     1       7.685   9.726 -11.664  0.00  0.00    +0.000 C 
ATOM     23  O   UNL     1       6.897  10.467 -12.246  0.00  0.00    +0.000 OA
ATOM     24  H   UNL     1       7.892   8.047 -10.474  0.00  0.00    +0.000 HD
BRANCH  22  25
ATOM     25  C   UNL     1       9.135   9.842 -11.860  0.00  0.00    +0.000 A 
ATOM     26  C   UNL     1       9.664  11.018 -12.375  0.00  0.00    +0.000 A 
ATOM     27  S   UNL     1      11.366  11.016 -12.479  0.00  0.00    +0.000 S 
ATOM     28  C   UNL     1      11.455   9.422 -11.892  0.00  0.00    +0.000 A 
ATOM     29  N   UNL     1      12.653   8.792 -11.754  0.00  0.00    +0.000 NA
ATOM     30  C   UNL     1      12.572   7.575 -11.328  0.00  0.00    +0.000 A 
ATOM     31  N   UNL     1      11.401   6.934 -11.022  0.00  0.00    +0.000 N 
ATOM     32  C   UNL     1      10.170   7.538 -11.117  0.00  0.00    +0.000 A 
ATOM     33  O   UNL     1       9.143   6.948 -10.797  0.00  0.00    +0.000 OA
ATOM     34  C   UNL     1      10.204   8.904 -11.604  0.00  0.00    +0.000 A 
ATOM     35  H   UNL     1      11.408   5.981 -10.687  0.00  0.00    +0.000 HD
ENDBRANCH  22  25
ENDBRANCH  20  21
ENDBRANCH   4  20
TORSDOF 9
