REMARK  Name = 
REMARK  7 active torsions:
REMARK  status: ('A' for Active; 'I' for Inactive)
REMARK    1  A    between atoms: C_1  and  N_2
REMARK    2  A    between atoms: N_2  and  C_3
REMARK    3  A    between atoms: C_3  and  C_4
REMARK    4  A    between atoms: C_7  and  C_8
REMARK    5  A    between atoms: C_8  and  N_9
REMARK    6  A    between atoms: C_10  and  C_12
REMARK    7  A    between atoms: C_19  and  C_21
REMARK                            x       y       z     vdW  Elec       q    Type
REMARK                         _______ _______ _______ _____ _____    ______ ____
ROOT
ATOM      1  C   UNL     1       2.173  -2.338   0.656  0.00  0.00    +0.000 A 
ATOM      2  N   UNL     1       2.667  -3.552   0.345  0.00  0.00    +0.000 NA
ATOM      3  C   UNL     1       1.842  -4.602   0.535  0.00  0.00    +0.000 A 
ATOM      4  C   UNL     1       0.552  -4.490   1.013  0.00  0.00    +0.000 A 
ATOM      5  C   UNL     1       0.164  -3.209   1.342  0.00  0.00    +0.000 A 
ATOM      6  N   UNL     1       0.943  -2.126   1.172  0.00  0.00    +0.000 NA
ENDROOT
BRANCH   1   7
ATOM      7  C   UNL     1       3.031  -1.115   0.395  0.00  0.00    +0.000 C 
BRANCH   7   9
ATOM      8  C   UNL     1       1.659  -0.493  -1.613  0.00  0.00    +0.000 C 
ATOM      9  N   UNL     1       2.959  -0.520  -0.949  0.00  0.00    +0.000 N 
ATOM     10  C   UNL     1       3.951   0.301  -1.501  0.00  0.00    +0.000 C 
ATOM     11  O   UNL     1       3.862   0.691  -2.665  0.00  0.00    +0.000 OA
BRANCH  10  12
ATOM     12  C   UNL     1       5.041   0.849  -0.671  0.00  0.00    +0.000 A 
ATOM     13  C   UNL     1       4.961   1.225   0.659  0.00  0.00    +0.000 A 
ATOM     14  S   UNL     1       6.256   2.223   1.169  0.00  0.00    +0.000 S 
ATOM     15  C   UNL     1       6.954   2.187  -0.380  0.00  0.00    +0.000 A 
ATOM     16  N   UNL     1       8.015   2.973  -0.701  0.00  0.00    +0.000 NA
ATOM     17  C   UNL     1       8.437   2.816  -1.913  0.00  0.00    +0.000 A 
ATOM     18  N   UNL     1       7.934   1.905  -2.809  0.00  0.00    +0.000 N 
ATOM     19  C   UNL     1       6.923   1.024  -2.492  0.00  0.00    +0.000 A 
ATOM     20  O   UNL     1       6.668   0.059  -3.203  0.00  0.00    +0.000 OA
ATOM     21  C   UNL     1       6.308   1.289  -1.206  0.00  0.00    +0.000 A 
ATOM     22  H   UNL     1       8.394   1.743  -3.692  0.00  0.00    +0.000 HD
ENDBRANCH  10  12
ENDBRANCH   7   9
ENDBRANCH   1   7
BRANCH   4  23
ATOM     23  C   UNL     1      -0.366  -5.655   1.138  0.00  0.00    +0.000 C 
BRANCH  23  24
ATOM     24  N   UNL     1      -0.265  -6.316   2.412  0.00  0.00    +0.000 N 
ATOM     25  C   UNL     1      -1.119  -7.361   2.703  0.00  0.00    +0.000 C 
ATOM     26  O   UNL     1      -1.995  -7.725   1.925  0.00  0.00    +0.000 OA
ATOM     27  H   UNL     1       0.506  -6.114   3.031  0.00  0.00    +0.000 HD
BRANCH  25  28
ATOM     28  C   UNL     1      -0.899  -8.002   3.999  0.00  0.00    +0.000 A 
ATOM     29  C   UNL     1       0.024  -7.693   5.043  0.00  0.00    +0.000 A 
ATOM     30  C   UNL     1      -0.174  -8.591   6.068  0.00  0.00    +0.000 A 
ATOM     31  N   UNL     1      -1.181  -9.441   5.696  0.00  0.00    +0.000 N 
ATOM     32  C   UNL     1      -1.626  -9.094   4.450  0.00  0.00    +0.000 A 
ATOM     33  H   UNL     1      -1.543 -10.203   6.255  0.00  0.00    +0.000 HD
ENDBRANCH  25  28
ENDBRANCH  23  24
ENDBRANCH   4  23
TORSDOF 6
