REMARK  Name = 
REMARK  7 active torsions:
REMARK  status: ('A' for Active; 'I' for Inactive)
REMARK    1  A    between atoms: C_2  and  C_3
REMARK    2  A    between atoms: C_8  and  C_9
REMARK    3  A    between atoms: N_11  and  C_12
REMARK    4  A    between atoms: C_12  and  C_13
REMARK    5  A    between atoms: C_16  and  C_17
REMARK    6  A    between atoms: C_17  and  N_18
REMARK    7  A    between atoms: C_19  and  C_21
REMARK                            x       y       z     vdW  Elec       q    Type
REMARK                         _______ _______ _______ _____ _____    ______ ____
ROOT
ATOM      1  C   UNL     1      -4.177   3.581  -0.292  0.00  0.00    +0.000 A 
ATOM      2  C   UNL     1      -4.672   2.273  -0.383  0.00  0.00    +0.000 A 
ATOM      3  C   UNL     1      -6.049   2.025  -0.355  0.00  0.00    +0.000 A 
ATOM      4  C   UNL     1      -6.965   3.081  -0.263  0.00  0.00    +0.000 A 
ATOM      5  C   UNL     1      -6.470   4.389  -0.168  0.00  0.00    +0.000 A 
ATOM      6  C   UNL     1      -5.092   4.638  -0.190  0.00  0.00    +0.000 A 
ENDROOT
BRANCH   1   7
ATOM      7  C   UNL     1      -2.690   3.839  -0.302  0.00  0.00    +0.000 C 
BRANCH   7  10
ATOM      8  C   UNL     1      -1.584   3.114  -2.382  0.00  0.00    +0.000 C 
ATOM      9  O   UNL     1      -1.471   1.956  -1.989  0.00  0.00    +0.000 OA
ATOM     10  N   UNL     1      -2.187   4.101  -1.636  0.00  0.00    +0.000 N 
ATOM     11  H   UNL     1      -2.386   5.012  -2.024  0.00  0.00    +0.000 HD
BRANCH   8  17
ATOM     12  C   UNL     1      -0.430   4.661  -4.083  0.00  0.00    +0.000 A 
ATOM     13  C   UNL     1       0.095   4.825  -5.379  0.00  0.00    +0.000 A 
ATOM     14  C   UNL     1      -0.016   3.810  -6.329  0.00  0.00    +0.000 A 
ATOM     15  C   UNL     1      -0.654   2.620  -5.997  0.00  0.00    +0.000 A 
ATOM     16  C   UNL     1      -1.169   2.443  -4.711  0.00  0.00    +0.000 A 
ATOM     17  C   UNL     1      -1.071   3.456  -3.742  0.00  0.00    +0.000 A 
BRANCH  12  19
ATOM     18  N   UNL     1      -0.180   6.650  -2.443  0.00  0.00    +0.000 NA
ATOM     19  C   UNL     1      -0.267   5.744  -3.162  0.00  0.00    +0.000 C 
ENDBRANCH  12  19
ENDBRANCH   8  17
ENDBRANCH   7  10
ENDBRANCH   1   7
BRANCH   4  20
ATOM     20  C   UNL     1      -8.450   2.817  -0.240  0.00  0.00    +0.000 C 
BRANCH  20  21
ATOM     21  N   UNL     1      -8.938   2.622   1.103  0.00  0.00    +0.000 N 
ATOM     22  C   UNL     1     -10.241   2.265   1.344  0.00  0.00    +0.000 C 
ATOM     23  O   UNL     1     -11.036   2.052   0.432  0.00  0.00    +0.000 OA
ATOM     24  H   UNL     1      -8.376   3.004   1.857  0.00  0.00    +0.000 HD
BRANCH  22  25
ATOM     25  C   UNL     1     -10.627   2.087   2.751  0.00  0.00    +0.000 A 
ATOM     26  C   UNL     1     -11.712   1.282   3.072  0.00  0.00    +0.000 A 
ATOM     27  S   UNL     1     -11.993   1.146   4.749  0.00  0.00    +0.000 S 
ATOM     28  C   UNL     1     -10.706   2.200   5.105  0.00  0.00    +0.000 A 
ATOM     29  N   UNL     1     -10.412   2.536   6.390  0.00  0.00    +0.000 NA
ATOM     30  C   UNL     1      -9.431   3.366   6.514  0.00  0.00    +0.000 A 
ATOM     31  N   UNL     1      -8.712   3.885   5.467  0.00  0.00    +0.000 N 
ATOM     32  C   UNL     1      -8.955   3.553   4.158  0.00  0.00    +0.000 A 
ATOM     33  O   UNL     1      -8.268   4.009   3.247  0.00  0.00    +0.000 OA
ATOM     34  C   UNL     1     -10.058   2.633   3.960  0.00  0.00    +0.000 A 
ATOM     35  H   UNL     1      -7.950   4.525   5.632  0.00  0.00    +0.000 HD
ENDBRANCH  22  25
ENDBRANCH  20  21
ENDBRANCH   4  20
TORSDOF 7
