REMARK  Name = 
REMARK  7 active torsions:
REMARK  status: ('A' for Active; 'I' for Inactive)
REMARK    1  A    between atoms: C_2  and  C_20
REMARK    2  A    between atoms: N_3  and  C_4
REMARK    3  A    between atoms: C_4  and  C_5
REMARK    4  A    between atoms: C_8  and  C_9
REMARK    5  A    between atoms: C_9  and  O_10
REMARK    6  A    between atoms: C_9  and  C_11
REMARK    7  A    between atoms: C_11  and  C_12
REMARK                            x       y       z     vdW  Elec       q    Type
REMARK                         _______ _______ _______ _____ _____    ______ ____
ROOT
ATOM      1  C   UNL     1       2.094   1.326   2.108  0.00  0.00    +0.000 C 
ENDROOT
BRANCH   1   2
ATOM      2  C   UNL     1       3.015   2.018   3.075  0.00  0.00    +0.000 A 
ATOM      3  C   UNL     1       3.052   3.416   3.162  0.00  0.00    +0.000 A 
ATOM      4  C   UNL     1       3.878   4.050   4.098  0.00  0.00    +0.000 A 
ATOM      5  C   UNL     1       4.704   3.303   4.952  0.00  0.00    +0.000 A 
ATOM      6  C   UNL     1       4.666   1.903   4.844  0.00  0.00    +0.000 A 
ATOM      7  C   UNL     1       3.848   1.270   3.908  0.00  0.00    +0.000 A 
BRANCH   5   8
ATOM      8  C   UNL     1       5.569   4.014   5.983  0.00  0.00    +0.000 C 
BRANCH   8   9
ATOM      9  O   UNL     1       4.777   4.176   7.159  0.00  0.00    +0.000 OA
ATOM     10  H   UNL     1       4.668   3.297   7.561  0.00  0.00    +0.000 HD
ENDBRANCH   8   9
BRANCH   8  11
ATOM     11  C   UNL     1       6.885   3.274   6.286  0.00  0.00    +0.000 C 
BRANCH  11  12
ATOM     12  C   UNL     1       7.810   3.951   7.264  0.00  0.00    +0.000 A 
ATOM     13  C   UNL     1       8.347   5.210   7.016  0.00  0.00    +0.000 A 
ATOM     14  C   UNL     1       9.257   5.741   7.927  0.00  0.00    +0.000 A 
ATOM     15  C   UNL     1       9.612   5.003   9.050  0.00  0.00    +0.000 A 
ATOM     16  C   UNL     1       9.035   3.758   9.221  0.00  0.00    +0.000 A 
ATOM     17  N   UNL     1       8.151   3.219   8.356  0.00  0.00    +0.000 NA
ENDBRANCH  11  12
ENDBRANCH   8  11
ENDBRANCH   5   8
ENDBRANCH   1   2
BRANCH   1  20
ATOM     18  O   UNL     1       0.958  -0.106   0.046  0.00  0.00    +0.000 OA
ATOM     19  C   UNL     1       2.042   0.436  -0.158  0.00  0.00    +0.000 C 
ATOM     20  N   UNL     1       2.719   1.105   0.830  0.00  0.00    +0.000 N 
ATOM     21  H   UNL     1       3.498   1.708   0.585  0.00  0.00    +0.000 HD
BRANCH  19  22
ATOM     22  C   UNL     1       2.690   0.365  -1.470  0.00  0.00    +0.000 A 
ATOM     23  C   UNL     1       2.387  -0.679  -2.333  0.00  0.00    +0.000 A 
ATOM     24  S   UNL     1       3.218  -0.597  -3.820  0.00  0.00    +0.000 S 
ATOM     25  C   UNL     1       3.977   0.860  -3.377  0.00  0.00    +0.000 A 
ATOM     26  N   UNL     1       4.808   1.505  -4.240  0.00  0.00    +0.000 NA
ATOM     27  C   UNL     1       5.282   2.618  -3.789  0.00  0.00    +0.000 A 
ATOM     28  N   UNL     1       5.014   3.138  -2.551  0.00  0.00    +0.000 N 
ATOM     29  C   UNL     1       4.220   2.499  -1.628  0.00  0.00    +0.000 A 
ATOM     30  O   UNL     1       4.062   2.952  -0.499  0.00  0.00    +0.000 OA
ATOM     31  C   UNL     1       3.629   1.259  -2.099  0.00  0.00    +0.000 A 
ATOM     32  H   UNL     1       5.437   4.002  -2.250  0.00  0.00    +0.000 HD
ENDBRANCH  19  22
ENDBRANCH   1  20
TORSDOF 7
