REMARK  Name = 
REMARK  4 active torsions:
REMARK  status: ('A' for Active; 'I' for Inactive)
REMARK    1  A    between atoms: C_2  and  C_4
REMARK    2  A    between atoms: N_8  and  C_9
REMARK    3  A    between atoms: C_9  and  C_10
REMARK    4  A    between atoms: C_14  and  C_15
REMARK                            x       y       z     vdW  Elec       q    Type
REMARK                         _______ _______ _______ _____ _____    ______ ____
ROOT
ATOM      1  C   UNL     1       3.107  -4.841  -7.537  0.00  0.00    +0.000 A 
ATOM      2  C   UNL     1       2.907  -5.780  -6.531  0.00  0.00    +0.000 A 
ATOM      3  C   UNL     1       3.641  -5.676  -5.350  0.00  0.00    +0.000 A 
ATOM      4  C   UNL     1       4.566  -4.651  -5.193  0.00  0.00    +0.000 A 
ATOM      5  N   UNL     1       5.271  -4.430  -4.046  0.00  0.00    +0.000 N 
ATOM      6  N   UNL     1       4.792  -3.757  -6.180  0.00  0.00    +0.000 NA
ATOM      7  C   UNL     1       4.071  -3.870  -7.326  0.00  0.00    +0.000 A 
ATOM      8  H   UNL     1       5.970  -3.706  -4.146  0.00  0.00    +0.000 HD
ENDROOT
BRANCH   1  10
ATOM      9  N   UNL     1       1.099  -5.416  -8.774  0.00  0.00    +0.000 N 
ATOM     10  C   UNL     1       2.344  -4.848  -8.801  0.00  0.00    +0.000 C 
ATOM     11  O   UNL     1       2.785  -4.336  -9.820  0.00  0.00    +0.000 OA
ATOM     12  H   UNL     1       0.544  -5.326  -9.614  0.00  0.00    +0.000 HD
ATOM     13  H   UNL     1       0.610  -5.615  -7.912  0.00  0.00    +0.000 HD
ENDBRANCH   1  10
BRANCH   5  14
ATOM     14  C   UNL     1       5.280  -5.258  -2.867  0.00  0.00    +0.000 C 
BRANCH  14  15
ATOM     15  C   UNL     1       6.263  -6.399  -2.987  0.00  0.00    +0.000 A 
ATOM     16  C   UNL     1       7.631  -6.141  -3.135  0.00  0.00    +0.000 A 
ATOM     17  C   UNL     1       8.541  -7.192  -3.197  0.00  0.00    +0.000 A 
ATOM     18  C   UNL     1       8.095  -8.511  -3.092  0.00  0.00    +0.000 A 
ATOM     19  C   UNL     1       6.735  -8.815  -2.903  0.00  0.00    +0.000 A 
ATOM     20  C   UNL     1       5.831  -7.735  -2.878  0.00  0.00    +0.000 A 
BRANCH  19  21
ATOM     21  C   UNL     1       6.287 -10.203  -2.657  0.00  0.00    +0.000 A 
ATOM     22  C   UNL     1       7.066 -11.102  -1.910  0.00  0.00    +0.000 A 
ATOM     23  C   UNL     1       6.606 -12.387  -1.626  0.00  0.00    +0.000 A 
ATOM     24  C   UNL     1       5.359 -12.752  -2.095  0.00  0.00    +0.000 A 
ATOM     25  N   UNL     1       4.571 -11.939  -2.827  0.00  0.00    +0.000 NA
ATOM     26  C   UNL     1       5.055 -10.697  -3.091  0.00  0.00    +0.000 A 
ENDBRANCH  19  21
ENDBRANCH  14  15
ENDBRANCH   5  14
TORSDOF 4
