REMARK  Name = 
REMARK  9 active torsions:
REMARK  status: ('A' for Active; 'I' for Inactive)
REMARK    1  A    between atoms: N_1  and  C_2
REMARK    2  A    between atoms: C_2  and  C_3
REMARK    3  A    between atoms: C_3  and  O_4
REMARK    4  A    between atoms: O_4  and  C_5
REMARK    5  A    between atoms: C_7  and  C_8
REMARK    6  A    between atoms: C_8  and  N_9
REMARK    7  A    between atoms: C_10  and  C_12
REMARK    8  A    between atoms: C_24  and  C_25
REMARK    9  A    between atoms: C_25  and  N_26
REMARK                            x       y       z     vdW  Elec       q    Type
REMARK                         _______ _______ _______ _____ _____    ______ ____
ROOT
ATOM      1  C   UNL     1       5.060  -1.419  -2.205  0.00  0.00    +0.000 A 
ATOM      2  C   UNL     1       4.635  -1.394  -3.537  0.00  0.00    +0.000 A 
ATOM      3  C   UNL     1       5.356  -2.086  -4.505  0.00  0.00    +0.000 A 
ATOM      4  N   UNL     1       6.482  -2.775  -4.206  0.00  0.00    +0.000 NA
ATOM      5  C   UNL     1       6.873  -2.791  -2.908  0.00  0.00    +0.000 A 
ATOM      6  C   UNL     1       6.214  -2.139  -1.868  0.00  0.00    +0.000 A 
ENDROOT
BRANCH   1   7
ATOM      7  O   UNL     1       4.415  -0.759  -1.186  0.00  0.00    +0.000 OA
BRANCH   7   8
ATOM      8  C   UNL     1       3.270   0.015  -1.558  0.00  0.00    +0.000 C 
BRANCH   8   9
ATOM      9  C   UNL     1       2.688   0.705  -0.322  0.00  0.00    +0.000 C 
BRANCH   9  10
ATOM     10  N   UNL     1       1.517   1.515  -0.664  0.00  0.00    +0.000 NA
ATOM     11  H   UNL     1       1.150   1.948   0.182  0.00  0.00    +0.000 HD
ATOM     12  H   UNL     1       0.774   0.912  -1.017  0.00  0.00    +0.000 HD
ENDBRANCH   9  10
ENDBRANCH   8   9
ENDBRANCH   7   8
ENDBRANCH   1   7
BRANCH   3  13
ATOM     13  C   UNL     1       4.920  -2.010  -5.953  0.00  0.00    +0.000 C 
BRANCH  13  14
ATOM     14  N   UNL     1       5.543  -0.886  -6.619  0.00  0.00    +0.000 N 
ATOM     15  C   UNL     1       4.909  -0.147  -7.582  0.00  0.00    +0.000 C 
ATOM     16  O   UNL     1       3.740  -0.354  -7.897  0.00  0.00    +0.000 OA
ATOM     17  H   UNL     1       6.553  -0.835  -6.524  0.00  0.00    +0.000 HD
BRANCH  15  18
ATOM     18  C   UNL     1       5.675   0.958  -8.174  0.00  0.00    +0.000 A 
ATOM     19  C   UNL     1       5.008   2.012  -8.783  0.00  0.00    +0.000 A 
ATOM     20  S   UNL     1       6.044   3.232  -9.372  0.00  0.00    +0.000 S 
ATOM     21  C   UNL     1       7.426   2.372  -8.880  0.00  0.00    +0.000 A 
ATOM     22  N   UNL     1       8.675   2.865  -9.108  0.00  0.00    +0.000 NA
ATOM     23  C   UNL     1       9.632   2.097  -8.707  0.00  0.00    +0.000 A 
ATOM     24  N   UNL     1       9.455   0.884  -8.093  0.00  0.00    +0.000 N 
ATOM     25  C   UNL     1       8.214   0.360  -7.820  0.00  0.00    +0.000 A 
ATOM     26  O   UNL     1       8.092  -0.711  -7.237  0.00  0.00    +0.000 OA
ATOM     27  C   UNL     1       7.101   1.179  -8.258  0.00  0.00    +0.000 A 
ATOM     28  H   UNL     1      10.245   0.331  -7.798  0.00  0.00    +0.000 HD
ENDBRANCH  15  18
ENDBRANCH  13  14
ENDBRANCH   3  13
BRANCH   6  29
ATOM     29  C   UNL     1       6.750  -2.240  -0.459  0.00  0.00    +0.000 C 
BRANCH  29  30
ATOM     30  N   UNL     1       6.218  -3.417   0.195  0.00  0.00    +0.000 N 
ATOM     31  C   UNL     1       6.603  -3.648   1.501  0.00  0.00    +0.000 A 
ATOM     32  N   UNL     1       6.958  -2.634   2.306  0.00  0.00    +0.000 NA
ATOM     33  C   UNL     1       7.243  -2.928   3.591  0.00  0.00    +0.000 A 
ATOM     34  C   UNL     1       7.200  -4.195   4.100  0.00  0.00    +0.000 A 
ATOM     35  C   UNL     1       6.855  -5.152   3.186  0.00  0.00    +0.000 A 
ATOM     36 CL   UNL     1       6.760  -6.806   3.648  0.00  0.00    +0.000 Cl
ATOM     37  N   UNL     1       6.564  -4.922   1.895  0.00  0.00    +0.000 NA
ATOM     38  H   UNL     1       6.277  -4.291  -0.311  0.00  0.00    +0.000 HD
ENDBRANCH  29  30
ENDBRANCH   6  29
TORSDOF 9
