REMARK  Name = 
REMARK  10 active torsions:
REMARK  status: ('A' for Active; 'I' for Inactive)
REMARK    1  A    between atoms: C_1  and  C_2
REMARK    2  A    between atoms: C_3  and  C_4
REMARK    3  A    between atoms: C_7  and  C_8
REMARK    4  A    between atoms: C_12  and  N_13
REMARK    5  A    between atoms: N_13  and  C_14
REMARK    6  A    between atoms: C_14  and  C_15
REMARK    7  A    between atoms: C_15  and  C_16
REMARK    8  A    between atoms: C_15  and  C_17
REMARK    9  A    between atoms: C_15  and  C_18
REMARK   10  A    between atoms: C_22  and  C_23
REMARK                            x       y       z     vdW  Elec       q    Type
REMARK                         _______ _______ _______ _____ _____    ______ ____
ROOT
ATOM      1  C   UNL     1       7.195  -0.964  -0.397  0.00  0.00    +0.000 A 
ATOM      2  C   UNL     1       7.602   0.370  -0.301  0.00  0.00    +0.000 A 
ATOM      3  N   UNL     1       6.895   1.362   0.300  0.00  0.00    +0.000 NA
ATOM      4  C   UNL     1       5.713   0.985   0.848  0.00  0.00    +0.000 A 
ATOM      5  C   UNL     1       5.205  -0.303   0.776  0.00  0.00    +0.000 A 
ATOM      6  C   UNL     1       5.922  -1.308   0.109  0.00  0.00    +0.000 A 
ENDROOT
BRANCH   4   7
ATOM      7  C   UNL     1       4.932   2.014   1.608  0.00  0.00    +0.000 C 
ATOM      8  N   UNL     1       5.504   3.252   1.698  0.00  0.00    +0.000 N 
ATOM      9  O   UNL     1       3.852   1.772   2.132  0.00  0.00    +0.000 OA
ATOM     10  H   UNL     1       6.419   3.413   1.297  0.00  0.00    +0.000 HD
ATOM     11  H   UNL     1       5.055   3.958   2.262  0.00  0.00    +0.000 HD
ENDBRANCH   4   7
BRANCH   1  14
ATOM     12  C   UNL     1       9.810  -3.882  -2.079  0.00  0.00    +0.000 C 
ATOM     13  C   UNL     1       8.887  -2.824  -1.496  0.00  0.00    +0.000 C 
ATOM     14  C   UNL     1       8.095  -1.917  -0.997  0.00  0.00    +0.000 C 
ENDBRANCH   1  14
BRANCH   6  15
ATOM     15  N   UNL     1       5.421  -2.635   0.074  0.00  0.00    +0.000 N 
ATOM     16  H   UNL     1       5.933  -3.206  -0.597  0.00  0.00    +0.000 HD
BRANCH  15  17
ATOM     17  C   UNL     1       3.953  -2.767  -0.037  0.00  0.00    +0.000 C 
BRANCH  17  18
ATOM     18  C   UNL     1       3.421  -4.233  -0.113  0.00  0.00    +0.000 C 
ATOM     19  C   UNL     1       1.879  -4.094  -0.271  0.00  0.00    +0.000 C 
ATOM     20  C   UNL     1       3.975  -4.900  -1.390  0.00  0.00    +0.000 C 
BRANCH  18  21
ATOM     21  C   UNL     1       3.689  -5.103   1.134  0.00  0.00    +0.000 A 
ATOM     22  C   UNL     1       3.211  -6.428   1.190  0.00  0.00    +0.000 A 
ATOM     23  C   UNL     1       3.368  -7.219   2.332  0.00  0.00    +0.000 A 
ATOM     24  C   UNL     1       4.011  -6.704   3.454  0.00  0.00    +0.000 A 
ATOM     25  C   UNL     1       4.509  -5.404   3.428  0.00  0.00    +0.000 A 
ATOM     26  C   UNL     1       4.352  -4.614   2.276  0.00  0.00    +0.000 A 
BRANCH  25  27
ATOM     27  C   UNL     1       5.166  -4.863   4.587  0.00  0.00    +0.000 C 
ATOM     28  N   UNL     1       5.690  -4.438   5.530  0.00  0.00    +0.000 NA
ENDBRANCH  25  27
ENDBRANCH  18  21
ENDBRANCH  17  18
ENDBRANCH  15  17
ENDBRANCH   6  15
TORSDOF 7
