REMARK  Name = 
REMARK  4 active torsions:
REMARK  status: ('A' for Active; 'I' for Inactive)
REMARK    1  A    between atoms: C_2  and  C_4
REMARK    2  A    between atoms: N_8  and  C_9
REMARK    3  A    between atoms: C_9  and  C_10
REMARK    4  A    between atoms: C_13  and  C_14
REMARK                            x       y       z     vdW  Elec       q    Type
REMARK                         _______ _______ _______ _____ _____    ______ ____
ROOT
ATOM      1  C   UNL     1       3.598   3.474   0.162  0.00  0.00    +0.000 A 
ATOM      2  C   UNL     1       3.119   4.047   1.336  0.00  0.00    +0.000 A 
ATOM      3  C   UNL     1       3.735   3.729   2.549  0.00  0.00    +0.000 A 
ATOM      4  C   UNL     1       4.817   2.857   2.563  0.00  0.00    +0.000 A 
ATOM      5  N   UNL     1       5.429   2.410   3.726  0.00  0.00    +0.000 N 
ATOM      6  N   UNL     1       5.303   2.316   1.425  0.00  0.00    +0.000 NA
ATOM      7  C   UNL     1       4.679   2.616   0.258  0.00  0.00    +0.000 A 
ATOM      8  H   UNL     1       6.286   1.913   3.505  0.00  0.00    +0.000 HD
ENDROOT
BRANCH   1  10
ATOM      9  N   UNL     1       2.308   4.878  -1.344  0.00  0.00    +0.000 N 
ATOM     10  C   UNL     1       2.982   3.704  -1.160  0.00  0.00    +0.000 C 
ATOM     11  O   UNL     1       3.099   2.894  -2.070  0.00  0.00    +0.000 OA
ATOM     12  H   UNL     1       1.968   5.059  -2.280  0.00  0.00    +0.000 HD
ATOM     13  H   UNL     1       2.403   5.665  -0.719  0.00  0.00    +0.000 HD
ENDBRANCH   1  10
BRANCH   5  14
ATOM     14  C   UNL     1       5.208   2.924   5.087  0.00  0.00    +0.000 C 
ATOM     15  C   UNL     1       5.068   1.845   6.155  0.00  0.00    +0.000 C 
ATOM     16  C   UNL     1       3.889   2.693   5.808  0.00  0.00    +0.000 C 
BRANCH  14  17
ATOM     17  C   UNL     1       5.993   4.200   5.433  0.00  0.00    +0.000 A 
ATOM     18  N   UNL     1       5.393   5.400   5.248  0.00  0.00    +0.000 NA
ATOM     19  C   UNL     1       6.128   6.506   5.482  0.00  0.00    +0.000 A 
ATOM     20  C   UNL     1       7.437   6.476   5.897  0.00  0.00    +0.000 A 
ATOM     21  C   UNL     1       7.956   5.220   6.090  0.00  0.00    +0.000 A 
ATOM     22  N   UNL     1       7.268   4.083   5.869  0.00  0.00    +0.000 NA
BRANCH  20  23
ATOM     23  C   UNL     1       8.246   7.703   6.110  0.00  0.00    +0.000 C 
ATOM     24  F   UNL     1       7.566   8.852   5.845  0.00  0.00    +0.000 F 
ATOM     25  F   UNL     1       8.691   7.819   7.390  0.00  0.00    +0.000 F 
ATOM     26  F   UNL     1       9.355   7.736   5.324  0.00  0.00    +0.000 F 
ENDBRANCH  20  23
ENDBRANCH  14  17
ENDBRANCH   5  14
TORSDOF 4
