REMARK  Name = 
REMARK  7 active torsions:
REMARK  status: ('A' for Active; 'I' for Inactive)
REMARK    1  A    between atoms: C_1  and  O_2
REMARK    2  A    between atoms: O_2  and  C_3
REMARK    3  A    between atoms: C_5  and  O_6
REMARK    4  A    between atoms: O_6  and  C_7
REMARK    5  A    between atoms: C_10  and  C_11
REMARK    6  A    between atoms: C_11  and  N_12
REMARK    7  A    between atoms: C_13  and  C_15
REMARK                            x       y       z     vdW  Elec       q    Type
REMARK                         _______ _______ _______ _____ _____    ______ ____
ROOT
ATOM      1  C   UNL     1      -1.258  -6.115   1.948  0.00  0.00    +0.000 C 
ENDROOT
BRANCH   1   5
ATOM      2  C   UNL     1       2.120  -3.765   3.243  0.00  0.00    +0.000 A 
ATOM      3  C   UNL     1       2.172  -4.488   2.048  0.00  0.00    +0.000 A 
ATOM      4  C   UNL     1       1.084  -5.262   1.647  0.00  0.00    +0.000 A 
ATOM      5  C   UNL     1      -0.060  -5.355   2.449  0.00  0.00    +0.000 A 
ATOM      6  C   UNL     1      -0.064  -4.710   3.696  0.00  0.00    +0.000 A 
ATOM      7  C   UNL     1       1.024  -3.915   4.089  0.00  0.00    +0.000 A 
BRANCH   2   8
ATOM      8  O   UNL     1       3.139  -2.930   3.655  0.00  0.00    +0.000 OA
BRANCH   8  11
ATOM      9  C   UNL     1       5.561  -0.927   1.920  0.00  0.00    +0.000 A 
ATOM     10  C   UNL     1       5.009  -1.685   2.925  0.00  0.00    +0.000 A 
ATOM     11  C   UNL     1       3.723  -2.110   2.691  0.00  0.00    +0.000 A 
ATOM     12  N   UNL     1       3.017  -1.770   1.594  0.00  0.00    +0.000 NA
ATOM     13  C   UNL     1       3.664  -1.041   0.683  0.00  0.00    +0.000 A 
ATOM     14  N   UNL     1       4.921  -0.602   0.783  0.00  0.00    +0.000 NA
BRANCH   9  16
ATOM     15  C   UNL     1       7.357   0.264   1.007  0.00  0.00    +0.000 C 
ATOM     16  O   UNL     1       6.858  -0.490   2.111  0.00  0.00    +0.000 OA
ENDBRANCH   9  16
ENDBRANCH   8  11
ENDBRANCH   2   8
ENDBRANCH   1   5
BRANCH   1  17
ATOM     17  N   UNL     1      -1.172  -7.525   2.212  0.00  0.00    +0.000 N 
ATOM     18  C   UNL     1      -2.199  -8.359   1.846  0.00  0.00    +0.000 C 
ATOM     19  O   UNL     1      -3.203  -7.931   1.280  0.00  0.00    +0.000 OA
ATOM     20  H   UNL     1      -0.265  -7.911   2.460  0.00  0.00    +0.000 HD
BRANCH  18  21
ATOM     21  C   UNL     1      -2.093  -9.776   2.228  0.00  0.00    +0.000 A 
ATOM     22  C   UNL     1      -3.151 -10.640   1.970  0.00  0.00    +0.000 A 
ATOM     23  S   UNL     1      -2.966 -12.179   2.683  0.00  0.00    +0.000 S 
ATOM     24  C   UNL     1      -1.448 -11.754   3.323  0.00  0.00    +0.000 A 
ATOM     25  N   UNL     1      -0.766 -12.606   4.137  0.00  0.00    +0.000 NA
ATOM     26  C   UNL     1       0.384 -12.162   4.525  0.00  0.00    +0.000 A 
ATOM     27  N   UNL     1       0.930 -10.964   4.141  0.00  0.00    +0.000 N 
ATOM     28  C   UNL     1       0.294 -10.098   3.283  0.00  0.00    +0.000 A 
ATOM     29  O   UNL     1       0.854  -9.095   2.854  0.00  0.00    +0.000 OA
ATOM     30  C   UNL     1      -1.048 -10.496   2.914  0.00  0.00    +0.000 A 
ATOM     31  H   UNL     1       1.866 -10.710   4.418  0.00  0.00    +0.000 HD
ENDBRANCH  18  21
ENDBRANCH   1  17
TORSDOF 6
