REMARK  Name = 
REMARK  7 active torsions:
REMARK  status: ('A' for Active; 'I' for Inactive)
REMARK    1  A    between atoms: C_2  and  C_19
REMARK    2  A    between atoms: N_3  and  C_4
REMARK    3  A    between atoms: C_4  and  C_5
REMARK    4  A    between atoms: C_8  and  C_9
REMARK    5  A    between atoms: C_9  and  C_10
REMARK    6  A    between atoms: C_10  and  C_11
REMARK    7  A    between atoms: C_11  and  N_12
REMARK                            x       y       z     vdW  Elec       q    Type
REMARK                         _______ _______ _______ _____ _____    ______ ____
ROOT
ATOM      1  O   UNL     1       0.902  -0.597  -0.258  0.00  0.00    +0.000 OA
ATOM      2  C   UNL     1       2.107  -0.807  -0.359  0.00  0.00    +0.000 C 
ATOM      3  N   UNL     1       2.835  -1.369   0.661  0.00  0.00    +0.000 N 
ATOM      4  H   UNL     1       3.850  -1.345   0.626  0.00  0.00    +0.000 HD
ENDROOT
BRANCH   2   5
ATOM      5  C   UNL     1       2.829  -0.493  -1.597  0.00  0.00    +0.000 A 
ATOM      6  C   UNL     1       2.135  -0.420  -2.797  0.00  0.00    +0.000 A 
ATOM      7  S   UNL     1       3.118  -0.021  -4.133  0.00  0.00    +0.000 S 
ATOM      8  C   UNL     1       4.496   0.115  -3.145  0.00  0.00    +0.000 A 
ATOM      9  N   UNL     1       5.696   0.487  -3.668  0.00  0.00    +0.000 NA
ATOM     10  C   UNL     1       6.646   0.590  -2.800  0.00  0.00    +0.000 A 
ATOM     11  N   UNL     1       6.509   0.337  -1.460  0.00  0.00    +0.000 N 
ATOM     12  C   UNL     1       5.329  -0.085  -0.895  0.00  0.00    +0.000 A 
ATOM     13  O   UNL     1       5.257  -0.368   0.296  0.00  0.00    +0.000 OA
ATOM     14  C   UNL     1       4.218  -0.178  -1.822  0.00  0.00    +0.000 A 
ATOM     15  H   UNL     1       7.300   0.409  -0.837  0.00  0.00    +0.000 HD
ENDBRANCH   2   5
BRANCH   3  16
ATOM     16  C   UNL     1       2.223  -1.572   1.948  0.00  0.00    +0.000 C 
BRANCH  16  17
ATOM     17  C   UNL     1       3.146  -2.254   2.922  0.00  0.00    +0.000 A 
ATOM     18  C   UNL     1       4.005  -1.502   3.733  0.00  0.00    +0.000 A 
ATOM     19  C   UNL     1       4.816  -2.129   4.683  0.00  0.00    +0.000 A 
ATOM     20  C   UNL     1       4.786  -3.521   4.844  0.00  0.00    +0.000 A 
ATOM     21  C   UNL     1       3.964  -4.275   3.998  0.00  0.00    +0.000 A 
ATOM     22  C   UNL     1       3.157  -3.649   3.042  0.00  0.00    +0.000 A 
BRANCH  20  23
ATOM     23  C   UNL     1       5.641  -4.196   5.894  0.00  0.00    +0.000 C 
BRANCH  23  24
ATOM     24  C   UNL     1       5.269  -3.765   7.319  0.00  0.00    +0.000 C 
BRANCH  24  25
ATOM     25  C   UNL     1       6.134  -4.426   8.403  0.00  0.00    +0.000 C 
BRANCH  25  26
ATOM     26  N   UNL     1       7.582  -4.208   8.246  0.00  0.00    +0.000 NA
ATOM     27  C   UNL     1       7.981  -2.802   8.385  0.00  0.00    +0.000 C 
ATOM     28  C   UNL     1       8.052  -2.581   9.883  0.00  0.00    +0.000 C 
ATOM     29  O   UNL     1       8.383  -3.856  10.446  0.00  0.00    +0.000 OA
ATOM     30  C   UNL     1       8.307  -4.802   9.376  0.00  0.00    +0.000 C 
ENDBRANCH  25  26
ENDBRANCH  24  25
ENDBRANCH  23  24
ENDBRANCH  20  23
ENDBRANCH  16  17
ENDBRANCH   3  16
TORSDOF 7
