REMARK  Name = 
REMARK  10 active torsions:
REMARK  status: ('A' for Active; 'I' for Inactive)
REMARK    1  A    between atoms: C_1  and  O_2
REMARK    2  A    between atoms: O_2  and  C_3
REMARK    3  A    between atoms: C_7  and  C_8
REMARK    4  A    between atoms: C_8  and  N_9
REMARK    5  A    between atoms: N_9  and  C_10
REMARK    6  A    between atoms: N_9  and  C_11
REMARK    7  A    between atoms: C_11  and  C_12
REMARK    8  A    between atoms: C_15  and  C_16
REMARK    9  A    between atoms: C_16  and  N_17
REMARK   10  A    between atoms: C_18  and  C_20
REMARK                            x       y       z     vdW  Elec       q    Type
REMARK                         _______ _______ _______ _____ _____    ______ ____
ROOT
ATOM      1  C   UNL     1       9.329  -1.370   4.592  0.00  0.00    +0.000 A 
ATOM      2  C   UNL     1       9.845  -0.804   5.764  0.00  0.00    +0.000 A 
ATOM      3  C   UNL     1      10.392  -1.616   6.764  0.00  0.00    +0.000 A 
ATOM      4  C   UNL     1      10.436  -3.008   6.604  0.00  0.00    +0.000 A 
ATOM      5  C   UNL     1       9.929  -3.571   5.426  0.00  0.00    +0.000 A 
ATOM      6  C   UNL     1       9.386  -2.761   4.429  0.00  0.00    +0.000 A 
ENDROOT
BRANCH   1   7
ATOM      7  C   UNL     1       8.647  -0.520   3.544  0.00  0.00    +0.000 C 
BRANCH   7   8
ATOM      8  N   UNL     1       9.469   0.569   2.991  0.00  0.00    +0.000 NA
ATOM      9  C   UNL     1       8.612   1.407   2.139  0.00  0.00    +0.000 C 
BRANCH   8  10
ATOM     10  C   UNL     1      10.643   0.053   2.258  0.00  0.00    +0.000 C 
BRANCH  10  15
ATOM     11  C   UNL     1      12.334   2.564  -0.063  0.00  0.00    +0.000 A 
ATOM     12  C   UNL     1      12.815   3.495   0.859  0.00  0.00    +0.000 A 
ATOM     13  C   UNL     1      12.699   3.253   2.230  0.00  0.00    +0.000 A 
ATOM     14  C   UNL     1      12.068   2.098   2.685  0.00  0.00    +0.000 A 
ATOM     15  C   UNL     1      11.531   1.181   1.771  0.00  0.00    +0.000 A 
ATOM     16  C   UNL     1      11.711   1.402   0.398  0.00  0.00    +0.000 A 
BRANCH  11  18
ATOM     17  C   UNL     1      12.878   3.910  -1.940  0.00  0.00    +0.000 C 
ATOM     18  O   UNL     1      12.382   2.681  -1.425  0.00  0.00    +0.000 OA
ENDBRANCH  11  18
ENDBRANCH  10  15
ENDBRANCH   8  10
ENDBRANCH   7   8
ENDBRANCH   1   7
BRANCH   4  19
ATOM     19  C   UNL     1      10.929  -3.903   7.709  0.00  0.00    +0.000 C 
BRANCH  19  20
ATOM     20  N   UNL     1       9.836  -4.280   8.574  0.00  0.00    +0.000 N 
ATOM     21  C   UNL     1      10.030  -5.046   9.690  0.00  0.00    +0.000 C 
ATOM     22  O   UNL     1      11.151  -5.420  10.033  0.00  0.00    +0.000 OA
ATOM     23  H   UNL     1       8.899  -4.170   8.198  0.00  0.00    +0.000 HD
BRANCH  21  24
ATOM     24  C   UNL     1       8.842  -5.348  10.494  0.00  0.00    +0.000 A 
ATOM     25  C   UNL     1       8.986  -5.705  11.828  0.00  0.00    +0.000 A 
ATOM     26  S   UNL     1       7.508  -5.972  12.631  0.00  0.00    +0.000 S 
ATOM     27  C   UNL     1       6.619  -5.676  11.210  0.00  0.00    +0.000 A 
ATOM     28  N   UNL     1       5.263  -5.760  11.207  0.00  0.00    +0.000 NA
ATOM     29  C   UNL     1       4.718  -5.534  10.056  0.00  0.00    +0.000 A 
ATOM     30  N   UNL     1       5.408  -5.232   8.912  0.00  0.00    +0.000 N 
ATOM     31  C   UNL     1       6.778  -5.122   8.873  0.00  0.00    +0.000 A 
ATOM     32  O   UNL     1       7.361  -4.831   7.832  0.00  0.00    +0.000 OA
ATOM     33  C   UNL     1       7.437  -5.365  10.139  0.00  0.00    +0.000 A 
ATOM     34  H   UNL     1       4.921  -5.062   8.044  0.00  0.00    +0.000 HD
ENDBRANCH  21  24
ENDBRANCH  19  20
ENDBRANCH   4  19
TORSDOF 8
