REMARK  Name = 
REMARK  4 active torsions:
REMARK  status: ('A' for Active; 'I' for Inactive)
REMARK    1  A    between atoms: C_5  and  N_6
REMARK    2  A    between atoms: N_6  and  C_7
REMARK    3  A    between atoms: C_7  and  C_8
REMARK    4  A    between atoms: C_12  and  C_13
REMARK                            x       y       z     vdW  Elec       q    Type
REMARK                         _______ _______ _______ _____ _____    ______ ____
ROOT
ATOM      1  C   UNL     1       3.513  -3.834  -0.051  0.00  0.00    +0.000 A 
ATOM      2  C   UNL     1       4.874  -4.045  -0.070  0.00  0.00    +0.000 A 
ATOM      3  C   UNL     1       5.287  -5.356  -0.066  0.00  0.00    +0.000 A 
ATOM      4  N   UNL     1       4.439  -6.398  -0.059  0.00  0.00    +0.000 NA
ATOM      5  C   UNL     1       3.124  -6.110  -0.056  0.00  0.00    +0.000 A 
ATOM      6  N   UNL     1       2.626  -4.857  -0.061  0.00  0.00    +0.000 NA
ENDROOT
BRANCH   5   7
ATOM      7  C   UNL     1       2.173  -7.238  -0.037  0.00  0.00    +0.000 A 
ATOM      8  C   UNL     1       2.616  -8.568   0.002  0.00  0.00    +0.000 A 
ATOM      9  C   UNL     1       1.690  -9.597   0.014  0.00  0.00    +0.000 A 
ATOM     10  N   UNL     1       0.360  -9.405  -0.013  0.00  0.00    +0.000 NA
ATOM     11  C   UNL     1      -0.062  -8.124  -0.056  0.00  0.00    +0.000 A 
ATOM     12  C   UNL     1       0.789  -7.034  -0.064  0.00  0.00    +0.000 A 
ENDBRANCH   5   7
BRANCH   1  13
ATOM     13  C   UNL     1       2.962  -2.424  -0.023  0.00  0.00    +0.000 C 
BRANCH  13  14
ATOM     14  N   UNL     1       2.926  -1.842  -1.360  0.00  0.00    +0.000 N 
ATOM     15  H   UNL     1       2.871  -2.511  -2.124  0.00  0.00    +0.000 HD
BRANCH  14  20
ATOM     16  C   UNL     1       1.473   1.549  -0.860  0.00  0.00    +0.000 A 
ATOM     17  C   UNL     1       1.366   1.923  -2.185  0.00  0.00    +0.000 A 
ATOM     18  N   UNL     1       1.694   1.117  -3.214  0.00  0.00    +0.000 NA
ATOM     19  C   UNL     1       2.161  -0.118  -2.887  0.00  0.00    +0.000 A 
ATOM     20  C   UNL     1       2.313  -0.612  -1.587  0.00  0.00    +0.000 A 
ATOM     21  C   UNL     1       1.955   0.273  -0.565  0.00  0.00    +0.000 A 
ENDBRANCH  14  20
ENDBRANCH  13  14
ENDBRANCH   1  13
TORSDOF 4
