REMARK  Name = 
REMARK  7 active torsions:
REMARK  status: ('A' for Active; 'I' for Inactive)
REMARK    1  A    between atoms: C_2  and  C_4
REMARK    2  A    between atoms: C_7  and  N_8
REMARK    3  A    between atoms: N_8  and  C_9
REMARK    4  A    between atoms: C_9  and  C_10
REMARK    5  A    between atoms: C_10  and  C_13
REMARK    6  A    between atoms: C_17  and  C_18
REMARK    7  A    between atoms: C_18  and  C_19
REMARK                            x       y       z     vdW  Elec       q    Type
REMARK                         _______ _______ _______ _____ _____    ______ ____
ROOT
ATOM      1  C   UNL     1       6.408  -5.594   4.211  0.00  0.00    +0.000 C 
ATOM      2  F   UNL     1       7.640  -5.412   3.651  0.00  0.00    +0.000 F 
ATOM      3  F   UNL     1       6.450  -4.911   5.398  0.00  0.00    +0.000 F 
ENDROOT
BRANCH   1   4
ATOM      4  C   UNL     1       6.076  -7.059   4.400  0.00  0.00    +0.000 A 
ATOM      5  C   UNL     1       5.261  -7.468   5.465  0.00  0.00    +0.000 A 
ATOM      6  C   UNL     1       4.906  -8.808   5.604  0.00  0.00    +0.000 A 
ATOM      7  C   UNL     1       5.365  -9.751   4.684  0.00  0.00    +0.000 A 
ATOM      8  C   UNL     1       6.189  -9.369   3.616  0.00  0.00    +0.000 A 
ATOM      9  C   UNL     1       6.537  -8.019   3.481  0.00  0.00    +0.000 A 
BRANCH   8  10
ATOM     10  C   UNL     1       6.687 -10.396   2.626  0.00  0.00    +0.000 C 
BRANCH  10  11
ATOM     11  C   UNL     1       5.783 -10.458   1.401  0.00  0.00    +0.000 C 
ATOM     12  C   UNL     1       4.373 -11.055   1.567  0.00  0.00    +0.000 C 
ATOM     13  N   UNL     1       4.628 -11.981   0.457  0.00  0.00    +0.000 NA
ATOM     14  C   UNL     1       6.058 -11.650   0.463  0.00  0.00    +0.000 C 
ATOM     15  H   UNL     1       4.150 -11.731  -0.408  0.00  0.00    +0.000 HD
ENDBRANCH  10  11
ENDBRANCH   8  10
ENDBRANCH   1   4
BRANCH   1  16
ATOM     16  C   UNL     1       5.336  -4.929   3.312  0.00  0.00    +0.000 C 
BRANCH  16  17
ATOM     17  N   UNL     1       5.575  -3.495   3.097  0.00  0.00    +0.000 N 
ATOM     18  H   UNL     1       5.990  -3.008   3.891  0.00  0.00    +0.000 HD
BRANCH  17  22
ATOM     19  C   UNL     1       3.247  -1.095   0.537  0.00  0.00    +0.000 A 
ATOM     20  C   UNL     1       2.886  -2.428   0.738  0.00  0.00    +0.000 A 
ATOM     21  C   UNL     1       3.635  -3.232   1.608  0.00  0.00    +0.000 A 
ATOM     22  C   UNL     1       4.730  -2.718   2.315  0.00  0.00    +0.000 A 
ATOM     23  C   UNL     1       5.078  -1.380   2.096  0.00  0.00    +0.000 A 
ATOM     24  C   UNL     1       4.351  -0.574   1.214  0.00  0.00    +0.000 A 
BRANCH  19  26
ATOM     25  N   UNL     1       1.210  -0.508  -0.662  0.00  0.00    +0.000 N 
ATOM     26  C   UNL     1       2.526  -0.223  -0.423  0.00  0.00    +0.000 C 
ATOM     27  O   UNL     1       3.069   0.732  -0.961  0.00  0.00    +0.000 OA
ATOM     28  H   UNL     1       0.709   0.156  -1.238  0.00  0.00    +0.000 HD
ATOM     29  H   UNL     1       0.669  -1.109  -0.058  0.00  0.00    +0.000 HD
ENDBRANCH  19  26
ENDBRANCH  17  22
ENDBRANCH  16  17
ENDBRANCH   1  16
TORSDOF 7
