REMARK  Name = 
REMARK  5 active torsions:
REMARK  status: ('A' for Active; 'I' for Inactive)
REMARK    1  A    between atoms: N_1  and  C_2
REMARK    2  A    between atoms: C_2  and  C_3
REMARK    3  A    between atoms: C_3  and  C_4
REMARK    4  A    between atoms: C_7  and  C_8
REMARK    5  A    between atoms: C_8  and  N_9
REMARK                            x       y       z     vdW  Elec       q    Type
REMARK                         _______ _______ _______ _____ _____    ______ ____
ROOT
ATOM      1  C   UNL     1       4.693  -0.062  -1.548  0.00  0.00    +0.000 A 
ATOM      2  C   UNL     1       5.483  -1.213  -1.642  0.00  0.00    +0.000 A 
ATOM      3  C   UNL     1       6.875  -1.111  -1.707  0.00  0.00    +0.000 A 
ATOM      4  C   UNL     1       7.511   0.131  -1.682  0.00  0.00    +0.000 A 
ATOM      5  C   UNL     1       6.716   1.288  -1.590  0.00  0.00    +0.000 A 
ATOM      6  C   UNL     1       5.323   1.187  -1.509  0.00  0.00    +0.000 A 
ENDROOT
BRANCH   1   7
ATOM      7  C   UNL     1       3.190  -0.164  -1.494  0.00  0.00    +0.000 C 
BRANCH   7   8
ATOM      8  C   UNL     1       2.649  -0.273  -0.064  0.00  0.00    +0.000 C 
BRANCH   8   9
ATOM      9  N   UNL     1       1.187  -0.355  -0.064  0.00  0.00    +0.000 NA
ATOM     10  H   UNL     1       0.851  -0.427   0.896  0.00  0.00    +0.000 HD
ATOM     11  H   UNL     1       0.888  -1.207  -0.536  0.00  0.00    +0.000 HD
ENDBRANCH   8   9
ENDBRANCH   7   8
ENDBRANCH   1   7
BRANCH   4  12
ATOM     12  C   UNL     1       9.015   0.236  -1.752  0.00  0.00    +0.000 C 
BRANCH  12  13
ATOM     13  N   UNL     1       9.530   0.378  -3.112  0.00  0.00    +0.000 N 
ATOM     14  C   UNL     1       9.429  -0.595  -4.072  0.00  0.00    +0.000 A 
ATOM     15  C   UNL     1      10.115  -0.175  -5.185  0.00  0.00    +0.000 A 
ATOM     16  C   UNL     1      10.886   0.946  -4.790  0.00  0.00    +0.000 A 
ATOM     17  C   UNL     1      11.974   1.620  -5.373  0.00  0.00    +0.000 A 
ATOM     18  C   UNL     1      12.527   2.702  -4.695  0.00  0.00    +0.000 A 
ATOM     19  F   UNL     1      13.643   3.270  -5.174  0.00  0.00    +0.000 F 
ATOM     20  C   UNL     1      11.963   3.192  -3.525  0.00  0.00    +0.000 A 
ATOM     21  C   UNL     1      10.877   2.541  -2.931  0.00  0.00    +0.000 A 
ATOM     22  C   UNL     1      10.408   1.364  -3.541  0.00  0.00    +0.000 A 
ENDBRANCH  12  13
ENDBRANCH   4  12
TORSDOF 5
