REMARK  Name = 
REMARK  5 active torsions:
REMARK  status: ('A' for Active; 'I' for Inactive)
REMARK    1  A    between atoms: C_2  and  C_3
REMARK    2  A    between atoms: C_6  and  N_7
REMARK    3  A    between atoms: N_7  and  C_8
REMARK    4  A    between atoms: C_8  and  C_9
REMARK    5  A    between atoms: C_13  and  C_14
REMARK                            x       y       z     vdW  Elec       q    Type
REMARK                         _______ _______ _______ _____ _____    ______ ____
ROOT
ATOM      1  C   UNL     1       8.586  -0.809  -0.810  0.00  0.00    +0.000 C 
ATOM      2  C   UNL     1       7.688  -1.054   0.403  0.00  0.00    +0.000 C 
ATOM      3  C   UNL     1       7.128  -0.392  -0.811  0.00  0.00    +0.000 C 
ENDROOT
BRANCH   1   4
ATOM      4  C   UNL     1       9.627   0.296  -0.662  0.00  0.00    +0.000 A 
ATOM      5  C   UNL     1       9.723   1.356  -1.572  0.00  0.00    +0.000 A 
ATOM      6  C   UNL     1      10.540   2.454  -1.311  0.00  0.00    +0.000 A 
ATOM      7  C   UNL     1      11.313   2.489  -0.151  0.00  0.00    +0.000 A 
ATOM      8  C   UNL     1      11.333   1.403   0.737  0.00  0.00    +0.000 A 
ATOM      9  C   UNL     1      10.470   0.333   0.465  0.00  0.00    +0.000 A 
BRANCH   8  10
ATOM     10  C   UNL     1      12.238   1.452   1.967  0.00  0.00    +0.000 C 
ATOM     11  C   UNL     1      13.720   1.640   1.585  0.00  0.00    +0.000 C 
ATOM     12  C   UNL     1      14.351   0.342   1.081  0.00  0.00    +0.000 C 
ATOM     13  N   UNL     1      14.249  -0.734   2.070  0.00  0.00    +0.000 NA
ATOM     14  C   UNL     1      12.855  -0.995   2.425  0.00  0.00    +0.000 C 
ATOM     15  C   UNL     1      12.143   0.259   2.943  0.00  0.00    +0.000 C 
ATOM     16  H   UNL     1      14.766  -0.471   2.907  0.00  0.00    +0.000 HD
ENDBRANCH   8  10
ENDBRANCH   1   4
BRANCH   1  17
ATOM     17  N   UNL     1       9.044  -2.016  -1.490  0.00  0.00    +0.000 N 
ATOM     18  H   UNL     1       9.616  -2.697  -1.003  0.00  0.00    +0.000 HD
BRANCH  17  22
ATOM     19  C   UNL     1       9.159  -2.856  -5.506  0.00  0.00    +0.000 A 
ATOM     20  C   UNL     1       9.754  -3.667  -4.556  0.00  0.00    +0.000 A 
ATOM     21  N   UNL     1       9.732  -3.379  -3.229  0.00  0.00    +0.000 NA
ATOM     22  C   UNL     1       9.091  -2.246  -2.856  0.00  0.00    +0.000 A 
ATOM     23  C   UNL     1       8.503  -1.435  -3.828  0.00  0.00    +0.000 A 
ATOM     24  N   UNL     1       8.521  -1.710  -5.163  0.00  0.00    +0.000 NA
BRANCH  19  26
ATOM     25  N   UNL     1       9.204  -3.549  -8.002  0.00  0.00    +0.000 NA
ATOM     26  C   UNL     1       9.175  -3.215  -6.894  0.00  0.00    +0.000 C 
ENDBRANCH  19  26
ENDBRANCH  17  22
ENDBRANCH   1  17
TORSDOF 5
