REMARK  Name = 
REMARK  8 active torsions:
REMARK  status: ('A' for Active; 'I' for Inactive)
REMARK    1  A    between atoms: C_1  and  O_2
REMARK    2  A    between atoms: O_2  and  C_3
REMARK    3  A    between atoms: C_10  and  C_11
REMARK    4  A    between atoms: N_13  and  C_14
REMARK    5  A    between atoms: C_14  and  C_15
REMARK    6  A    between atoms: C_18  and  N_19
REMARK    7  A    between atoms: N_19  and  C_20
REMARK    8  A    between atoms: C_20  and  C_21
REMARK                            x       y       z     vdW  Elec       q    Type
REMARK                         _______ _______ _______ _____ _____    ______ ____
ROOT
ATOM      1  C   UNL     1       2.862   1.044   3.296  0.00  0.00    +0.000 C 
ENDROOT
BRANCH   1   2
ATOM      2  C   UNL     1       1.835   2.063   2.876  0.00  0.00    +0.000 A 
ATOM      3  C   UNL     1       0.537   1.676   2.524  0.00  0.00    +0.000 A 
ATOM      4  C   UNL     1      -0.390   2.610   2.034  0.00  0.00    +0.000 A 
ATOM      5  C   UNL     1      -0.064   3.966   1.934  0.00  0.00    +0.000 A 
ATOM      6  C   UNL     1       1.240   4.341   2.299  0.00  0.00    +0.000 A 
ATOM      7  C   UNL     1       2.176   3.412   2.767  0.00  0.00    +0.000 A 
BRANCH   5   8
ATOM      8  N   UNL     1      -1.006   4.857   1.345  0.00  0.00    +0.000 N 
ATOM      9  H   UNL     1      -0.914   4.780   0.332  0.00  0.00    +0.000 HD
BRANCH   8  10
ATOM     10  C   UNL     1      -0.852   6.245   1.794  0.00  0.00    +0.000 C 
BRANCH  10  11
ATOM     11  C   UNL     1      -1.746   7.288   1.095  0.00  0.00    +0.000 C 
ATOM     12  C   UNL     1      -1.499   7.441  -0.414  0.00  0.00    +0.000 C 
ATOM     13  C   UNL     1      -0.065   7.887  -0.699  0.00  0.00    +0.000 C 
ATOM     14  C   UNL     1       0.343   9.105   0.140  0.00  0.00    +0.000 C 
ATOM     15  N   UNL     1      -0.023   9.007   1.554  0.00  0.00    +0.000 NA
ATOM     16  C   UNL     1      -1.436   8.655   1.745  0.00  0.00    +0.000 C 
ATOM     17  H   UNL     1       0.190   9.882   2.033  0.00  0.00    +0.000 HD
ENDBRANCH  10  11
ENDBRANCH   8  10
ENDBRANCH   5   8
ENDBRANCH   1   2
BRANCH   1  20
ATOM     18  C   UNL     1       4.100  -0.726   2.112  0.00  0.00    +0.000 C 
ATOM     19  O   UNL     1       3.980  -1.495   3.063  0.00  0.00    +0.000 OA
ATOM     20  N   UNL     1       3.574   0.534   2.142  0.00  0.00    +0.000 N 
ATOM     21  H   UNL     1       3.770   1.186   1.394  0.00  0.00    +0.000 HD
BRANCH  18  29
ATOM     22  C   UNL     1       4.763   0.805  -0.900  0.00  0.00    +0.000 A 
ATOM     23  N   UNL     1       5.163   1.157  -2.141  0.00  0.00    +0.000 NA
ATOM     24  C   UNL     1       5.861   0.275  -2.859  0.00  0.00    +0.000 A 
ATOM     25  N   UNL     1       6.228  -0.950  -2.479  0.00  0.00    +0.000 NA
ATOM     26  C   UNL     1       5.805  -1.259  -1.236  0.00  0.00    +0.000 A 
ATOM     27  S   UNL     1       6.171  -2.787  -0.597  0.00  0.00    +0.000 S 
ATOM     28  C   UNL     1       5.374  -2.417   0.859  0.00  0.00    +0.000 A 
ATOM     29  C   UNL     1       4.828  -1.141   0.895  0.00  0.00    +0.000 A 
ATOM     30  C   UNL     1       5.084  -0.451  -0.366  0.00  0.00    +0.000 A 
BRANCH  22  32
ATOM     31  C   UNL     1       3.314   2.621  -1.014  0.00  0.00    +0.000 C 
ATOM     32  O   UNL     1       4.057   1.739  -0.172  0.00  0.00    +0.000 OA
ENDBRANCH  22  32
ENDBRANCH  18  29
ENDBRANCH   1  20
TORSDOF 7
