REMARK  Name = 
REMARK  9 active torsions:
REMARK  status: ('A' for Active; 'I' for Inactive)
REMARK    1  A    between atoms: C_1  and  C_2
REMARK    2  A    between atoms: C_2  and  N_3
REMARK    3  A    between atoms: C_4  and  C_6
REMARK    4  A    between atoms: C_9  and  O_10
REMARK    5  A    between atoms: O_10  and  C_11
REMARK    6  A    between atoms: C_11  and  C_12
REMARK    7  A    between atoms: C_12  and  C_13
REMARK    8  A    between atoms: C_12  and  C_14
REMARK    9  A    between atoms: C_12  and  C_15
REMARK                            x       y       z     vdW  Elec       q    Type
REMARK                         _______ _______ _______ _____ _____    ______ ____
ROOT
ATOM      1  C   UNL     1       5.143   0.348   2.969  0.00  0.00    +0.000 A 
ATOM      2  C   UNL     1       4.473  -0.216   4.060  0.00  0.00    +0.000 A 
ATOM      3  C   UNL     1       4.924   0.018   5.365  0.00  0.00    +0.000 A 
ATOM      4  C   UNL     1       6.050   0.815   5.588  0.00  0.00    +0.000 A 
ATOM      5  C   UNL     1       6.721   1.373   4.496  0.00  0.00    +0.000 A 
ATOM      6  C   UNL     1       6.275   1.139   3.192  0.00  0.00    +0.000 A 
ENDROOT
BRANCH   1   8
ATOM      7  N   UNL     1       3.391  -0.195   1.356  0.00  0.00    +0.000 N 
ATOM      8  C   UNL     1       4.729   0.075   1.570  0.00  0.00    +0.000 C 
ATOM      9  O   UNL     1       5.561   0.104   0.672  0.00  0.00    +0.000 OA
ATOM     10  H   UNL     1       2.723  -0.053   2.102  0.00  0.00    +0.000 HD
BRANCH   7  12
ATOM     11  C   UNL     1       2.463   0.791  -0.695  0.00  0.00    +0.000 C 
ATOM     12  C   UNL     1       2.891  -0.473   0.028  0.00  0.00    +0.000 C 
ENDBRANCH   7  12
ENDBRANCH   1   8
BRANCH   4  13
ATOM     13  O   UNL     1       6.591   1.107   6.808  0.00  0.00    +0.000 OA
BRANCH  13  14
ATOM     14  C   UNL     1       5.956   0.550   7.967  0.00  0.00    +0.000 C 
BRANCH  14  15
ATOM     15  C   UNL     1       6.709   0.989   9.259  0.00  0.00    +0.000 C 
ATOM     16  C   UNL     1       8.175   0.495   9.207  0.00  0.00    +0.000 C 
ATOM     17  C   UNL     1       6.764   2.536   9.286  0.00  0.00    +0.000 C 
BRANCH  15  18
ATOM     18  C   UNL     1       6.038   0.379  10.508  0.00  0.00    +0.000 A 
ATOM     19  C   UNL     1       5.941  -1.020  10.649  0.00  0.00    +0.000 A 
ATOM     20  C   UNL     1       5.453  -1.603  11.822  0.00  0.00    +0.000 A 
ATOM     21  C   UNL     1       5.042  -0.802  12.880  0.00  0.00    +0.000 A 
ATOM     22  C   UNL     1       5.086   0.582  12.751  0.00  0.00    +0.000 A 
ATOM     23  C   UNL     1       5.570   1.165  11.575  0.00  0.00    +0.000 A 
ENDBRANCH  15  18
ENDBRANCH  14  15
ENDBRANCH  13  14
ENDBRANCH   4  13
TORSDOF 6
