REMARK  Name = 
REMARK  5 active torsions:
REMARK  status: ('A' for Active; 'I' for Inactive)
REMARK    1  A    between atoms: N_1  and  C_2
REMARK    2  A    between atoms: C_2  and  C_3
REMARK    3  A    between atoms: C_3  and  C_4
REMARK    4  A    between atoms: C_8  and  C_9
REMARK    5  A    between atoms: C_9  and  N_10
REMARK                            x       y       z     vdW  Elec       q    Type
REMARK                         _______ _______ _______ _____ _____    ______ ____
ROOT
ATOM      1  C   UNL     1       4.358  -1.270  -0.695  0.00  0.00    +0.000 A 
ATOM      2  C   UNL     1       5.009  -1.171  -1.929  0.00  0.00    +0.000 A 
ATOM      3  C   UNL     1       6.401  -1.122  -1.987  0.00  0.00    +0.000 A 
ATOM      4  C   UNL     1       7.153  -1.125  -0.809  0.00  0.00    +0.000 A 
ATOM      5  C   UNL     1       6.520  -1.168   0.440  0.00  0.00    +0.000 A 
ATOM      6  C   UNL     1       5.120  -1.273   0.484  0.00  0.00    +0.000 A 
ENDROOT
BRANCH   1   7
ATOM      7  C   UNL     1       2.850  -1.295  -0.620  0.00  0.00    +0.000 C 
BRANCH   7   8
ATOM      8  C   UNL     1       2.281   0.117  -0.440  0.00  0.00    +0.000 C 
BRANCH   8   9
ATOM      9  N   UNL     1       0.823   0.096  -0.368  0.00  0.00    +0.000 NA
ATOM     10  H   UNL     1       0.481   1.044  -0.212  0.00  0.00    +0.000 HD
ATOM     11  H   UNL     1       0.525  -0.451   0.439  0.00  0.00    +0.000 HD
ENDBRANCH   8   9
ENDBRANCH   7   8
ENDBRANCH   1   7
BRANCH   5  12
ATOM     12  C   UNL     1       7.306  -1.000   1.715  0.00  0.00    +0.000 C 
BRANCH  12  13
ATOM     13  N   UNL     1       7.782  -2.251   2.292  0.00  0.00    +0.000 N 
ATOM     14  C   UNL     1       9.029  -2.777   2.047  0.00  0.00    +0.000 A 
ATOM     15  C   UNL     1       9.220  -3.841   2.898  0.00  0.00    +0.000 A 
ATOM     16  C   UNL     1       8.057  -3.966   3.704  0.00  0.00    +0.000 A 
ATOM     17  C   UNL     1       7.687  -4.826   4.746  0.00  0.00    +0.000 A 
ATOM     18  N   UNL     1       6.487  -4.695   5.361  0.00  0.00    +0.000 NA
ATOM     19  C   UNL     1       5.649  -3.723   4.943  0.00  0.00    +0.000 A 
ATOM     20  C   UNL     1       5.919  -2.822   3.923  0.00  0.00    +0.000 A 
ATOM     21  C   UNL     1       7.163  -2.965   3.303  0.00  0.00    +0.000 A 
ENDBRANCH  12  13
ENDBRANCH   5  12
TORSDOF 5
