REMARK  Name = 
REMARK  5 active torsions:
REMARK  status: ('A' for Active; 'I' for Inactive)
REMARK    1  A    between atoms: C_1  and  C_2
REMARK    2  A    between atoms: C_6  and  C_7
REMARK    3  A    between atoms: C_7  and  N_8
REMARK    4  A    between atoms: N_8  and  C_9
REMARK    5  A    between atoms: C_12  and  C_13
REMARK                            x       y       z     vdW  Elec       q    Type
REMARK                         _______ _______ _______ _____ _____    ______ ____
ROOT
ATOM      1  C   UNL     1      -1.216   4.955   0.779  0.00  0.00    +0.000 A 
ATOM      2  C   UNL     1      -0.301   5.826   1.375  0.00  0.00    +0.000 A 
ATOM      3  C   UNL     1      -0.730   7.035   1.923  0.00  0.00    +0.000 A 
ATOM      4  C   UNL     1      -2.075   7.356   1.818  0.00  0.00    +0.000 A 
ATOM      5  N   UNL     1      -3.000   6.564   1.210  0.00  0.00    +0.000 NA
ATOM      6  C   UNL     1      -2.539   5.395   0.705  0.00  0.00    +0.000 A 
ENDROOT
BRANCH   4   7
ATOM      7  C   UNL     1      -2.579   8.652   2.374  0.00  0.00    +0.000 C 
ATOM      8  N   UNL     1      -3.917   8.877   2.207  0.00  0.00    +0.000 N 
ATOM      9  O   UNL     1      -1.850   9.464   2.931  0.00  0.00    +0.000 OA
ATOM     10  H   UNL     1      -4.481   8.188   1.722  0.00  0.00    +0.000 HD
ATOM     11  H   UNL     1      -4.323   9.743   2.529  0.00  0.00    +0.000 HD
ENDBRANCH   4   7
BRANCH   1  12
ATOM     12  N   UNL     1      -0.731   3.766   0.211  0.00  0.00    +0.000 N 
ATOM     13  H   UNL     1      -0.304   3.969  -0.694  0.00  0.00    +0.000 HD
BRANCH  12  14
ATOM     14  C   UNL     1      -1.668   2.646   0.099  0.00  0.00    +0.000 C 
BRANCH  14  20
ATOM     15  C   UNL     1       2.238  -0.392   1.186  0.00  0.00    +0.000 C 
ATOM     16  C   UNL     1       0.902  -0.153   0.560  0.00  0.00    +0.000 A 
ATOM     17  C   UNL     1       0.217  -1.156  -0.113  0.00  0.00    +0.000 A 
ATOM     18  N   UNL     1      -0.988  -0.987  -0.699  0.00  0.00    +0.000 NA
ATOM     19  C   UNL     1      -1.536   0.246  -0.618  0.00  0.00    +0.000 A 
ATOM     20  C   UNL     1      -0.938   1.333   0.012  0.00  0.00    +0.000 A 
ATOM     21  C   UNL     1       0.298   1.105   0.629  0.00  0.00    +0.000 A 
ENDBRANCH  14  20
ENDBRANCH  12  14
ENDBRANCH   1  12
TORSDOF 4
