REMARK  Name = 
REMARK  7 active torsions:
REMARK  status: ('A' for Active; 'I' for Inactive)
REMARK    1  A    between atoms: C_2  and  C_3
REMARK    2  A    between atoms: C_8  and  N_9
REMARK    3  A    between atoms: N_9  and  C_10
REMARK    4  A    between atoms: C_10  and  C_11
REMARK    5  A    between atoms: C_16  and  C_17
REMARK    6  A    between atoms: C_21  and  C_22
REMARK    7  A    between atoms: C_22  and  O_23
REMARK                            x       y       z     vdW  Elec       q    Type
REMARK                         _______ _______ _______ _____ _____    ______ ____
ROOT
ATOM      1  C   UNL     1       0.442   5.647   0.815  0.00  0.00    +0.000 A 
ATOM      2  C   UNL     1      -0.264   6.772   0.378  0.00  0.00    +0.000 A 
ATOM      3  C   UNL     1       0.182   8.047   0.711  0.00  0.00    +0.000 A 
ATOM      4  C   UNL     1       1.347   8.204   1.461  0.00  0.00    +0.000 A 
ATOM      5  F   UNL     1       1.736   9.463   1.714  0.00  0.00    +0.000 F 
ATOM      6  C   UNL     1       2.098   7.106   1.924  0.00  0.00    +0.000 A 
ATOM      7  C   UNL     1       1.613   5.826   1.579  0.00  0.00    +0.000 A 
ENDROOT
BRANCH   6   8
ATOM      8  C   UNL     1       3.341   7.276   2.725  0.00  0.00    +0.000 A 
ATOM      9  C   UNL     1       4.398   6.351   2.653  0.00  0.00    +0.000 A 
ATOM     10  C   UNL     1       5.586   6.537   3.366  0.00  0.00    +0.000 A 
ATOM     11  C   UNL     1       5.764   7.677   4.146  0.00  0.00    +0.000 A 
ATOM     12  C   UNL     1       4.741   8.622   4.252  0.00  0.00    +0.000 A 
ATOM     13  C   UNL     1       3.536   8.392   3.563  0.00  0.00    +0.000 A 
BRANCH  12  14
ATOM     14  C   UNL     1       4.940   9.939   4.960  0.00  0.00    +0.000 C 
BRANCH  14  15
ATOM     15  O   UNL     1       5.849   9.838   6.048  0.00  0.00    +0.000 OA
ATOM     16  H   UNL     1       5.514   9.129   6.621  0.00  0.00    +0.000 HD
ENDBRANCH  14  15
ENDBRANCH  12  14
ENDBRANCH   6   8
BRANCH   1  17
ATOM     17  C   UNL     1      -0.077   4.261   0.513  0.00  0.00    +0.000 C 
BRANCH  17  18
ATOM     18  N   UNL     1       0.336   3.805  -0.808  0.00  0.00    +0.000 N 
ATOM     19  H   UNL     1       1.296   4.047  -1.047  0.00  0.00    +0.000 HD
BRANCH  18  25
ATOM     20  C   UNL     1      -1.368   0.475  -1.063  0.00  0.00    +0.000 A 
ATOM     21  C   UNL     1      -0.882   0.027  -2.289  0.00  0.00    +0.000 A 
ATOM     22  C   UNL     1      -0.000   0.837  -2.992  0.00  0.00    +0.000 A 
ATOM     23  F   UNL     1       0.451   0.426  -4.185  0.00  0.00    +0.000 F 
ATOM     24  C   UNL     1       0.418   2.068  -2.486  0.00  0.00    +0.000 A 
ATOM     25  C   UNL     1      -0.040   2.530  -1.243  0.00  0.00    +0.000 A 
ATOM     26  C   UNL     1      -0.967   1.724  -0.565  0.00  0.00    +0.000 A 
BRANCH  20  28
ATOM     27  N   UNL     1      -2.984  -0.986   0.340  0.00  0.00    +0.000 NA
ATOM     28  C   UNL     1      -2.268  -0.338  -0.298  0.00  0.00    +0.000 C 
ENDBRANCH  20  28
ENDBRANCH  18  25
ENDBRANCH  17  18
ENDBRANCH   1  17
TORSDOF 7
