REMARK  Name = 
REMARK  4 active torsions:
REMARK  status: ('A' for Active; 'I' for Inactive)
REMARK    1  A    between atoms: C_2  and  C_4
REMARK    2  A    between atoms: N_8  and  C_9
REMARK    3  A    between atoms: C_9  and  C_10
REMARK    4  A    between atoms: C_14  and  C_15
REMARK                            x       y       z     vdW  Elec       q    Type
REMARK                         _______ _______ _______ _____ _____    ______ ____
ROOT
ATOM      1  C   UNL     1       5.128   3.684   4.831  0.00  0.00    +0.000 C 
ENDROOT
BRANCH   1   6
ATOM      2  C   UNL     1       1.531   2.829   1.473  0.00  0.00    +0.000 A 
ATOM      3  C   UNL     1       2.558   3.417   0.741  0.00  0.00    +0.000 A 
ATOM      4  C   UNL     1       3.735   3.784   1.398  0.00  0.00    +0.000 A 
ATOM      5  C   UNL     1       3.871   3.549   2.766  0.00  0.00    +0.000 A 
ATOM      6  N   UNL     1       5.031   4.003   3.404  0.00  0.00    +0.000 N 
ATOM      7  N   UNL     1       2.873   2.994   3.481  0.00  0.00    +0.000 NA
ATOM      8  C   UNL     1       1.729   2.655   2.832  0.00  0.00    +0.000 A 
ATOM      9  H   UNL     1       5.860   3.689   2.907  0.00  0.00    +0.000 HD
BRANCH   2  11
ATOM     10  N   UNL     1       0.246   2.075  -0.446  0.00  0.00    +0.000 N 
ATOM     11  C   UNL     1       0.244   2.413   0.879  0.00  0.00    +0.000 C 
ATOM     12  O   UNL     1      -0.775   2.337   1.550  0.00  0.00    +0.000 OA
ATOM     13  H   UNL     1      -0.615   1.687  -0.809  0.00  0.00    +0.000 HD
ATOM     14  H   UNL     1       1.096   1.885  -0.958  0.00  0.00    +0.000 HD
ENDBRANCH   2  11
ENDBRANCH   1   6
BRANCH   1  15
ATOM     15  C   UNL     1       6.097   4.635   5.516  0.00  0.00    +0.000 A 
ATOM     16  C   UNL     1       5.846   6.005   5.469  0.00  0.00    +0.000 A 
ATOM     17  C   UNL     1       6.699   6.867   6.142  0.00  0.00    +0.000 A 
ATOM     18  C   UNL     1       7.770   6.339   6.855  0.00  0.00    +0.000 A 
ATOM     19  C   UNL     1       7.970   4.958   6.875  0.00  0.00    +0.000 A 
ATOM     20  N   UNL     1       7.151   4.109   6.198  0.00  0.00    +0.000 NA
BRANCH  19  21
ATOM     21  C   UNL     1       9.079   4.333   7.628  0.00  0.00    +0.000 A 
ATOM     22  C   UNL     1       9.571   4.889   8.829  0.00  0.00    +0.000 A 
ATOM     23  C   UNL     1      10.639   4.311   9.525  0.00  0.00    +0.000 A 
ATOM     24  C   UNL     1      11.236   3.155   9.036  0.00  0.00    +0.000 A 
ATOM     25  C   UNL     1      10.752   2.583   7.866  0.00  0.00    +0.000 A 
ATOM     26  F   UNL     1      11.325   1.467   7.397  0.00  0.00    +0.000 F 
ATOM     27  C   UNL     1       9.689   3.153   7.170  0.00  0.00    +0.000 A 
ENDBRANCH  19  21
ENDBRANCH   1  15
TORSDOF 4
