REMARK  Name = 
REMARK  9 active torsions:
REMARK  status: ('A' for Active; 'I' for Inactive)
REMARK    1  A    between atoms: C_1  and  C_2
REMARK    2  A    between atoms: C_2  and  C_3
REMARK    3  A    between atoms: C_2  and  C_4
REMARK    4  A    between atoms: C_2  and  O_5
REMARK    5  A    between atoms: O_5  and  C_6
REMARK    6  A    between atoms: C_6  and  C_7
REMARK    7  A    between atoms: C_10  and  C_11
REMARK    8  A    between atoms: C_11  and  N_12
REMARK    9  A    between atoms: C_17  and  C_18
REMARK                            x       y       z     vdW  Elec       q    Type
REMARK                         _______ _______ _______ _____ _____    ______ ____
ROOT
ATOM      1  N   UNL     1       4.457   2.549   7.454  0.00  0.00    +0.000 N 
ATOM      2  C   UNL     1       3.919   1.533   8.210  0.00  0.00    +0.000 A 
ATOM      3  C   UNL     1       2.866   2.045   8.929  0.00  0.00    +0.000 A 
ATOM      4  C   UNL     1       2.754   3.424   8.609  0.00  0.00    +0.000 A 
ATOM      5  C   UNL     1       1.904   4.450   9.040  0.00  0.00    +0.000 A 
ATOM      6  C   UNL     1       2.121   5.704   8.490  0.00  0.00    +0.000 A 
ATOM      7  N   UNL     1       3.079   5.994   7.564  0.00  0.00    +0.000 NA
ATOM      8  C   UNL     1       3.896   5.001   7.145  0.00  0.00    +0.000 A 
ATOM      9  C   UNL     1       3.749   3.718   7.671  0.00  0.00    +0.000 A 
ENDROOT
BRANCH   6  10
ATOM     10  C   UNL     1       1.266   6.851   8.941  0.00  0.00    +0.000 C 
ATOM     11  N   UNL     1       1.547   8.059   8.362  0.00  0.00    +0.000 N 
ATOM     12  O   UNL     1       0.378   6.732   9.776  0.00  0.00    +0.000 OA
ATOM     13  H   UNL     1       2.300   8.125   7.685  0.00  0.00    +0.000 HD
ATOM     14  H   UNL     1       1.024   8.876   8.634  0.00  0.00    +0.000 HD
ENDBRANCH   6  10
BRANCH   1  15
ATOM     15  C   UNL     1       5.673   2.412   6.657  0.00  0.00    +0.000 C 
BRANCH  15  19
ATOM     16  C   UNL     1       4.848   0.907   2.683  0.00  0.00    +0.000 A 
ATOM     17  C   UNL     1       4.888   2.286   2.927  0.00  0.00    +0.000 A 
ATOM     18  C   UNL     1       5.155   2.774   4.208  0.00  0.00    +0.000 A 
ATOM     19  C   UNL     1       5.391   1.893   5.271  0.00  0.00    +0.000 A 
ATOM     20  C   UNL     1       5.359   0.513   5.024  0.00  0.00    +0.000 A 
ATOM     21  C   UNL     1       5.091   0.026   3.743  0.00  0.00    +0.000 A 
BRANCH  16  22
ATOM     22  C   UNL     1       4.478   0.381   1.319  0.00  0.00    +0.000 C 
BRANCH  22  23
ATOM     23  O   UNL     1       5.392   0.873   0.342  0.00  0.00    +0.000 OA
BRANCH  23  25
ATOM     24  C   UNL     1       3.771   1.063  -1.492  0.00  0.00    +0.000 C 
ATOM     25  C   UNL     1       5.121   0.509  -1.022  0.00  0.00    +0.000 C 
ATOM     26  C   UNL     1       5.193  -1.010  -1.228  0.00  0.00    +0.000 C 
ATOM     27  C   UNL     1       6.231   1.165  -1.857  0.00  0.00    +0.000 C 
ENDBRANCH  23  25
ENDBRANCH  22  23
ENDBRANCH  16  22
ENDBRANCH  15  19
ENDBRANCH   1  15
TORSDOF 6
