REMARK  Name = 
REMARK  5 active torsions:
REMARK  status: ('A' for Active; 'I' for Inactive)
REMARK    1  A    between atoms: C_2  and  C_3
REMARK    2  A    between atoms: C_6  and  C_7
REMARK    3  A    between atoms: C_7  and  N_8
REMARK    4  A    between atoms: N_8  and  C_9
REMARK    5  A    between atoms: C_12  and  C_13
REMARK                            x       y       z     vdW  Elec       q    Type
REMARK                         _______ _______ _______ _____ _____    ______ ____
ROOT
ATOM      1  N   UNL     1      -4.116  -1.078   0.652  0.00  0.00    +0.000 N 
ATOM      2  H   UNL     1      -4.793  -1.632   0.135  0.00  0.00    +0.000 HD
ENDROOT
BRANCH   1   3
ATOM      3  C   UNL     1      -4.340  -1.183   2.044  0.00  0.00    +0.000 A 
ATOM      4  C   UNL     1      -4.063  -0.161   2.959  0.00  0.00    +0.000 A 
ATOM      5  C   UNL     1      -4.288  -0.337   4.333  0.00  0.00    +0.000 A 
ATOM      6  C   UNL     1      -4.749  -1.565   4.816  0.00  0.00    +0.000 A 
ATOM      7  C   UNL     1      -4.970  -2.613   3.920  0.00  0.00    +0.000 A 
ATOM      8  C   UNL     1      -4.764  -2.421   2.550  0.00  0.00    +0.000 A 
BRANCH   6   9
ATOM      9  C   UNL     1      -4.967  -1.815   6.265  0.00  0.00    +0.000 C 
ATOM     10  N   UNL     1      -5.266  -0.739   7.053  0.00  0.00    +0.000 N 
ATOM     11  O   UNL     1      -4.912  -2.944   6.738  0.00  0.00    +0.000 OA
ATOM     12  H   UNL     1      -5.539   0.158   6.677  0.00  0.00    +0.000 HD
ATOM     13  H   UNL     1      -5.499  -0.938   8.018  0.00  0.00    +0.000 HD
ENDBRANCH   6   9
ENDBRANCH   1   3
BRANCH   1  14
ATOM     14  C   UNL     1      -3.674   0.182  -0.003  0.00  0.00    +0.000 C 
ATOM     15  C   UNL     1      -4.478   0.684  -1.203  0.00  0.00    +0.000 C 
ATOM     16  C   UNL     1      -4.523   1.439   0.077  0.00  0.00    +0.000 C 
ATOM     17  F   UNL     1      -5.717   1.392   0.777  0.00  0.00    +0.000 F 
BRANCH  14  21
ATOM     18  C   UNL     1       0.582   0.699  -0.507  0.00  0.00    +0.000 A 
ATOM     19  C   UNL     1      -0.000  -0.502  -0.897  0.00  0.00    +0.000 A 
ATOM     20  C   UNL     1      -1.373  -0.684  -0.713  0.00  0.00    +0.000 A 
ATOM     21  C   UNL     1      -2.149   0.334  -0.141  0.00  0.00    +0.000 A 
ATOM     22  N   UNL     1      -1.571   1.504   0.245  0.00  0.00    +0.000 NA
ATOM     23  C   UNL     1      -0.238   1.658   0.058  0.00  0.00    +0.000 A 
BRANCH  18  25
ATOM     24  N   UNL     1       3.103   1.173  -0.836  0.00  0.00    +0.000 NA
ATOM     25  C   UNL     1       1.975   0.953  -0.686  0.00  0.00    +0.000 C 
ENDBRANCH  18  25
ENDBRANCH  14  21
ENDBRANCH   1  14
TORSDOF 5
