REMARK  Name = 
REMARK  9 active torsions:
REMARK  status: ('A' for Active; 'I' for Inactive)
REMARK    1  A    between atoms: C_1  and  C_2
REMARK    2  A    between atoms: C_2  and  C_3
REMARK    3  A    between atoms: C_3  and  N_4
REMARK    4  A    between atoms: C_10  and  C_11
REMARK    5  A    between atoms: N_13  and  C_14
REMARK    6  A    between atoms: C_14  and  C_15
REMARK    7  A    between atoms: C_18  and  C_19
REMARK    8  A    between atoms: C_19  and  N_20
REMARK    9  A    between atoms: C_21  and  C_23
REMARK                            x       y       z     vdW  Elec       q    Type
REMARK                         _______ _______ _______ _____ _____    ______ ____
ROOT
ATOM      1  C   UNL     1       8.175  -7.049   0.787  0.00  0.00    +0.000 C 
ENDROOT
BRANCH   1   2
ATOM      2  C   UNL     1       9.499  -7.768   0.870  0.00  0.00    +0.000 A 
ATOM      3  C   UNL     1      10.015  -8.069   2.135  0.00  0.00    +0.000 A 
ATOM      4  C   UNL     1      11.237  -8.740   2.279  0.00  0.00    +0.000 A 
ATOM      5  C   UNL     1      11.983  -9.122   1.154  0.00  0.00    +0.000 A 
ATOM      6  C   UNL     1      11.477  -8.801  -0.110  0.00  0.00    +0.000 A 
ATOM      7  C   UNL     1      10.246  -8.149  -0.254  0.00  0.00    +0.000 A 
BRANCH   5   8
ATOM      8  C   UNL     1      13.303  -9.843   1.236  0.00  0.00    +0.000 C 
BRANCH   8   9
ATOM      9  N   UNL     1      13.179 -11.276   1.238  0.00  0.00    +0.000 N 
ATOM     10  C   UNL     1      14.275 -12.100   1.307  0.00  0.00    +0.000 C 
ATOM     11  O   UNL     1      15.432 -11.690   1.339  0.00  0.00    +0.000 OA
ATOM     12  H   UNL     1      12.268 -11.696   1.336  0.00  0.00    +0.000 HD
BRANCH  10  13
ATOM     13  C   UNL     1      13.934 -13.504   1.363  0.00  0.00    +0.000 A 
ATOM     14  C   UNL     1      12.701 -14.140   1.372  0.00  0.00    +0.000 A 
ATOM     15  C   UNL     1      12.923 -15.530   1.486  0.00  0.00    +0.000 A 
ATOM     16  C   UNL     1      14.284 -15.720   1.539  0.00  0.00    +0.000 A 
ATOM     17  N   UNL     1      14.888 -14.495   1.434  0.00  0.00    +0.000 N 
ATOM     18  H   UNL     1      15.885 -14.318   1.431  0.00  0.00    +0.000 HD
ENDBRANCH  10  13
ENDBRANCH   8   9
ENDBRANCH   5   8
ENDBRANCH   1   2
BRANCH   1  21
ATOM     19  C   UNL     1       7.204  -4.796   0.719  0.00  0.00    +0.000 C 
ATOM     20  O   UNL     1       6.052  -5.248   0.665  0.00  0.00    +0.000 OA
ATOM     21  N   UNL     1       8.300  -5.615   0.754  0.00  0.00    +0.000 N 
ATOM     22  H   UNL     1       9.196  -5.218   1.014  0.00  0.00    +0.000 HD
BRANCH  19  29
ATOM     23  N   UNL     1      10.581  -2.234   2.619  0.00  0.00    +0.000 N 
ATOM     24  C   UNL     1      10.439  -0.906   2.280  0.00  0.00    +0.000 A 
ATOM     25  N   UNL     1       9.483  -0.406   1.562  0.00  0.00    +0.000 NA
ATOM     26  C   UNL     1       8.573  -1.305   1.131  0.00  0.00    +0.000 A 
ATOM     27  S   UNL     1       7.223  -0.807   0.237  0.00  0.00    +0.000 S 
ATOM     28  C   UNL     1       6.664  -2.418   0.090  0.00  0.00    +0.000 A 
ATOM     29  C   UNL     1       7.484  -3.353   0.711  0.00  0.00    +0.000 A 
ATOM     30  C   UNL     1       8.606  -2.675   1.330  0.00  0.00    +0.000 A 
ATOM     31  C   UNL     1       9.724  -3.191   2.100  0.00  0.00    +0.000 A 
ATOM     32  O   UNL     1       9.947  -4.411   2.227  0.00  0.00    +0.000 OA
BRANCH  23  33
ATOM     33  C   UNL     1      11.728  -2.691   3.393  0.00  0.00    +0.000 C 
BRANCH  33  35
ATOM     34  C   UNL     1      14.070  -3.625   3.356  0.00  0.00    +0.000 C 
ATOM     35  C   UNL     1      12.894  -3.158   2.512  0.00  0.00    +0.000 C 
ENDBRANCH  33  35
ENDBRANCH  23  33
ENDBRANCH  19  29
ENDBRANCH   1  21
TORSDOF 8
