REMARK  Name = 
REMARK  5 active torsions:
REMARK  status: ('A' for Active; 'I' for Inactive)
REMARK    1  A    between atoms: C_2  and  C_4
REMARK    2  A    between atoms: C_7  and  O_8
REMARK    3  A    between atoms: O_8  and  C_9
REMARK    4  A    between atoms: C_9  and  C_10
REMARK    5  A    between atoms: C_15  and  C_16
REMARK                            x       y       z     vdW  Elec       q    Type
REMARK                         _______ _______ _______ _____ _____    ______ ____
ROOT
ATOM      1  C   UNL     1       5.166  -2.092   5.468  0.00  0.00    +0.000 C 
ATOM      2  C   UNL     1       5.089  -3.610   5.316  0.00  0.00    +0.000 C 
ATOM      3  C   UNL     1       3.861  -2.837   5.660  0.00  0.00    +0.000 C 
ENDROOT
BRANCH   1   4
ATOM      4  C   UNL     1       5.892  -1.549   6.690  0.00  0.00    +0.000 A 
ATOM      5  C   UNL     1       5.200  -0.947   7.749  0.00  0.00    +0.000 A 
ATOM      6  C   UNL     1       5.868  -0.561   8.902  0.00  0.00    +0.000 A 
ATOM      7  F   UNL     1       5.175  -0.039   9.922  0.00  0.00    +0.000 F 
ATOM      8  C   UNL     1       7.242  -0.728   9.027  0.00  0.00    +0.000 A 
ATOM      9  C   UNL     1       7.991  -1.281   7.980  0.00  0.00    +0.000 A 
ATOM     10  C   UNL     1       7.288  -1.686   6.825  0.00  0.00    +0.000 A 
BRANCH   9  11
ATOM     11  C   UNL     1       9.452  -1.448   8.084  0.00  0.00    +0.000 A 
ATOM     12  C   UNL     1      10.109  -1.748   9.267  0.00  0.00    +0.000 A 
ATOM     13  N   UNL     1      11.449  -1.896   9.397  0.00  0.00    +0.000 NA
ATOM     14  C   UNL     1      12.165  -1.735   8.275  0.00  0.00    +0.000 A 
ATOM     15  N   UNL     1      11.656  -1.455   7.064  0.00  0.00    +0.000 NA
ATOM     16  C   UNL     1      10.312  -1.314   7.004  0.00  0.00    +0.000 A 
ENDBRANCH   9  11
ENDBRANCH   1   4
BRANCH   1  17
ATOM     17  O   UNL     1       5.478  -1.507   4.182  0.00  0.00    +0.000 OA
BRANCH  17  21
ATOM     18  C   UNL     1       3.872   2.111   3.050  0.00  0.00    +0.000 A 
ATOM     19  C   UNL     1       4.754   1.441   2.205  0.00  0.00    +0.000 A 
ATOM     20  C   UNL     1       5.282   0.219   2.614  0.00  0.00    +0.000 A 
ATOM     21  C   UNL     1       4.903  -0.296   3.850  0.00  0.00    +0.000 A 
ATOM     22  N   UNL     1       4.043   0.318   4.687  0.00  0.00    +0.000 NA
ATOM     23  C   UNL     1       3.559   1.520   4.272  0.00  0.00    +0.000 A 
BRANCH  18  25
ATOM     24  N   UNL     1       3.202   3.767   1.398  0.00  0.00    +0.000 N 
ATOM     25  C   UNL     1       3.314   3.440   2.722  0.00  0.00    +0.000 C 
ATOM     26  O   UNL     1       2.955   4.215   3.598  0.00  0.00    +0.000 OA
ATOM     27  H   UNL     1       2.774   4.660   1.184  0.00  0.00    +0.000 HD
ATOM     28  H   UNL     1       3.261   3.088   0.653  0.00  0.00    +0.000 HD
ENDBRANCH  18  25
ENDBRANCH  17  21
ENDBRANCH   1  17
TORSDOF 5
