REMARK  Name = 
REMARK  5 active torsions:
REMARK  status: ('A' for Active; 'I' for Inactive)
REMARK    1  A    between atoms: C_2  and  C_3
REMARK    2  A    between atoms: C_6  and  N_7
REMARK    3  A    between atoms: N_7  and  C_8
REMARK    4  A    between atoms: C_8  and  C_9
REMARK    5  A    between atoms: C_13  and  C_14
REMARK                            x       y       z     vdW  Elec       q    Type
REMARK                         _______ _______ _______ _____ _____    ______ ____
ROOT
ATOM      1  C   UNL     1      -4.609   0.922  -0.141  0.00  0.00    +0.000 C 
ATOM      2  C   UNL     1      -3.460   1.522   0.672  0.00  0.00    +0.000 C 
ATOM      3  C   UNL     1      -3.162   0.515  -0.379  0.00  0.00    +0.000 C 
ENDROOT
BRANCH   1   4
ATOM      4  C   UNL     1      -5.448  -0.203   0.448  0.00  0.00    +0.000 A 
ATOM      5  C   UNL     1      -5.871  -1.270  -0.357  0.00  0.00    +0.000 A 
ATOM      6  C   UNL     1      -6.387  -2.430   0.210  0.00  0.00    +0.000 A 
ATOM      7  C   UNL     1      -6.488  -2.537   1.598  0.00  0.00    +0.000 A 
ATOM      8  C   UNL     1      -6.138  -1.467   2.438  0.00  0.00    +0.000 A 
ATOM      9  C   UNL     1      -5.681  -0.288   1.830  0.00  0.00    +0.000 A 
BRANCH   8  10
ATOM     10  C   UNL     1      -6.101  -1.598   3.908  0.00  0.00    +0.000 A 
ATOM     11  C   UNL     1      -5.586  -2.763   4.504  0.00  0.00    +0.000 A 
ATOM     12  C   UNL     1      -5.455  -2.873   5.891  0.00  0.00    +0.000 A 
ATOM     13  C   UNL     1      -5.830  -1.810   6.705  0.00  0.00    +0.000 A 
ATOM     14 CL   UNL     1      -5.648  -1.936   8.411  0.00  0.00    +0.000 Cl
ATOM     15  C   UNL     1      -6.339  -0.643   6.146  0.00  0.00    +0.000 A 
ATOM     16  C   UNL     1      -6.479  -0.541   4.757  0.00  0.00    +0.000 A 
ENDBRANCH   8  10
ENDBRANCH   1   4
BRANCH   1  17
ATOM     17  N   UNL     1      -5.407   1.912  -0.867  0.00  0.00    +0.000 N 
ATOM     18  H   UNL     1      -6.288   2.177  -0.432  0.00  0.00    +0.000 HD
BRANCH  17  22
ATOM     19  C   UNL     1      -5.010   3.451  -4.710  0.00  0.00    +0.000 A 
ATOM     20  C   UNL     1      -4.292   2.304  -4.405  0.00  0.00    +0.000 A 
ATOM     21  C   UNL     1      -4.439   1.740  -3.136  0.00  0.00    +0.000 A 
ATOM     22  C   UNL     1      -5.290   2.320  -2.200  0.00  0.00    +0.000 A 
ATOM     23  C   UNL     1      -5.969   3.470  -2.623  0.00  0.00    +0.000 A 
ATOM     24  N   UNL     1      -5.857   4.048  -3.843  0.00  0.00    +0.000 NA
BRANCH  19  26
ATOM     25  N   UNL     1      -4.727   4.553  -7.044  0.00  0.00    +0.000 NA
ATOM     26  C   UNL     1      -4.883   4.087  -5.990  0.00  0.00    +0.000 C 
ENDBRANCH  19  26
ENDBRANCH  17  22
ENDBRANCH   1  17
TORSDOF 5
