REMARK  Name = 
REMARK  7 active torsions:
REMARK  status: ('A' for Active; 'I' for Inactive)
REMARK    1  A    between atoms: C_1  and  C_2
REMARK    2  A    between atoms: C_4  and  C_5
REMARK    3  A    between atoms: C_5  and  N_6
REMARK    4  A    between atoms: C_7  and  C_9
REMARK    5  A    between atoms: C_21  and  C_22
REMARK    6  A    between atoms: C_22  and  N_23
REMARK    7  A    between atoms: C_24  and  C_26
REMARK                            x       y       z     vdW  Elec       q    Type
REMARK                         _______ _______ _______ _____ _____    ______ ____
ROOT
ATOM      1  C   UNL     1       2.582   0.213  -0.003  0.00  0.00    +0.000 C 
ATOM      2  C   UNL     1       1.083   0.089   0.021  0.00  0.00    +0.000 A 
ATOM      3  C   UNL     1       0.317   1.274   0.031  0.00  0.00    +0.000 A 
ATOM      4  C   UNL     1      -1.084   1.246   0.050  0.00  0.00    +0.000 A 
ATOM      5  C   UNL     1      -1.725   0.005   0.019  0.00  0.00    +0.000 A 
ATOM      6  C   UNL     1      -0.981  -1.178   0.016  0.00  0.00    +0.000 A 
ATOM      7  C   UNL     1       0.427  -1.160   0.040  0.00  0.00    +0.000 A 
ENDROOT
BRANCH   4   8
ATOM      8  C   UNL     1      -1.880   2.527   0.049  0.00  0.00    +0.000 C 
BRANCH   8   9
ATOM      9  N   UNL     1      -2.135   2.972  -1.298  0.00  0.00    +0.000 N 
ATOM     10  C   UNL     1      -2.726   4.181  -1.561  0.00  0.00    +0.000 C 
ATOM     11  O   UNL     1      -3.032   4.964  -0.666  0.00  0.00    +0.000 OA
ATOM     12  H   UNL     1      -2.096   2.267  -2.026  0.00  0.00    +0.000 HD
BRANCH  10  13
ATOM     13  C   UNL     1      -2.918   4.520  -2.978  0.00  0.00    +0.000 A 
ATOM     14  C   UNL     1      -3.054   5.850  -3.354  0.00  0.00    +0.000 A 
ATOM     15  S   UNL     1      -3.217   6.074  -5.036  0.00  0.00    +0.000 S 
ATOM     16  C   UNL     1      -3.168   4.398  -5.320  0.00  0.00    +0.000 A 
ATOM     17  N   UNL     1      -3.287   3.900  -6.580  0.00  0.00    +0.000 NA
ATOM     18  C   UNL     1      -3.263   2.611  -6.649  0.00  0.00    +0.000 A 
ATOM     19  N   UNL     1      -3.124   1.774  -5.572  0.00  0.00    +0.000 N 
ATOM     20  C   UNL     1      -2.968   2.233  -4.285  0.00  0.00    +0.000 A 
ATOM     21  O   UNL     1      -2.796   1.456  -3.351  0.00  0.00    +0.000 OA
ATOM     22  C   UNL     1      -3.006   3.677  -4.149  0.00  0.00    +0.000 A 
ATOM     23  H   UNL     1      -3.099   0.773  -5.696  0.00  0.00    +0.000 HD
ENDBRANCH  10  13
ENDBRANCH   8   9
ENDBRANCH   4   8
BRANCH   7  24
ATOM     24  C   UNL     1       1.157  -2.488   0.047  0.00  0.00    +0.000 C 
BRANCH  24  25
ATOM     25  N   UNL     1       1.312  -3.006  -1.293  0.00  0.00    +0.000 N 
ATOM     26  C   UNL     1       1.945  -4.195  -1.559  0.00  0.00    +0.000 C 
ATOM     27  O   UNL     1       2.442  -4.897  -0.684  0.00  0.00    +0.000 OA
ATOM     28  H   UNL     1       0.786  -2.550  -2.025  0.00  0.00    +0.000 HD
BRANCH  26  29
ATOM     29  C   UNL     1       1.971  -4.568  -2.951  0.00  0.00    +0.000 A 
ATOM     30  C   UNL     1       1.561  -3.913  -4.098  0.00  0.00    +0.000 A 
ATOM     31  N   UNL     1       1.786  -4.661  -5.220  0.00  0.00    +0.000 NA
ATOM     32  C   UNL     1       2.347  -5.765  -4.786  0.00  0.00    +0.000 A 
ATOM     33  N   UNL     1       2.483  -5.756  -3.427  0.00  0.00    +0.000 N 
ATOM     34  H   UNL     1       2.890  -6.486  -2.858  0.00  0.00    +0.000 HD
ENDBRANCH  26  29
ENDBRANCH  24  25
ENDBRANCH   7  24
TORSDOF 6
