REMARK  Name = 
REMARK  7 active torsions:
REMARK  status: ('A' for Active; 'I' for Inactive)
REMARK    1  A    between atoms: C_2  and  C_3
REMARK    2  A    between atoms: C_7  and  C_8
REMARK    3  A    between atoms: N_10  and  C_11
REMARK    4  A    between atoms: C_11  and  C_12
REMARK    5  A    between atoms: C_15  and  C_16
REMARK    6  A    between atoms: C_16  and  N_17
REMARK    7  A    between atoms: C_18  and  C_20
REMARK                            x       y       z     vdW  Elec       q    Type
REMARK                         _______ _______ _______ _____ _____    ______ ____
ROOT
ATOM      1  C   UNL     1       5.985   3.514   0.179  0.00  0.00    +0.000 A 
ATOM      2  C   UNL     1       6.839   4.621   0.286  0.00  0.00    +0.000 A 
ATOM      3  C   UNL     1       8.223   4.451   0.418  0.00  0.00    +0.000 A 
ATOM      4  C   UNL     1       8.788   3.168   0.425  0.00  0.00    +0.000 A 
ATOM      5  C   UNL     1       7.932   2.062   0.332  0.00  0.00    +0.000 A 
ATOM      6  C   UNL     1       6.549   2.232   0.197  0.00  0.00    +0.000 A 
ENDROOT
BRANCH   1   7
ATOM      7  C   UNL     1       4.495   3.703   0.052  0.00  0.00    +0.000 C 
BRANCH   7  10
ATOM      8  C   UNL     1       2.749   4.091  -1.621  0.00  0.00    +0.000 C 
ATOM      9  O   UNL     1       1.875   4.181  -0.767  0.00  0.00    +0.000 OA
ATOM     10  N   UNL     1       4.078   3.866  -1.325  0.00  0.00    +0.000 N 
ATOM     11  H   UNL     1       4.721   3.587  -2.052  0.00  0.00    +0.000 HD
BRANCH   8  16
ATOM     12  C   UNL     1       0.694   3.955  -4.789  0.00  0.00    +0.000 A 
ATOM     13  C   UNL     1       1.596   4.451  -5.735  0.00  0.00    +0.000 A 
ATOM     14  C   UNL     1       2.884   4.827  -5.349  0.00  0.00    +0.000 A 
ATOM     15  C   UNL     1       3.280   4.703  -4.014  0.00  0.00    +0.000 A 
ATOM     16  C   UNL     1       2.386   4.200  -3.061  0.00  0.00    +0.000 A 
ATOM     17  C   UNL     1       1.088   3.836  -3.450  0.00  0.00    +0.000 A 
BRANCH  12  19
ATOM     18  N   UNL     1      -1.695   3.254  -5.524  0.00  0.00    +0.000 NA
ATOM     19  C   UNL     1      -0.629   3.570  -5.188  0.00  0.00    +0.000 C 
ENDBRANCH  12  19
ENDBRANCH   8  16
ENDBRANCH   7  10
ENDBRANCH   1   7
BRANCH   4  20
ATOM     20  C   UNL     1      10.279   2.969   0.546  0.00  0.00    +0.000 C 
BRANCH  20  21
ATOM     21  N   UNL     1      10.696   2.852   1.919  0.00  0.00    +0.000 N 
ATOM     22  C   UNL     1      12.020   2.697   2.252  0.00  0.00    +0.000 C 
ATOM     23  O   UNL     1      12.910   2.690   1.405  0.00  0.00    +0.000 OA
ATOM     24  H   UNL     1       9.984   2.596   2.595  0.00  0.00    +0.000 HD
BRANCH  22  25
ATOM     25  C   UNL     1      12.326   2.602   3.685  0.00  0.00    +0.000 A 
ATOM     26  C   UNL     1      13.582   2.966   4.153  0.00  0.00    +0.000 A 
ATOM     27  S   UNL     1      13.742   2.843   5.847  0.00  0.00    +0.000 S 
ATOM     28  C   UNL     1      12.156   2.250   6.010  0.00  0.00    +0.000 A 
ATOM     29  N   UNL     1      11.655   1.910   7.228  0.00  0.00    +0.000 NA
ATOM     30  C   UNL     1      10.450   1.447   7.199  0.00  0.00    +0.000 A 
ATOM     31  N   UNL     1       9.697   1.300   6.063  0.00  0.00    +0.000 N 
ATOM     32  C   UNL     1      10.150   1.656   4.817  0.00  0.00    +0.000 A 
ATOM     33  O   UNL     1       9.434   1.554   3.826  0.00  0.00    +0.000 OA
ATOM     34  C   UNL     1      11.506   2.168   4.791  0.00  0.00    +0.000 A 
ATOM     35  H   UNL     1       8.754   0.943   6.109  0.00  0.00    +0.000 HD
ENDBRANCH  22  25
ENDBRANCH  20  21
ENDBRANCH   4  20
TORSDOF 7
