REMARK  Name = 
REMARK  6 active torsions:
REMARK  status: ('A' for Active; 'I' for Inactive)
REMARK    1  A    between atoms: C_1  and  N_2
REMARK    2  A    between atoms: N_2  and  C_3
REMARK    3  A    between atoms: C_3  and  C_4
REMARK    4  A    between atoms: C_7  and  O_8
REMARK    5  A    between atoms: O_8  and  C_9
REMARK    6  A    between atoms: C_17  and  C_19
REMARK                            x       y       z     vdW  Elec       q    Type
REMARK                         _______ _______ _______ _____ _____    ______ ____
ROOT
ATOM      1  C   UNL     1       1.055   0.508  -0.032  0.00  0.00    +0.000 C 
ATOM      2  N   UNL     1       2.438   0.047  -0.075  0.00  0.00    +0.000 N 
ATOM      3  C   UNL     1       3.025  -0.242   1.170  0.00  0.00    +0.000 C 
ATOM      4  O   UNL     1       2.404  -0.079   2.219  0.00  0.00    +0.000 OA
ENDROOT
BRANCH   3   5
ATOM      5  C   UNL     1       4.418  -0.708   1.224  0.00  0.00    +0.000 A 
ATOM      6  C   UNL     1       5.467  -0.144   0.515  0.00  0.00    +0.000 A 
ATOM      7  S   UNL     1       6.982  -0.855   0.853  0.00  0.00    +0.000 S 
ATOM      8  C   UNL     1       6.309  -1.838   2.066  0.00  0.00    +0.000 A 
ATOM      9  N   UNL     1       7.093  -2.632   2.841  0.00  0.00    +0.000 NA
ATOM     10  C   UNL     1       6.451  -3.268   3.764  0.00  0.00    +0.000 A 
ATOM     11  N   UNL     1       5.093  -3.215   3.951  0.00  0.00    +0.000 N 
ATOM     12  C   UNL     1       4.242  -2.539   3.100  0.00  0.00    +0.000 A 
ATOM     13  O   UNL     1       3.033  -2.713   3.146  0.00  0.00    +0.000 OA
ATOM     14  C   UNL     1       4.933  -1.704   2.134  0.00  0.00    +0.000 A 
ATOM     15  H   UNL     1       4.644  -3.794   4.648  0.00  0.00    +0.000 HD
ENDBRANCH   3   5
BRANCH   2  16
ATOM     16  C   UNL     1       3.051  -0.327  -1.349  0.00  0.00    +0.000 C 
BRANCH  16  17
ATOM     17  C   UNL     1       2.190  -0.304  -2.583  0.00  0.00    +0.000 A 
ATOM     18  C   UNL     1       2.061   0.881  -3.323  0.00  0.00    +0.000 A 
ATOM     19  C   UNL     1       1.325   0.897  -4.504  0.00  0.00    +0.000 A 
ATOM     20  C   UNL     1       0.756  -0.284  -4.987  0.00  0.00    +0.000 A 
ATOM     21  C   UNL     1       0.825  -1.451  -4.226  0.00  0.00    +0.000 A 
ATOM     22  C   UNL     1       1.538  -1.462  -3.024  0.00  0.00    +0.000 A 
BRANCH  20  23
ATOM     23  O   UNL     1       0.067  -0.356  -6.176  0.00  0.00    +0.000 OA
BRANCH  23  24
ATOM     24  C   UNL     1       0.572   0.354  -7.256  0.00  0.00    +0.000 A 
ATOM     25  C   UNL     1      -0.319   0.706  -8.260  0.00  0.00    +0.000 A 
ATOM     26  N   UNL     1       0.050   1.441  -9.339  0.00  0.00    +0.000 NA
ATOM     27  C   UNL     1       1.354   1.800  -9.371  0.00  0.00    +0.000 A 
ATOM     28  C   UNL     1       2.253   1.423  -8.386  0.00  0.00    +0.000 A 
ATOM     29  N   UNL     1       1.886   0.683  -7.320  0.00  0.00    +0.000 NA
ENDBRANCH  23  24
ENDBRANCH  20  23
ENDBRANCH  16  17
ENDBRANCH   2  16
TORSDOF 5
