REMARK  Name = 
REMARK  8 active torsions:
REMARK  status: ('A' for Active; 'I' for Inactive)
REMARK    1  A    between atoms: C_1  and  C_2
REMARK    2  A    between atoms: C_4  and  C_5
REMARK    3  A    between atoms: C_9  and  C_10
REMARK    4  A    between atoms: C_10  and  C_11
REMARK    5  A    between atoms: C_10  and  C_12
REMARK    6  A    between atoms: C_10  and  C_13
REMARK    7  A    between atoms: C_13  and  N_14
REMARK    8  A    between atoms: C_18  and  C_19
REMARK                            x       y       z     vdW  Elec       q    Type
REMARK                         _______ _______ _______ _____ _____    ______ ____
ROOT
ATOM      1  C   UNL     1      -5.080  -3.775  -1.818  0.00  0.00    +0.000 C 
ATOM      2  C   UNL     1      -5.882  -2.454  -1.693  0.00  0.00    +0.000 C 
ATOM      3  C   UNL     1      -4.571  -3.929  -3.266  0.00  0.00    +0.000 C 
ENDROOT
BRANCH   1   8
ATOM      4  C   UNL     1      -1.950  -2.392   0.013  0.00  0.00    +0.000 A 
ATOM      5  C   UNL     1      -1.822  -3.321   1.055  0.00  0.00    +0.000 A 
ATOM      6  C   UNL     1      -2.657  -4.433   1.135  0.00  0.00    +0.000 A 
ATOM      7  C   UNL     1      -3.674  -4.619   0.201  0.00  0.00    +0.000 A 
ATOM      8  C   UNL     1      -3.877  -3.701  -0.842  0.00  0.00    +0.000 A 
ATOM      9  C   UNL     1      -2.965  -2.629  -0.938  0.00  0.00    +0.000 A 
BRANCH   4  13
ATOM     10  C   UNL     1      -1.204   2.390  -1.355  0.00  0.00    +0.000 C 
ATOM     11  C   UNL     1      -0.724   1.122  -0.715  0.00  0.00    +0.000 A 
ATOM     12  C   UNL     1      -1.554   0.007  -0.642  0.00  0.00    +0.000 A 
ATOM     13  C   UNL     1      -1.087  -1.189  -0.071  0.00  0.00    +0.000 A 
ATOM     14  C   UNL     1       0.222  -1.180   0.423  0.00  0.00    +0.000 A 
ATOM     15  C   UNL     1       0.977  -0.022   0.331  0.00  0.00    +0.000 A 
ATOM     16  N   UNL     1       0.535   1.123  -0.230  0.00  0.00    +0.000 NA
ENDBRANCH   4  13
ENDBRANCH   1   8
BRANCH   1  17
ATOM     17  C   UNL     1      -6.023  -4.964  -1.461  0.00  0.00    +0.000 C 
BRANCH  17  18
ATOM     18  N   UNL     1      -7.225  -5.049  -2.281  0.00  0.00    +0.000 N 
ATOM     19  C   UNL     1      -8.124  -6.072  -2.010  0.00  0.00    +0.000 A 
ATOM     20  C   UNL     1      -8.398  -6.569  -0.729  0.00  0.00    +0.000 A 
ATOM     21  N   UNL     1      -9.303  -7.545  -0.460  0.00  0.00    +0.000 NA
ATOM     22  C   UNL     1      -9.972  -7.997  -1.553  0.00  0.00    +0.000 A 
ATOM     23  C   UNL     1      -9.729  -7.509  -2.827  0.00  0.00    +0.000 A 
ATOM     24  N   UNL     1      -8.797  -6.549  -3.077  0.00  0.00    +0.000 NA
ATOM     25  H   UNL     1      -7.095  -5.032  -3.291  0.00  0.00    +0.000 HD
BRANCH  22  26
ATOM     26  C   UNL     1     -10.998  -9.050  -1.337  0.00  0.00    +0.000 C 
ATOM     27  N   UNL     1     -11.152  -9.481  -0.046  0.00  0.00    +0.000 N 
ATOM     28  O   UNL     1     -11.668  -9.507  -2.257  0.00  0.00    +0.000 OA
ATOM     29  H   UNL     1     -10.588  -9.075   0.691  0.00  0.00    +0.000 HD
ATOM     30  H   UNL     1     -11.843 -10.186   0.165  0.00  0.00    +0.000 HD
ENDBRANCH  22  26
ENDBRANCH  17  18
ENDBRANCH   1  17
TORSDOF 5
