REMARK  Name = 
REMARK  4 active torsions:
REMARK  status: ('A' for Active; 'I' for Inactive)
REMARK    1  A    between atoms: C_2  and  C_4
REMARK    2  A    between atoms: N_8  and  C_9
REMARK    3  A    between atoms: C_9  and  C_10
REMARK    4  A    between atoms: C_14  and  C_15
REMARK                            x       y       z     vdW  Elec       q    Type
REMARK                         _______ _______ _______ _____ _____    ______ ____
ROOT
ATOM      1  C   UNL     1       4.726   4.441  -4.062  0.00  0.00    +0.000 C 
ATOM      2  C   UNL     1       4.697   5.705  -3.233  0.00  0.00    +0.000 C 
ATOM      3  C   UNL     1       3.877   5.629  -4.473  0.00  0.00    +0.000 C 
ENDROOT
BRANCH   1   8
ATOM      4  C   UNL     1       1.141   1.468  -6.007  0.00  0.00    +0.000 A 
ATOM      5  C   UNL     1       1.714   0.719  -4.984  0.00  0.00    +0.000 A 
ATOM      6  C   UNL     1       2.758   1.268  -4.247  0.00  0.00    +0.000 A 
ATOM      7  C   UNL     1       3.190   2.555  -4.551  0.00  0.00    +0.000 A 
ATOM      8  N   UNL     1       4.038   3.208  -3.623  0.00  0.00    +0.000 N 
ATOM      9  N   UNL     1       2.751   3.210  -5.648  0.00  0.00    +0.000 NA
ATOM     10  C   UNL     1       1.739   2.666  -6.357  0.00  0.00    +0.000 A 
ATOM     11  H   UNL     1       3.597   3.238  -2.715  0.00  0.00    +0.000 HD
BRANCH   4  13
ATOM     12  N   UNL     1      -1.049   0.497  -5.796  0.00  0.00    +0.000 N 
ATOM     13  C   UNL     1      -0.149   1.116  -6.627  0.00  0.00    +0.000 C 
ATOM     14  O   UNL     1      -0.438   1.448  -7.759  0.00  0.00    +0.000 OA
ATOM     15  H   UNL     1      -2.001   0.438  -6.144  0.00  0.00    +0.000 HD
ATOM     16  H   UNL     1      -0.927   0.467  -4.797  0.00  0.00    +0.000 HD
ENDBRANCH   4  13
ENDBRANCH   1   8
BRANCH   1  17
ATOM     17  C   UNL     1       6.012   4.054  -4.769  0.00  0.00    +0.000 A 
ATOM     18  C   UNL     1       7.043   3.424  -4.050  0.00  0.00    +0.000 A 
ATOM     19  C   UNL     1       7.996   2.643  -4.699  0.00  0.00    +0.000 A 
ATOM     20  C   UNL     1       7.940   2.493  -6.086  0.00  0.00    +0.000 A 
ATOM     21  C   UNL     1       6.971   3.168  -6.846  0.00  0.00    +0.000 A 
ATOM     22  C   UNL     1       6.053   3.985  -6.168  0.00  0.00    +0.000 A 
BRANCH  21  23
ATOM     23  C   UNL     1       6.780   2.911  -8.282  0.00  0.00    +0.000 A 
ATOM     24  C   UNL     1       6.479   3.934  -9.190  0.00  0.00    +0.000 A 
ATOM     25  C   UNL     1       6.176   3.632 -10.516  0.00  0.00    +0.000 A 
ATOM     26  C   UNL     1       6.198   2.305 -10.907  0.00  0.00    +0.000 A 
ATOM     27  N   UNL     1       6.501   1.282 -10.083  0.00  0.00    +0.000 NA
ATOM     28  C   UNL     1       6.771   1.612  -8.792  0.00  0.00    +0.000 A 
ENDBRANCH  21  23
ENDBRANCH   1  17
TORSDOF 4
