REMARK  Name = 
REMARK  3 active torsions:
REMARK  status: ('A' for Active; 'I' for Inactive)
REMARK    1  A    between atoms: C_2  and  C_4
REMARK    2  A    between atoms: N_8  and  C_9
REMARK    3  A    between atoms: C_9  and  C_10
REMARK                            x       y       z     vdW  Elec       q    Type
REMARK                         _______ _______ _______ _____ _____    ______ ____
ROOT
ATOM      1  C   UNL     1       3.269  -0.802   2.906  0.00  0.00    +0.000 A 
ATOM      2  C   UNL     1       2.622  -2.035   2.828  0.00  0.00    +0.000 A 
ATOM      3  C   UNL     1       3.344  -3.163   2.412  0.00  0.00    +0.000 A 
ATOM      4  C   UNL     1       4.682  -3.024   2.072  0.00  0.00    +0.000 A 
ATOM      5  N   UNL     1       5.435  -4.032   1.468  0.00  0.00    +0.000 N 
ATOM      6  N   UNL     1       5.325  -1.840   2.174  0.00  0.00    +0.000 NA
ATOM      7  C   UNL     1       4.614  -0.762   2.585  0.00  0.00    +0.000 A 
ATOM      8  H   UNL     1       6.367  -3.619   1.380  0.00  0.00    +0.000 HD
ENDROOT
BRANCH   1  10
ATOM      9  N   UNL     1       1.432   0.399   3.966  0.00  0.00    +0.000 N 
ATOM     10  C   UNL     1       2.592   0.468   3.250  0.00  0.00    +0.000 C 
ATOM     11  O   UNL     1       3.063   1.551   2.923  0.00  0.00    +0.000 OA
ATOM     12  H   UNL     1       1.043   1.284   4.270  0.00  0.00    +0.000 HD
ATOM     13  H   UNL     1       1.136  -0.433   4.453  0.00  0.00    +0.000 HD
ENDBRANCH   1  10
BRANCH   5  14
ATOM     14  C   UNL     1       5.452  -5.444   1.894  0.00  0.00    +0.000 C 
ATOM     15  C   UNL     1       5.557  -6.413   0.722  0.00  0.00    +0.000 C 
ATOM     16  C   UNL     1       4.347  -6.433   1.597  0.00  0.00    +0.000 C 
BRANCH  14  17
ATOM     17  C   UNL     1       6.313  -5.663   3.135  0.00  0.00    +0.000 A 
ATOM     18  C   UNL     1       7.693  -5.924   3.041  0.00  0.00    +0.000 A 
ATOM     19  C   UNL     1       8.517  -5.925   4.170  0.00  0.00    +0.000 A 
ATOM     20  C   UNL     1       7.974  -5.666   5.426  0.00  0.00    +0.000 A 
ATOM     21  C   UNL     1       6.605  -5.452   5.549  0.00  0.00    +0.000 A 
ATOM     22 CL   UNL     1       5.927  -5.114   7.095  0.00  0.00    +0.000 Cl
ATOM     23  C   UNL     1       5.781  -5.467   4.422  0.00  0.00    +0.000 A 
ENDBRANCH  14  17
ENDBRANCH   5  14
TORSDOF 3
