REMARK  Name = 
REMARK  7 active torsions:
REMARK  status: ('A' for Active; 'I' for Inactive)
REMARK    1  A    between atoms: C_1  and  N_2
REMARK    2  A    between atoms: N_2  and  C_3
REMARK    3  A    between atoms: C_3  and  C_4
REMARK    4  A    between atoms: C_7  and  C_8
REMARK    5  A    between atoms: C_8  and  N_9
REMARK    6  A    between atoms: C_10  and  C_12
REMARK    7  A    between atoms: C_19  and  C_21
REMARK                            x       y       z     vdW  Elec       q    Type
REMARK                         _______ _______ _______ _____ _____    ______ ____
ROOT
ATOM      1  C   UNL     1       3.022   1.195   0.238  0.00  0.00    +0.000 C 
ENDROOT
BRANCH   1   2
ATOM      2  C   UNL     1       2.100   2.339   0.581  0.00  0.00    +0.000 A 
ATOM      3  C   UNL     1       0.931   2.083   1.318  0.00  0.00    +0.000 A 
ATOM      4  C   UNL     1       0.050   3.113   1.642  0.00  0.00    +0.000 A 
ATOM      5  C   UNL     1       0.309   4.420   1.219  0.00  0.00    +0.000 A 
ATOM      6  C   UNL     1       1.510   4.691   0.546  0.00  0.00    +0.000 A 
ATOM      7  C   UNL     1       2.396   3.658   0.221  0.00  0.00    +0.000 A 
BRANCH   5   8
ATOM      8  C   UNL     1      -0.699   5.509   1.467  0.00  0.00    +0.000 C 
BRANCH   8   9
ATOM      9  N   UNL     1      -0.494   6.156   2.733  0.00  0.00    +0.000 N 
ATOM     10  C   UNL     1      -1.243   7.252   3.105  0.00  0.00    +0.000 C 
ATOM     11  O   UNL     1      -2.105   7.721   2.366  0.00  0.00    +0.000 OA
ATOM     12  H   UNL     1       0.140   5.749   3.408  0.00  0.00    +0.000 HD
BRANCH  10  13
ATOM     13  C   UNL     1      -0.943   7.802   4.422  0.00  0.00    +0.000 A 
ATOM     14  C   UNL     1      -1.589   8.853   5.049  0.00  0.00    +0.000 A 
ATOM     15  C   UNL     1      -1.031   9.158   6.325  0.00  0.00    +0.000 A 
ATOM     16  C   UNL     1       0.025   8.332   6.633  0.00  0.00    +0.000 A 
ATOM     17  S   UNL     1       0.328   7.191   5.399  0.00  0.00    +0.000 S 
ENDBRANCH  10  13
ENDBRANCH   8   9
ENDBRANCH   5   8
ENDBRANCH   1   2
BRANCH   1  19
ATOM     18  C   UNL     1       1.663   0.767  -1.840  0.00  0.00    +0.000 C 
ATOM     19  N   UNL     1       2.832   0.466  -1.015  0.00  0.00    +0.000 N 
ATOM     20  C   UNL     1       3.524  -0.726  -1.345  0.00  0.00    +0.000 C 
ATOM     21  O   UNL     1       3.143  -1.401  -2.302  0.00  0.00    +0.000 OA
BRANCH  20  22
ATOM     22  C   UNL     1       4.672  -1.229  -0.546  0.00  0.00    +0.000 A 
ATOM     23  C   UNL     1       4.847  -1.119   0.825  0.00  0.00    +0.000 A 
ATOM     24  S   UNL     1       6.218  -1.930   1.442  0.00  0.00    +0.000 S 
ATOM     25  C   UNL     1       6.547  -2.601  -0.078  0.00  0.00    +0.000 A 
ATOM     26  N   UNL     1       7.517  -3.546  -0.210  0.00  0.00    +0.000 NA
ATOM     27  C   UNL     1       7.618  -4.026  -1.404  0.00  0.00    +0.000 A 
ATOM     28  N   UNL     1       6.881  -3.607  -2.481  0.00  0.00    +0.000 N 
ATOM     29  C   UNL     1       5.999  -2.546  -2.420  0.00  0.00    +0.000 A 
ATOM     30  O   UNL     1       5.586  -2.019  -3.447  0.00  0.00    +0.000 OA
ATOM     31  C   UNL     1       5.724  -2.092  -1.064  0.00  0.00    +0.000 A 
ATOM     32  H   UNL     1       7.088  -3.949  -3.406  0.00  0.00    +0.000 HD
ENDBRANCH  20  22
ENDBRANCH   1  19
TORSDOF 6
