REMARK  Name = 
REMARK  7 active torsions:
REMARK  status: ('A' for Active; 'I' for Inactive)
REMARK    1  A    between atoms: C_2  and  C_20
REMARK    2  A    between atoms: N_3  and  C_4
REMARK    3  A    between atoms: C_4  and  C_5
REMARK    4  A    between atoms: C_8  and  C_9
REMARK    5  A    between atoms: C_9  and  O_10
REMARK    6  A    between atoms: O_10  and  C_11
REMARK    7  A    between atoms: C_11  and  C_12
REMARK                            x       y       z     vdW  Elec       q    Type
REMARK                         _______ _______ _______ _____ _____    ______ ____
ROOT
ATOM      1  C   UNL     1       2.232  -1.240  -2.067  0.00  0.00    +0.000 C 
ENDROOT
BRANCH   1   2
ATOM      2  C   UNL     1       3.199  -1.839  -3.055  0.00  0.00    +0.000 A 
ATOM      3  C   UNL     1       4.098  -1.023  -3.754  0.00  0.00    +0.000 A 
ATOM      4  C   UNL     1       4.986  -1.575  -4.683  0.00  0.00    +0.000 A 
ATOM      5  C   UNL     1       4.986  -2.952  -4.940  0.00  0.00    +0.000 A 
ATOM      6  C   UNL     1       4.069  -3.764  -4.260  0.00  0.00    +0.000 A 
ATOM      7  C   UNL     1       3.181  -3.213  -3.330  0.00  0.00    +0.000 A 
BRANCH   5   8
ATOM      8  C   UNL     1       5.948  -3.541  -5.941  0.00  0.00    +0.000 C 
BRANCH   8   9
ATOM      9  O   UNL     1       7.276  -3.255  -5.514  0.00  0.00    +0.000 OA
BRANCH   9  10
ATOM     10  C   UNL     1       8.253  -3.817  -6.392  0.00  0.00    +0.000 C 
BRANCH  10  11
ATOM     11  C   UNL     1       9.652  -3.490  -5.915  0.00  0.00    +0.000 A 
ATOM     12  C   UNL     1       9.933  -3.383  -4.553  0.00  0.00    +0.000 A 
ATOM     13  C   UNL     1      11.231  -3.089  -4.148  0.00  0.00    +0.000 A 
ATOM     14  C   UNL     1      12.219  -2.923  -5.108  0.00  0.00    +0.000 A 
ATOM     15  C   UNL     1      11.866  -3.066  -6.440  0.00  0.00    +0.000 A 
ATOM     16  N   UNL     1      10.614  -3.350  -6.864  0.00  0.00    +0.000 NA
ENDBRANCH  10  11
ENDBRANCH   9  10
ENDBRANCH   8   9
ENDBRANCH   5   8
ENDBRANCH   1   2
BRANCH   1  19
ATOM     17  O   UNL     1      -0.051  -0.258  -0.794  0.00  0.00    +0.000 OA
ATOM     18  C   UNL     1      -0.054  -0.350  -2.018  0.00  0.00    +0.000 C 
ATOM     19  N   UNL     1       0.996  -0.887  -2.716  0.00  0.00    +0.000 N 
ATOM     20  H   UNL     1       1.044  -0.747  -3.719  0.00  0.00    +0.000 HD
BRANCH  18  21
ATOM     21  C   UNL     1      -1.212   0.068  -2.818  0.00  0.00    +0.000 A 
ATOM     22  C   UNL     1      -2.475   0.111  -2.244  0.00  0.00    +0.000 A 
ATOM     23  S   UNL     1      -3.702   0.584  -3.332  0.00  0.00    +0.000 S 
ATOM     24  C   UNL     1      -2.580   0.794  -4.595  0.00  0.00    +0.000 A 
ATOM     25  N   UNL     1      -2.978   1.220  -5.824  0.00  0.00    +0.000 NA
ATOM     26  C   UNL     1      -2.016   1.370  -6.673  0.00  0.00    +0.000 A 
ATOM     27  N   UNL     1      -0.694   1.129  -6.407  0.00  0.00    +0.000 N 
ATOM     28  C   UNL     1      -0.249   0.665  -5.192  0.00  0.00    +0.000 A 
ATOM     29  O   UNL     1       0.934   0.410  -5.006  0.00  0.00    +0.000 OA
ATOM     30  C   UNL     1      -1.290   0.493  -4.196  0.00  0.00    +0.000 A 
ATOM     31  H   UNL     1       0.011   1.254  -7.118  0.00  0.00    +0.000 HD
ENDBRANCH  18  21
ENDBRANCH   1  19
TORSDOF 7
