REMARK  Name = 
REMARK  7 active torsions:
REMARK  status: ('A' for Active; 'I' for Inactive)
REMARK    1  A    between atoms: C_1  and  C_2
REMARK    2  A    between atoms: C_2  and  C_3
REMARK    3  A    between atoms: C_2  and  C_15
REMARK    4  A    between atoms: C_3  and  N_4
REMARK    5  A    between atoms: N_4  and  C_5
REMARK    6  A    between atoms: C_8  and  C_9
REMARK    7  A    between atoms: C_19  and  C_20
REMARK                            x       y       z     vdW  Elec       q    Type
REMARK                         _______ _______ _______ _____ _____    ______ ____
ROOT
ATOM      1  N   UNL     1       2.841  -1.176   2.173  0.00  0.00    +0.000 N 
ATOM      2  H   UNL     1       1.840  -1.124   2.375  0.00  0.00    +0.000 HD
ENDROOT
BRANCH   1   3
ATOM      3  C   UNL     1       3.444  -2.160   2.979  0.00  0.00    +0.000 A 
ATOM      4  C   UNL     1       4.706  -2.687   2.686  0.00  0.00    +0.000 A 
ATOM      5  C   UNL     1       5.313  -3.630   3.520  0.00  0.00    +0.000 A 
ATOM      6  C   UNL     1       4.683  -4.045   4.696  0.00  0.00    +0.000 A 
ATOM      7  C   UNL     1       3.444  -3.490   5.033  0.00  0.00    +0.000 A 
ATOM      8  C   UNL     1       2.848  -2.553   4.188  0.00  0.00    +0.000 A 
ATOM      9  F   UNL     1       1.657  -2.038   4.535  0.00  0.00    +0.000 F 
BRANCH   6  10
ATOM     10  C   UNL     1       5.286  -5.050   5.614  0.00  0.00    +0.000 C 
ATOM     11  N   UNL     1       6.501  -5.586   5.295  0.00  0.00    +0.000 N 
ATOM     12  O   UNL     1       4.711  -5.401   6.638  0.00  0.00    +0.000 OA
ATOM     13  H   UNL     1       7.052  -5.356   4.483  0.00  0.00    +0.000 HD
ATOM     14  H   UNL     1       6.884  -6.264   5.941  0.00  0.00    +0.000 HD
ENDBRANCH   6  10
ENDBRANCH   1   3
BRANCH   1  15
ATOM     15  C   UNL     1       3.119  -1.240   0.743  0.00  0.00    +0.000 C 
BRANCH  15  17
ATOM     16  C   UNL     1       2.756   1.247   0.215  0.00  0.00    +0.000 C 
ATOM     17  C   UNL     1       2.322  -0.176   0.066  0.00  0.00    +0.000 C 
BRANCH  17  18
ATOM     18  C   UNL     1       1.014  -0.497  -0.513  0.00  0.00    +0.000 A 
ATOM     19  C   UNL     1      -0.100   0.282  -0.188  0.00  0.00    +0.000 A 
ATOM     20  C   UNL     1      -1.358  -0.028  -0.700  0.00  0.00    +0.000 A 
ATOM     21  C   UNL     1      -1.512  -1.108  -1.566  0.00  0.00    +0.000 A 
ATOM     22  C   UNL     1      -0.407  -1.889  -1.931  0.00  0.00    +0.000 A 
ATOM     23  C   UNL     1       0.853  -1.581  -1.386  0.00  0.00    +0.000 A 
BRANCH  22  24
ATOM     24  C   UNL     1      -0.547  -3.032  -2.906  0.00  0.00    +0.000 C 
ATOM     25  F   UNL     1      -1.816  -3.200  -3.372  0.00  0.00    +0.000 F 
ATOM     26  F   UNL     1       0.236  -2.870  -4.009  0.00  0.00    +0.000 F 
ATOM     27  F   UNL     1      -0.185  -4.228  -2.366  0.00  0.00    +0.000 F 
ENDBRANCH  22  24
ENDBRANCH  17  18
ENDBRANCH  15  17
ENDBRANCH   1  15
TORSDOF 6
