REMARK  Name = 
REMARK  4 active torsions:
REMARK  status: ('A' for Active; 'I' for Inactive)
REMARK    1  A    between atoms: C_2  and  C_4
REMARK    2  A    between atoms: C_7  and  N_8
REMARK    3  A    between atoms: N_8  and  C_9
REMARK    4  A    between atoms: C_9  and  C_10
REMARK                            x       y       z     vdW  Elec       q    Type
REMARK                         _______ _______ _______ _____ _____    ______ ____
ROOT
ATOM      1  C   UNL     1       8.663  -2.665  -1.404  0.00  0.00    +0.000 A 
ATOM      2  C   UNL     1       7.510  -1.946  -1.077  0.00  0.00    +0.000 A 
ATOM      3  C   UNL     1       6.503  -2.550  -0.309  0.00  0.00    +0.000 A 
ATOM      4  C   UNL     1       6.624  -3.881   0.116  0.00  0.00    +0.000 A 
ATOM      5  C   UNL     1       7.810  -4.563  -0.165  0.00  0.00    +0.000 A 
ATOM      6  C   UNL     1       8.813  -3.972  -0.937  0.00  0.00    +0.000 A 
ENDROOT
BRANCH   1   8
ATOM      7  N   UNL     1       9.872  -0.742  -2.288  0.00  0.00    +0.000 N 
ATOM      8  C   UNL     1       9.733  -2.102  -2.264  0.00  0.00    +0.000 C 
ATOM      9  O   UNL     1      10.487  -2.820  -2.908  0.00  0.00    +0.000 OA
ATOM     10  H   UNL     1      10.679  -0.392  -2.788  0.00  0.00    +0.000 HD
ATOM     11  H   UNL     1       9.461  -0.147  -1.584  0.00  0.00    +0.000 HD
ENDBRANCH   1   8
BRANCH   4  12
ATOM     12  N   UNL     1       5.570  -4.470   0.857  0.00  0.00    +0.000 N 
ATOM     13  H   UNL     1       4.704  -3.945   0.774  0.00  0.00    +0.000 HD
BRANCH  12  14
ATOM     14  C   UNL     1       5.407  -5.949   0.878  0.00  0.00    +0.000 C 
ATOM     15  C   UNL     1       5.245  -6.647  -0.465  0.00  0.00    +0.000 C 
ATOM     16  C   UNL     1       4.069  -6.551   0.446  0.00  0.00    +0.000 C 
BRANCH  14  17
ATOM     17  C   UNL     1       5.992  -6.641   2.115  0.00  0.00    +0.000 A 
ATOM     18  C   UNL     1       5.707  -6.150   3.404  0.00  0.00    +0.000 A 
ATOM     19  C   UNL     1       6.094  -6.836   4.558  0.00  0.00    +0.000 A 
ATOM     20  C   UNL     1       6.783  -8.039   4.450  0.00  0.00    +0.000 A 
ATOM     21  C   UNL     1       7.122  -8.528   3.193  0.00  0.00    +0.000 A 
ATOM     22  C   UNL     1       6.743  -7.828   2.043  0.00  0.00    +0.000 A 
ENDBRANCH  14  17
ENDBRANCH  12  14
ENDBRANCH   4  12
TORSDOF 4
