REMARK  Name = 
REMARK  6 active torsions:
REMARK  status: ('A' for Active; 'I' for Inactive)
REMARK    1  A    between atoms: C_2  and  C_3
REMARK    2  A    between atoms: C_7  and  O_8
REMARK    3  A    between atoms: O_8  and  C_9
REMARK    4  A    between atoms: C_12  and  C_13
REMARK    5  A    between atoms: C_13  and  N_14
REMARK    6  A    between atoms: C_15  and  C_17
REMARK                            x       y       z     vdW  Elec       q    Type
REMARK                         _______ _______ _______ _____ _____    ______ ____
ROOT
ATOM      1  C   UNL     1       8.003   2.611   0.039  0.00  0.00    +0.000 C 
ENDROOT
BRANCH   1   5
ATOM      2  C   UNL     1       3.691   2.439   0.035  0.00  0.00    +0.000 A 
ATOM      3  C   UNL     1       4.411   1.967  -1.065  0.00  0.00    +0.000 A 
ATOM      4  C   UNL     1       5.808   2.017  -1.062  0.00  0.00    +0.000 A 
ATOM      5  C   UNL     1       6.498   2.584   0.018  0.00  0.00    +0.000 A 
ATOM      6  C   UNL     1       5.763   3.162   1.061  0.00  0.00    +0.000 A 
ATOM      7  C   UNL     1       4.368   3.082   1.072  0.00  0.00    +0.000 A 
BRANCH   2   8
ATOM      8  O   UNL     1       2.322   2.380   0.157  0.00  0.00    +0.000 OA
BRANCH   8  13
ATOM      9  C   UNL     1      -0.509   0.607  -1.295  0.00  0.00    +0.000 A 
ATOM     10  C   UNL     1       0.009  -0.677  -1.493  0.00  0.00    +0.000 A 
ATOM     11  C   UNL     1       1.313  -0.971  -1.093  0.00  0.00    +0.000 A 
ATOM     12  C   UNL     1       2.104   0.019  -0.506  0.00  0.00    +0.000 A 
ATOM     13  C   UNL     1       1.617   1.323  -0.374  0.00  0.00    +0.000 A 
ATOM     14  C   UNL     1       0.297   1.605  -0.737  0.00  0.00    +0.000 A 
BRANCH   9  16
ATOM     15  N   UNL     1      -2.965   1.128  -1.944  0.00  0.00    +0.000 NA
ATOM     16  C   UNL     1      -1.865   0.897  -1.657  0.00  0.00    +0.000 C 
ENDBRANCH   9  16
ENDBRANCH   8  13
ENDBRANCH   2   8
ENDBRANCH   1   5
BRANCH   1  17
ATOM     17  N   UNL     1       8.509   3.780  -0.627  0.00  0.00    +0.000 N 
ATOM     18  C   UNL     1       9.856   3.975  -0.795  0.00  0.00    +0.000 C 
ATOM     19  O   UNL     1      10.683   3.145  -0.424  0.00  0.00    +0.000 OA
ATOM     20  H   UNL     1       7.874   4.567  -0.723  0.00  0.00    +0.000 HD
BRANCH  18  21
ATOM     21  C   UNL     1      10.252   5.190  -1.513  0.00  0.00    +0.000 A 
ATOM     22  C   UNL     1      11.485   5.241  -2.148  0.00  0.00    +0.000 A 
ATOM     23  S   UNL     1      11.754   6.692  -3.002  0.00  0.00    +0.000 S 
ATOM     24  C   UNL     1      10.256   7.328  -2.502  0.00  0.00    +0.000 A 
ATOM     25  N   UNL     1       9.864   8.575  -2.882  0.00  0.00    +0.000 NA
ATOM     26  C   UNL     1       8.725   8.943  -2.402  0.00  0.00    +0.000 A 
ATOM     27  N   UNL     1       7.939   8.179  -1.579  0.00  0.00    +0.000 N 
ATOM     28  C   UNL     1       8.278   6.904  -1.195  0.00  0.00    +0.000 A 
ATOM     29  O   UNL     1       7.536   6.232  -0.487  0.00  0.00    +0.000 OA
ATOM     30  C   UNL     1       9.556   6.441  -1.704  0.00  0.00    +0.000 A 
ATOM     31  H   UNL     1       7.053   8.525  -1.240  0.00  0.00    +0.000 HD
ENDBRANCH  18  21
ENDBRANCH   1  17
TORSDOF 6
