REMARK  Name = 
REMARK  9 active torsions:
REMARK  status: ('A' for Active; 'I' for Inactive)
REMARK    1  A    between atoms: C_1  and  O_2
REMARK    2  A    between atoms: O_2  and  C_3
REMARK    3  A    between atoms: C_10  and  C_11
REMARK    4  A    between atoms: N_13  and  C_14
REMARK    5  A    between atoms: C_14  and  C_15
REMARK    6  A    between atoms: C_18  and  C_19
REMARK    7  A    between atoms: C_19  and  S_20
REMARK    8  A    between atoms: S_20  and  C_21
REMARK    9  A    between atoms: C_21  and  C_22
REMARK                            x       y       z     vdW  Elec       q    Type
REMARK                         _______ _______ _______ _____ _____    ______ ____
ROOT
ATOM      1  C   UNL     1       3.080   0.081   3.300  0.00  0.00    +0.000 C 
ENDROOT
BRANCH   1   2
ATOM      2  C   UNL     1       1.972   1.096   3.173  0.00  0.00    +0.000 A 
ATOM      3  C   UNL     1       0.635   0.684   3.120  0.00  0.00    +0.000 A 
ATOM      4  C   UNL     1      -0.396   1.622   3.001  0.00  0.00    +0.000 A 
ATOM      5  C   UNL     1      -0.120   2.997   2.944  0.00  0.00    +0.000 A 
ATOM      6  C   UNL     1       1.222   3.404   2.954  0.00  0.00    +0.000 A 
ATOM      7  C   UNL     1       2.256   2.464   3.063  0.00  0.00    +0.000 A 
BRANCH   5   8
ATOM      8  C   UNL     1      -1.247   4.010   2.884  0.00  0.00    +0.000 C 
BRANCH   8   9
ATOM      9  S   UNL     1      -2.307   3.904   4.370  0.00  0.00    +0.000 S 
BRANCH   9  10
ATOM     10  C   UNL     1      -3.530   5.201   3.999  0.00  0.00    +0.000 C 
BRANCH  10  11
ATOM     11  C   UNL     1      -4.575   5.277   5.091  0.00  0.00    +0.000 A 
ATOM     12  C   UNL     1      -4.384   6.104   6.209  0.00  0.00    +0.000 A 
ATOM     13  C   UNL     1      -5.332   6.145   7.235  0.00  0.00    +0.000 A 
ATOM     14  C   UNL     1      -6.479   5.358   7.160  0.00  0.00    +0.000 A 
ATOM     15  C   UNL     1      -6.678   4.527   6.061  0.00  0.00    +0.000 A 
ATOM     16  C   UNL     1      -5.732   4.484   5.034  0.00  0.00    +0.000 A 
ENDBRANCH  10  11
ENDBRANCH   9  10
ENDBRANCH   8   9
ENDBRANCH   5   8
ENDBRANCH   1   2
BRANCH   1  19
ATOM     17  C   UNL     1       4.468  -1.337   1.844  0.00  0.00    +0.000 C 
ATOM     18  O   UNL     1       4.993  -1.880   2.814  0.00  0.00    +0.000 OA
ATOM     19  N   UNL     1       3.525  -0.361   2.002  0.00  0.00    +0.000 N 
ATOM     20  H   UNL     1       3.129   0.100   1.194  0.00  0.00    +0.000 HD
BRANCH  17  28
ATOM     21  C   UNL     1       3.312  -0.387  -1.259  0.00  0.00    +0.000 A 
ATOM     22  N   UNL     1       3.074  -0.184  -2.571  0.00  0.00    +0.000 NA
ATOM     23  C   UNL     1       3.812  -0.862  -3.455  0.00  0.00    +0.000 A 
ATOM     24  N   UNL     1       4.776  -1.736  -3.188  0.00  0.00    +0.000 NA
ATOM     25  C   UNL     1       4.986  -1.905  -1.870  0.00  0.00    +0.000 A 
ATOM     26  S   UNL     1       6.178  -2.993  -1.347  0.00  0.00    +0.000 S 
ATOM     27  C   UNL     1       5.843  -2.650   0.283  0.00  0.00    +0.000 A 
ATOM     28  C   UNL     1       4.837  -1.709   0.466  0.00  0.00    +0.000 A 
ATOM     29  C   UNL     1       4.317  -1.270  -0.828  0.00  0.00    +0.000 A 
BRANCH  21  31
ATOM     30  C   UNL     1       1.301   0.740  -0.859  0.00  0.00    +0.000 C 
ATOM     31  O   UNL     1       2.570   0.336  -0.349  0.00  0.00    +0.000 OA
ENDBRANCH  21  31
ENDBRANCH  17  28
ENDBRANCH   1  19
TORSDOF 8
