REMARK  Name = 
REMARK  9 active torsions:
REMARK  status: ('A' for Active; 'I' for Inactive)
REMARK    1  A    between atoms: C_1  and  C_2
REMARK    2  A    between atoms: C_2  and  C_3
REMARK    3  A    between atoms: C_3  and  N_4
REMARK    4  A    between atoms: C_3  and  C_17
REMARK    5  A    between atoms: C_5  and  C_7
REMARK    6  A    between atoms: C_20  and  C_21
REMARK    7  A    between atoms: C_21  and  N_22
REMARK    8  A    between atoms: N_22  and  C_23
REMARK    9  A    between atoms: C_23  and  C_24
REMARK                            x       y       z     vdW  Elec       q    Type
REMARK                         _______ _______ _______ _____ _____    ______ ____
ROOT
ATOM      1  C   UNL     1       2.887   1.396  -0.317  0.00  0.00    +0.000 C 
ENDROOT
BRANCH   1   2
ATOM      2  C   UNL     1       4.409   1.420  -0.281  0.00  0.00    +0.000 A 
ATOM      3  C   UNL     1       5.092   2.644  -0.252  0.00  0.00    +0.000 A 
ATOM      4  C   UNL     1       6.489   2.683  -0.202  0.00  0.00    +0.000 A 
ATOM      5  C   UNL     1       7.240   1.500  -0.166  0.00  0.00    +0.000 A 
ATOM      6  C   UNL     1       6.561   0.276  -0.200  0.00  0.00    +0.000 A 
ATOM      7  C   UNL     1       5.164   0.236  -0.254  0.00  0.00    +0.000 A 
BRANCH   5   8
ATOM      8  C   UNL     1       8.751   1.544  -0.105  0.00  0.00    +0.000 C 
BRANCH   8   9
ATOM      9  N   UNL     1       9.214   2.246   1.091  0.00  0.00    +0.000 NA
ATOM     10  H   UNL     1       8.828   1.783   1.914  0.00  0.00    +0.000 HD
BRANCH   9  11
ATOM     11  C   UNL     1      10.672   2.247   1.178  0.00  0.00    +0.000 C 
BRANCH  11  12
ATOM     12  C   UNL     1      11.138   2.952   2.430  0.00  0.00    +0.000 A 
ATOM     13  C   UNL     1      11.896   2.283   3.394  0.00  0.00    +0.000 A 
ATOM     14  C   UNL     1      12.299   2.978   4.527  0.00  0.00    +0.000 A 
ATOM     15  N   UNL     1      12.002   4.273   4.759  0.00  0.00    +0.000 NA
ATOM     16  C   UNL     1      11.271   4.904   3.815  0.00  0.00    +0.000 A 
ATOM     17  C   UNL     1      10.827   4.298   2.650  0.00  0.00    +0.000 A 
ENDBRANCH  11  12
ENDBRANCH   9  11
ENDBRANCH   8   9
ENDBRANCH   5   8
ENDBRANCH   1   2
BRANCH   1  18
ATOM     18  N   UNL     1       2.387   0.853   0.940  0.00  0.00    +0.000 N 
ATOM     19  C   UNL     1       1.157   1.161   1.456  0.00  0.00    +0.000 C 
ATOM     20  O   UNL     1       0.375   1.914   0.881  0.00  0.00    +0.000 OA
ATOM     21  H   UNL     1       3.031   0.286   1.483  0.00  0.00    +0.000 HD
BRANCH  19  22
ATOM     22  C   UNL     1       0.797   0.521   2.730  0.00  0.00    +0.000 A 
ATOM     23  C   UNL     1      -0.540   0.381   3.080  0.00  0.00    +0.000 A 
ATOM     24  S   UNL     1      -0.777  -0.324   4.616  0.00  0.00    +0.000 S 
ATOM     25  C   UNL     1       0.900  -0.427   4.886  0.00  0.00    +0.000 A 
ATOM     26  N   UNL     1       1.391  -0.882   6.070  0.00  0.00    +0.000 NA
ATOM     27  C   UNL     1       2.681  -0.858   6.155  0.00  0.00    +0.000 A 
ATOM     28  N   UNL     1       3.521  -0.457   5.151  0.00  0.00    +0.000 N 
ATOM     29  C   UNL     1       3.067  -0.100   3.904  0.00  0.00    +0.000 A 
ATOM     30  O   UNL     1       3.849   0.061   2.970  0.00  0.00    +0.000 OA
ATOM     31  C   UNL     1       1.629   0.001   3.789  0.00  0.00    +0.000 A 
ATOM     32  H   UNL     1       4.524  -0.519   5.260  0.00  0.00    +0.000 HD
ENDBRANCH  19  22
ENDBRANCH   1  18
BRANCH   1  34
ATOM     33  C   UNL     1       2.756   1.141  -2.868  0.00  0.00    +0.000 C 
ATOM     34  C   UNL     1       2.324   0.596  -1.511  0.00  0.00    +0.000 C 
ENDBRANCH   1  34
TORSDOF 8
