REMARK  Name = 
REMARK  7 active torsions:
REMARK  status: ('A' for Active; 'I' for Inactive)
REMARK    1  A    between atoms: N_1  and  C_2
REMARK    2  A    between atoms: C_2  and  C_3
REMARK    3  A    between atoms: C_7  and  O_8
REMARK    4  A    between atoms: O_8  and  C_9
REMARK    5  A    between atoms: C_9  and  C_10
REMARK    6  A    between atoms: C_10  and  C_13
REMARK    7  A    between atoms: C_17  and  C_18
REMARK                            x       y       z     vdW  Elec       q    Type
REMARK                         _______ _______ _______ _____ _____    ______ ____
ROOT
ATOM      1  C   UNL     1       1.425  -7.120  -0.277  0.00  0.00    +0.000 C 
ATOM      2  F   UNL     1       0.158  -6.628  -0.417  0.00  0.00    +0.000 F 
ATOM      3  F   UNL     1       1.902  -7.279  -1.545  0.00  0.00    +0.000 F 
ENDROOT
BRANCH   1   4
ATOM      4  C   UNL     1       1.432  -8.424   0.501  0.00  0.00    +0.000 A 
ATOM      5  C   UNL     1       2.389  -9.412   0.225  0.00  0.00    +0.000 A 
ATOM      6  C   UNL     1       2.436 -10.579   0.985  0.00  0.00    +0.000 A 
ATOM      7  C   UNL     1       1.535 -10.764   2.035  0.00  0.00    +0.000 A 
ATOM      8  C   UNL     1       0.570  -9.790   2.332  0.00  0.00    +0.000 A 
ATOM      9  C   UNL     1       0.516  -8.628   1.551  0.00  0.00    +0.000 A 
BRANCH   8  10
ATOM     10  C   UNL     1      -0.327 -10.035   3.498  0.00  0.00    +0.000 C 
ATOM     11  N   UNL     1      -1.256  -9.088   3.827  0.00  0.00    +0.000 N 
ATOM     12  O   UNL     1      -0.236 -11.057   4.170  0.00  0.00    +0.000 OA
ATOM     13  H   UNL     1      -1.430  -8.232   3.327  0.00  0.00    +0.000 HD
ATOM     14  H   UNL     1      -1.838  -9.288   4.631  0.00  0.00    +0.000 HD
ENDBRANCH   8  10
ENDBRANCH   1   4
BRANCH   1  15
ATOM     15  C   UNL     1       2.285  -6.080   0.461  0.00  0.00    +0.000 C 
BRANCH  15  16
ATOM     16  O   UNL     1       2.327  -4.845  -0.262  0.00  0.00    +0.000 OA
BRANCH  16  21
ATOM     17  C   UNL     1       3.671  -1.479   0.075  0.00  0.00    +0.000 A 
ATOM     18  C   UNL     1       4.364  -1.563   1.290  0.00  0.00    +0.000 A 
ATOM     19  C   UNL     1       4.396  -2.758   2.006  0.00  0.00    +0.000 A 
ATOM     20  C   UNL     1       3.730  -3.885   1.521  0.00  0.00    +0.000 A 
ATOM     21  C   UNL     1       3.028  -3.821   0.317  0.00  0.00    +0.000 A 
ATOM     22  C   UNL     1       3.006  -2.620  -0.400  0.00  0.00    +0.000 A 
BRANCH  17  23
ATOM     23  C   UNL     1       3.616  -0.183  -0.691  0.00  0.00    +0.000 C 
BRANCH  23  24
ATOM     24  N   UNL     1       4.951   0.302  -1.025  0.00  0.00    +0.000 NA
ATOM     25  H   UNL     1       4.866   1.110  -1.639  0.00  0.00    +0.000 HD
ATOM     26  H   UNL     1       5.433  -0.417  -1.562  0.00  0.00    +0.000 HD
ENDBRANCH  23  24
ENDBRANCH  17  23
ENDBRANCH  16  21
ENDBRANCH  15  16
ENDBRANCH   1  15
TORSDOF 7
