REMARK  Name = 
REMARK  5 active torsions:
REMARK  status: ('A' for Active; 'I' for Inactive)
REMARK    1  A    between atoms: C_1  and  S_2
REMARK    2  A    between atoms: S_2  and  C_3
REMARK    3  A    between atoms: C_6  and  C_7
REMARK    4  A    between atoms: C_7  and  O_8
REMARK    5  A    between atoms: O_8  and  C_9
REMARK                            x       y       z     vdW  Elec       q    Type
REMARK                         _______ _______ _______ _____ _____    ______ ____
ROOT
ATOM      1  C   UNL     1       3.128   1.404   0.905  0.00  0.00    +0.000 A 
ATOM      2  N   UNL     1       4.235   2.065   0.528  0.00  0.00    +0.000 NA
ATOM      3  C   UNL     1       4.536   3.180   1.220  0.00  0.00    +0.000 A 
ATOM      4  C   UNL     1       3.789   3.648   2.278  0.00  0.00    +0.000 A 
ATOM      5  C   UNL     1       2.662   2.909   2.564  0.00  0.00    +0.000 A 
ATOM      6  N   UNL     1       2.316   1.787   1.904  0.00  0.00    +0.000 NA
ENDROOT
BRANCH   1   8
ATOM      7  C   UNL     1       4.036  -0.187  -1.143  0.00  0.00    +0.000 C 
ATOM      8  S   UNL     1       2.685  -0.092   0.056  0.00  0.00    +0.000 S 
ENDBRANCH   1   8
BRANCH   4   9
ATOM      9  C   UNL     1       4.174   4.864   3.054  0.00  0.00    +0.000 C 
BRANCH   9  10
ATOM     10  O   UNL     1       3.593   6.014   2.445  0.00  0.00    +0.000 OA
BRANCH  10  11
ATOM     11  C   UNL     1       3.881   7.219   3.029  0.00  0.00    +0.000 A 
ATOM     12  C   UNL     1       4.639   7.407   4.182  0.00  0.00    +0.000 A 
ATOM     13  C   UNL     1       4.835   8.702   4.636  0.00  0.00    +0.000 A 
ATOM     14  N   UNL     1       4.333   9.796   4.029  0.00  0.00    +0.000 NA
ATOM     15  C   UNL     1       3.599   9.587   2.916  0.00  0.00    +0.000 A 
ATOM     16  C   UNL     1       3.347   8.332   2.385  0.00  0.00    +0.000 A 
ENDBRANCH  10  11
ENDBRANCH   9  10
ENDBRANCH   4   9
TORSDOF 4
