REMARK  Name = 
REMARK  8 active torsions:
REMARK  status: ('A' for Active; 'I' for Inactive)
REMARK    1  A    between atoms: C_1  and  O_2
REMARK    2  A    between atoms: O_2  and  C_3
REMARK    3  A    between atoms: C_6  and  C_7
REMARK    4  A    between atoms: N_9  and  C_10
REMARK    5  A    between atoms: C_10  and  C_11
REMARK    6  A    between atoms: C_14  and  C_15
REMARK    7  A    between atoms: C_15  and  N_16
REMARK    8  A    between atoms: C_17  and  C_19
REMARK                            x       y       z     vdW  Elec       q    Type
REMARK                         _______ _______ _______ _____ _____    ______ ____
ROOT
ATOM      1  C   UNL     1       6.456   1.313  -7.557  0.00  0.00    +0.000 A 
ATOM      2  C   UNL     1       5.650   0.962  -8.648  0.00  0.00    +0.000 A 
ATOM      3  C   UNL     1       5.521   1.822  -9.746  0.00  0.00    +0.000 A 
ATOM      4  C   UNL     1       6.212   3.040  -9.784  0.00  0.00    +0.000 A 
ATOM      5  C   UNL     1       6.999   3.401  -8.682  0.00  0.00    +0.000 A 
ATOM      6  C   UNL     1       7.127   2.542  -7.585  0.00  0.00    +0.000 A 
ENDROOT
BRANCH   1   7
ATOM      7  C   UNL     1       6.645   0.365  -6.399  0.00  0.00    +0.000 C 
BRANCH   7  10
ATOM      8  C   UNL     1       8.151  -1.475  -5.720  0.00  0.00    +0.000 C 
ATOM      9  O   UNL     1       7.571  -1.611  -4.648  0.00  0.00    +0.000 OA
ATOM     10  N   UNL     1       7.753  -0.527  -6.638  0.00  0.00    +0.000 N 
ATOM     11  H   UNL     1       8.271  -0.446  -7.504  0.00  0.00    +0.000 HD
BRANCH   8  15
ATOM     12  C   UNL     1      11.230  -3.322  -7.308  0.00  0.00    +0.000 A 
ATOM     13  C   UNL     1      10.997  -3.893  -6.069  0.00  0.00    +0.000 A 
ATOM     14  C   UNL     1       9.896  -3.298  -5.383  0.00  0.00    +0.000 A 
ATOM     15  C   UNL     1       9.299  -2.288  -6.113  0.00  0.00    +0.000 A 
ATOM     16  S   UNL     1      10.093  -2.076  -7.615  0.00  0.00    +0.000 S 
BRANCH  12  18
ATOM     17  C   UNL     1      13.065  -4.629  -7.978  0.00  0.00    +0.000 C 
ATOM     18  O   UNL     1      12.151  -3.577  -8.246  0.00  0.00    +0.000 OA
ENDBRANCH  12  18
ENDBRANCH   8  15
ENDBRANCH   7  10
ENDBRANCH   1   7
BRANCH   4  19
ATOM     19  C   UNL     1       6.115   3.950 -10.982  0.00  0.00    +0.000 C 
BRANCH  19  20
ATOM     20  N   UNL     1       5.097   4.956 -10.818  0.00  0.00    +0.000 N 
ATOM     21  C   UNL     1       4.929   5.934 -11.766  0.00  0.00    +0.000 C 
ATOM     22  O   UNL     1       5.716   6.081 -12.698  0.00  0.00    +0.000 OA
ATOM     23  H   UNL     1       4.338   4.748 -10.175  0.00  0.00    +0.000 HD
BRANCH  21  24
ATOM     24  C   UNL     1       3.764   6.812 -11.615  0.00  0.00    +0.000 A 
ATOM     25  C   UNL     1       3.792   8.101 -12.130  0.00  0.00    +0.000 A 
ATOM     26  S   UNL     1       2.319   8.942 -11.945  0.00  0.00    +0.000 S 
ATOM     27  C   UNL     1       1.570   7.579 -11.253  0.00  0.00    +0.000 A 
ATOM     28  N   UNL     1       0.238   7.572 -10.979  0.00  0.00    +0.000 NA
ATOM     29  C   UNL     1      -0.199   6.459 -10.491  0.00  0.00    +0.000 A 
ATOM     30  N   UNL     1       0.584   5.370 -10.206  0.00  0.00    +0.000 N 
ATOM     31  C   UNL     1       1.943   5.355 -10.407  0.00  0.00    +0.000 A 
ATOM     32  O   UNL     1       2.635   4.413 -10.037  0.00  0.00    +0.000 OA
ATOM     33  C   UNL     1       2.465   6.544 -11.051  0.00  0.00    +0.000 A 
ATOM     34  H   UNL     1       0.189   4.550  -9.769  0.00  0.00    +0.000 HD
ENDBRANCH  21  24
ENDBRANCH  19  20
ENDBRANCH   4  19
TORSDOF 7
