REMARK  Name = 
REMARK  5 active torsions:
REMARK  status: ('A' for Active; 'I' for Inactive)
REMARK    1  A    between atoms: C_8  and  C_9
REMARK    2  A    between atoms: N_11  and  C_12
REMARK    3  A    between atoms: C_12  and  C_13
REMARK    4  A    between atoms: C_16  and  O_17
REMARK    5  A    between atoms: O_17  and  C_18
REMARK                            x       y       z     vdW  Elec       q    Type
REMARK                         _______ _______ _______ _____ _____    ______ ____
ROOT
ATOM      1  C   UNL     1       6.722  -1.776   1.094  0.00  0.00    +0.000 C 
ATOM      2  O   UNL     1       7.218  -1.943   2.207  0.00  0.00    +0.000 OA
ATOM      3  N   UNL     1       7.468  -1.912  -0.046  0.00  0.00    +0.000 N 
ATOM      4  H   UNL     1       7.049  -1.734  -0.954  0.00  0.00    +0.000 HD
ENDROOT
BRANCH   1  12
ATOM      5  N   UNL     1       0.858  -0.261  -0.557  0.00  0.00    +0.000 N 
ATOM      6  C   UNL     1       2.134  -0.635  -0.873  0.00  0.00    +0.000 A 
ATOM      7  N   UNL     1       2.426  -0.745  -2.146  0.00  0.00    +0.000 NA
ATOM      8  N   UNL     1       3.712  -1.084  -2.505  0.00  0.00    +0.000 N 
ATOM      9  C   UNL     1       4.780  -1.311  -1.654  0.00  0.00    +0.000 A 
ATOM     10  O   UNL     1       5.901  -1.565  -2.088  0.00  0.00    +0.000 OA
ATOM     11  C   UNL     1       4.469  -1.230  -0.234  0.00  0.00    +0.000 A 
ATOM     12  C   UNL     1       5.298  -1.430   0.941  0.00  0.00    +0.000 A 
ATOM     13  C   UNL     1       4.525  -1.254   2.085  0.00  0.00    +0.000 A 
ATOM     14  S   UNL     1       2.896  -0.862   1.771  0.00  0.00    +0.000 S 
ATOM     15  C   UNL     1       3.169  -0.908   0.103  0.00  0.00    +0.000 A 
ATOM     16  H   UNL     1       0.186  -0.355  -1.309  0.00  0.00    +0.000 HD
ATOM     17  H   UNL     1       0.517  -0.471   0.373  0.00  0.00    +0.000 HD
ATOM     18  H   UNL     1       3.899  -1.120  -3.502  0.00  0.00    +0.000 HD
ENDBRANCH   1  12
BRANCH   3  19
ATOM     19  C   UNL     1       8.859  -2.284  -0.020  0.00  0.00    +0.000 C 
BRANCH  19  20
ATOM     20  C   UNL     1       9.765  -1.089  -0.013  0.00  0.00    +0.000 A 
ATOM     21  C   UNL     1      10.228  -0.517   1.177  0.00  0.00    +0.000 A 
ATOM     22  C   UNL     1      11.107   0.564   1.130  0.00  0.00    +0.000 A 
ATOM     23  C   UNL     1      11.492   1.038  -0.116  0.00  0.00    +0.000 A 
ATOM     24  N   UNL     1      11.012   0.551  -1.280  0.00  0.00    +0.000 NA
ATOM     25  C   UNL     1      10.172  -0.501  -1.205  0.00  0.00    +0.000 A 
BRANCH  23  26
ATOM     26  O   UNL     1      12.420   2.071  -0.145  0.00  0.00    +0.000 OA
BRANCH  26  27
ATOM     27  C   UNL     1      13.261   2.123  -1.230  0.00  0.00    +0.000 A 
ATOM     28  C   UNL     1      13.842   1.001  -1.821  0.00  0.00    +0.000 A 
ATOM     29  C   UNL     1      14.684   1.159  -2.920  0.00  0.00    +0.000 A 
ATOM     30  C   UNL     1      14.950   2.444  -3.361  0.00  0.00    +0.000 A 
ATOM     31  N   UNL     1      14.438   3.556  -2.787  0.00  0.00    +0.000 NA
ATOM     32  C   UNL     1      13.605   3.368  -1.737  0.00  0.00    +0.000 A 
ENDBRANCH  26  27
ENDBRANCH  23  26
ENDBRANCH  19  20
ENDBRANCH   3  19
TORSDOF 5
