REMARK  Name = 
REMARK  5 active torsions:
REMARK  status: ('A' for Active; 'I' for Inactive)
REMARK    1  A    between atoms: C_2  and  C_4
REMARK    2  A    between atoms: C_7  and  C_8
REMARK    3  A    between atoms: C_8  and  S_9
REMARK    4  A    between atoms: S_9  and  C_10
REMARK    5  A    between atoms: C_14  and  C_15
REMARK                            x       y       z     vdW  Elec       q    Type
REMARK                         _______ _______ _______ _____ _____    ______ ____
ROOT
ATOM      1  S   UNL     1       4.997  -5.302   3.252  0.00  0.00    +0.000 S 
ENDROOT
BRANCH   1   2
ATOM      2  C   UNL     1       6.030  -6.246   4.361  0.00  0.00    +0.000 A 
ATOM      3  C   UNL     1       5.666  -7.576   4.570  0.00  0.00    +0.000 A 
ATOM      4  N   UNL     1       6.321  -8.440   5.377  0.00  0.00    +0.000 NA
ATOM      5  C   UNL     1       7.403  -7.955   6.024  0.00  0.00    +0.000 A 
ATOM      6  C   UNL     1       7.876  -6.643   5.925  0.00  0.00    +0.000 A 
ATOM      7  C   UNL     1       7.156  -5.791   5.058  0.00  0.00    +0.000 A 
BRANCH   6   8
ATOM      8  C   UNL     1       9.051  -6.190   6.702  0.00  0.00    +0.000 A 
ATOM      9  C   UNL     1       9.966  -5.249   6.210  0.00  0.00    +0.000 A 
ATOM     10  C   UNL     1      11.057  -4.842   6.981  0.00  0.00    +0.000 A 
ATOM     11  C   UNL     1      11.221  -5.396   8.237  0.00  0.00    +0.000 A 
ATOM     12  N   UNL     1      10.380  -6.308   8.759  0.00  0.00    +0.000 NA
ATOM     13  C   UNL     1       9.326  -6.675   7.987  0.00  0.00    +0.000 A 
ENDBRANCH   6   8
ENDBRANCH   1   2
BRANCH   1  14
ATOM     14  C   UNL     1       5.765  -3.650   3.174  0.00  0.00    +0.000 C 
BRANCH  14  18
ATOM     15  C   UNL     1       3.450  -1.080   0.556  0.00  0.00    +0.000 A 
ATOM     16  C   UNL     1       3.174  -1.122   1.927  0.00  0.00    +0.000 A 
ATOM     17  C   UNL     1       3.929  -1.945   2.773  0.00  0.00    +0.000 A 
ATOM     18  C   UNL     1       4.972  -2.735   2.263  0.00  0.00    +0.000 A 
ATOM     19  C   UNL     1       5.230  -2.699   0.885  0.00  0.00    +0.000 A 
ATOM     20  C   UNL     1       4.473  -1.882   0.038  0.00  0.00    +0.000 A 
BRANCH  15  22
ATOM     21  N   UNL     1       2.074   0.886   0.119  0.00  0.00    +0.000 N 
ATOM     22  C   UNL     1       2.666  -0.238  -0.385  0.00  0.00    +0.000 C 
ATOM     23  O   UNL     1       2.581  -0.510  -1.577  0.00  0.00    +0.000 OA
ATOM     24  H   UNL     1       1.637   1.501  -0.557  0.00  0.00    +0.000 HD
ATOM     25  H   UNL     1       2.325   1.278   1.014  0.00  0.00    +0.000 HD
ENDBRANCH  15  22
ENDBRANCH  14  18
ENDBRANCH   1  14
TORSDOF 5
