REMARK  Name = 
REMARK  7 active torsions:
REMARK  status: ('A' for Active; 'I' for Inactive)
REMARK    1  A    between atoms: N_1  and  C_2
REMARK    2  A    between atoms: C_2  and  C_3
REMARK    3  A    between atoms: C_7  and  C_8
REMARK    4  A    between atoms: C_8  and  C_9
REMARK    5  A    between atoms: C_9  and  N_10
REMARK    6  A    between atoms: N_10  and  C_11
REMARK    7  A    between atoms: C_14  and  C_15
REMARK                            x       y       z     vdW  Elec       q    Type
REMARK                         _______ _______ _______ _____ _____    ______ ____
ROOT
ATOM      1  N   UNL     1       6.618  -0.888  -6.126  0.00  0.00    +0.000 N 
ATOM      2  H   UNL     1       6.280  -1.819  -6.356  0.00  0.00    +0.000 HD
ENDROOT
BRANCH   1   3
ATOM      3  C   UNL     1       7.226  -0.268  -7.236  0.00  0.00    +0.000 A 
ATOM      4  C   UNL     1       7.503   1.104  -7.270  0.00  0.00    +0.000 A 
ATOM      5  C   UNL     1       8.144   1.696  -8.364  0.00  0.00    +0.000 A 
ATOM      6  C   UNL     1       8.565   0.914  -9.439  0.00  0.00    +0.000 A 
ATOM      7  C   UNL     1       8.341  -0.464  -9.409  0.00  0.00    +0.000 A 
ATOM      8  C   UNL     1       7.694  -1.048  -8.305  0.00  0.00    +0.000 A 
BRANCH   6   9
ATOM      9  C   UNL     1       9.228   1.614 -10.574  0.00  0.00    +0.000 C 
ATOM     10  N   UNL     1      10.102   0.895 -11.341  0.00  0.00    +0.000 N 
ATOM     11  O   UNL     1       9.035   2.801 -10.797  0.00  0.00    +0.000 OA
ATOM     12  H   UNL     1      10.461  -0.006 -11.065  0.00  0.00    +0.000 HD
ATOM     13  H   UNL     1      10.627   1.427 -12.024  0.00  0.00    +0.000 HD
ENDBRANCH   6   9
ENDBRANCH   1   3
BRANCH   1  14
ATOM     14  C   UNL     1       5.618  -0.085  -5.403  0.00  0.00    +0.000 C 
BRANCH  14  15
ATOM     15  C   UNL     1       4.971  -0.869  -4.255  0.00  0.00    +0.000 C 
BRANCH  15  20
ATOM     16  C   UNL     1       3.494   1.690  -1.815  0.00  0.00    +0.000 A 
ATOM     17  C   UNL     1       2.152   1.696  -2.216  0.00  0.00    +0.000 A 
ATOM     18  C   UNL     1       1.720   0.862  -3.247  0.00  0.00    +0.000 A 
ATOM     19  C   UNL     1       2.622   0.015  -3.894  0.00  0.00    +0.000 A 
ATOM     20  C   UNL     1       3.969  -0.011  -3.512  0.00  0.00    +0.000 A 
ATOM     21  C   UNL     1       4.392   0.826  -2.468  0.00  0.00    +0.000 A 
BRANCH  16  22
ATOM     22  C   UNL     1       3.967   2.586  -0.699  0.00  0.00    +0.000 C 
BRANCH  22  23
ATOM     23  N   UNL     1       5.012   3.498  -1.152  0.00  0.00    +0.000 NA
ATOM     24  H   UNL     1       5.232   4.150  -0.402  0.00  0.00    +0.000 HD
ATOM     25  H   UNL     1       4.644   4.057  -1.921  0.00  0.00    +0.000 HD
ENDBRANCH  22  23
ENDBRANCH  16  22
ENDBRANCH  15  20
ENDBRANCH  14  15
ENDBRANCH   1  14
TORSDOF 7
