REMARK  Name = 
REMARK  8 active torsions:
REMARK  status: ('A' for Active; 'I' for Inactive)
REMARK    1  A    between atoms: C_1  and  C_2
REMARK    2  A    between atoms: C_2  and  N_3
REMARK    3  A    between atoms: C_2  and  C_25
REMARK    4  A    between atoms: N_3  and  C_4
REMARK    5  A    between atoms: C_4  and  C_5
REMARK    6  A    between atoms: C_8  and  C_9
REMARK    7  A    between atoms: C_9  and  N_10
REMARK    8  A    between atoms: C_11  and  C_13
REMARK                            x       y       z     vdW  Elec       q    Type
REMARK                         _______ _______ _______ _____ _____    ______ ____
ROOT
ATOM      1  C   UNL     1       2.880   2.811  -2.431  0.00  0.00    +0.000 A 
ATOM      2  C   UNL     1       2.241   3.944  -1.926  0.00  0.00    +0.000 A 
ATOM      3  C   UNL     1       2.610   5.208  -2.379  0.00  0.00    +0.000 A 
ATOM      4  C   UNL     1       3.626   5.315  -3.320  0.00  0.00    +0.000 A 
ATOM      5  N   UNL     1       4.256   4.233  -3.841  0.00  0.00    +0.000 NA
ATOM      6  C   UNL     1       3.871   3.015  -3.387  0.00  0.00    +0.000 A 
ENDROOT
BRANCH   1   7
ATOM      7  C   UNL     1       2.502   1.432  -1.961  0.00  0.00    +0.000 C 
BRANCH   7   8
ATOM      8  N   UNL     1       3.634   0.767  -1.326  0.00  0.00    +0.000 NA
ATOM      9  H   UNL     1       4.385   0.670  -2.009  0.00  0.00    +0.000 HD
BRANCH   8  11
ATOM     10  C   UNL     1       2.237  -0.606   0.246  0.00  0.00    +0.000 C 
ATOM     11  C   UNL     1       3.331  -0.589  -0.826  0.00  0.00    +0.000 C 
BRANCH  11  12
ATOM     12  C   UNL     1       4.577  -1.266  -0.246  0.00  0.00    +0.000 A 
ATOM     13  C   UNL     1       5.551  -0.529   0.434  0.00  0.00    +0.000 A 
ATOM     14  C   UNL     1       6.649  -1.190   0.974  0.00  0.00    +0.000 A 
ATOM     15  C   UNL     1       6.743  -2.568   0.843  0.00  0.00    +0.000 A 
ATOM     16  C   UNL     1       5.734  -3.229   0.164  0.00  0.00    +0.000 A 
ATOM     17  N   UNL     1       4.663  -2.614  -0.385  0.00  0.00    +0.000 NA
ENDBRANCH  11  12
ENDBRANCH   8  11
ENDBRANCH   7   8
ENDBRANCH   1   7
BRANCH   4  18
ATOM     18  C   UNL     1       4.063   6.672  -3.814  0.00  0.00    +0.000 C 
BRANCH  18  19
ATOM     19  N   UNL     1       3.339   7.091  -4.992  0.00  0.00    +0.000 N 
ATOM     20  C   UNL     1       2.237   7.899  -4.925  0.00  0.00    +0.000 C 
ATOM     21  O   UNL     1       1.788   8.304  -3.855  0.00  0.00    +0.000 OA
ATOM     22  H   UNL     1       3.534   6.569  -5.842  0.00  0.00    +0.000 HD
BRANCH  20  23
ATOM     23  C   UNL     1       1.657   8.322  -6.205  0.00  0.00    +0.000 A 
ATOM     24  C   UNL     1       0.946   9.513  -6.274  0.00  0.00    +0.000 A 
ATOM     25  S   UNL     1       0.340   9.859  -7.829  0.00  0.00    +0.000 S 
ATOM     26  C   UNL     1       0.980   8.414  -8.460  0.00  0.00    +0.000 A 
ATOM     27  N   UNL     1       0.778   8.068  -9.760  0.00  0.00    +0.000 NA
ATOM     28  C   UNL     1       1.297   6.934 -10.097  0.00  0.00    +0.000 A 
ATOM     29  N   UNL     1       2.014   6.124  -9.254  0.00  0.00    +0.000 N 
ATOM     30  C   UNL     1       2.287   6.459  -7.951  0.00  0.00    +0.000 A 
ATOM     31  O   UNL     1       3.017   5.760  -7.255  0.00  0.00    +0.000 OA
ATOM     32  C   UNL     1       1.682   7.698  -7.506  0.00  0.00    +0.000 A 
ATOM     33  H   UNL     1       2.423   5.263  -9.588  0.00  0.00    +0.000 HD
ENDBRANCH  20  23
ENDBRANCH  18  19
ENDBRANCH   4  18
TORSDOF 7
