REMARK  Name = 
REMARK  7 active torsions:
REMARK  status: ('A' for Active; 'I' for Inactive)
REMARK    1  A    between atoms: CA_9  and  C_10
REMARK    2  A    between atoms: N_12  and  CA_13
REMARK    3  A    between atoms: CA_13  and  C_14
REMARK    4  A    between atoms: CA_13  and  C_16
REMARK    5  A    between atoms: C_14  and  O_15
REMARK    6  A    between atoms: C_19  and  O_20
REMARK    7  A    between atoms: O_20  and  C_21
REMARK                            x       y       z     vdW  Elec       q    Type
REMARK                         _______ _______ _______ _____ _____    ______ ____
ROOT
ATOM      1  C   UNL     1       1.880   4.064  -1.144  0.00  0.00    +0.000 C 
ATOM      2  O   UNL     1       1.368   4.357  -2.221  0.00  0.00    +0.000 OA
ATOM      3  N   UNL     1       1.231   4.234   0.056  0.00  0.00    +0.000 N 
ATOM      4  H   UNL     1       1.654   3.902   0.913  0.00  0.00    +0.000 HD
ENDROOT
BRANCH   1  13
ATOM      5  N   UNL     1       2.222   2.708  -4.105  0.00  0.00    +0.000 N 
ATOM      6  C   UNL     1       3.437   2.542  -3.511  0.00  0.00    +0.000 A 
ATOM      7  N   UNL     1       4.471   2.006  -4.140  0.00  0.00    +0.000 NA
ATOM      8  N   UNL     1       5.515   1.978  -3.224  0.00  0.00    +0.000 N 
ATOM      9  C   UNL     1       5.216   2.509  -1.994  0.00  0.00    +0.000 A 
ATOM     10  N   UNL     1       5.979   2.658  -0.958  0.00  0.00    +0.000 NA
ATOM     11  C   UNL     1       5.333   3.267   0.088  0.00  0.00    +0.000 C 
ATOM     12  N   UNL     1       4.012   3.638   0.117  0.00  0.00    +0.000 N 
ATOM     13  CA  UNL     1       3.259   3.508  -1.046  0.00  0.00    +0.000 C 
ATOM     14  C   UNL     1       3.796   2.920  -2.118  0.00  0.00    +0.000 A 
ATOM     15  H   UNL     1       2.257   2.718  -5.117  0.00  0.00    +0.000 HD
ATOM     16  H   UNL     1       1.645   3.456  -3.707  0.00  0.00    +0.000 HD
ATOM     17  H   UNL     1       6.443   1.651  -3.466  0.00  0.00    +0.000 HD
ATOM     18  H   UNL     1       3.751   4.358   0.780  0.00  0.00    +0.000 HD
ENDBRANCH   1  13
BRANCH   3  19
ATOM     19  CA  UNL     1      -0.080   4.870   0.111  0.00  0.00    +0.000 C 
BRANCH  19  20
ATOM     20  C   UNL     1       0.006   6.383   0.050  0.00  0.00    +0.000 A 
ATOM     21  C   UNL     1      -1.027   7.095  -0.579  0.00  0.00    +0.000 A 
ATOM     22  C   UNL     1      -0.999   8.488  -0.643  0.00  0.00    +0.000 A 
ATOM     23  C   UNL     1       0.041   9.198  -0.042  0.00  0.00    +0.000 A 
ATOM     24  C   UNL     1       1.092   8.503   0.558  0.00  0.00    +0.000 A 
ATOM     25  C   UNL     1       1.070   7.105   0.614  0.00  0.00    +0.000 A 
BRANCH  23  26
ATOM     26  O   UNL     1       0.139  10.570  -0.065  0.00  0.00    +0.000 OA
BRANCH  26  27
ATOM     27  C   UNL     1      -1.024  11.314   0.099  0.00  0.00    +0.000 A 
ATOM     28  C   UNL     1      -1.012  12.603  -0.413  0.00  0.00    +0.000 A 
ATOM     29  C   UNL     1      -2.166  13.372  -0.291  0.00  0.00    +0.000 A 
ATOM     30  C   UNL     1      -3.282  12.831   0.339  0.00  0.00    +0.000 A 
ATOM     31  C   UNL     1      -3.191  11.545   0.845  0.00  0.00    +0.000 A 
ATOM     32  N   UNL     1      -2.084  10.781   0.752  0.00  0.00    +0.000 NA
ENDBRANCH  26  27
ENDBRANCH  23  26
ENDBRANCH  19  20
BRANCH  19  33
ATOM     33  C   UNL     1      -0.876   4.406   1.348  0.00  0.00    +0.000 C 
BRANCH  33  34
ATOM     34  O   UNL     1      -0.979   2.981   1.409  0.00  0.00    +0.000 OA
ATOM     35  H   UNL     1      -0.734   2.617   0.540  0.00  0.00    +0.000 HD
ENDBRANCH  33  34
ENDBRANCH  19  33
ENDBRANCH   3  19
TORSDOF 7
