REMARK  Name = 
REMARK  8 active torsions:
REMARK  status: ('A' for Active; 'I' for Inactive)
REMARK    1  A    between atoms: C_1  and  O_2
REMARK    2  A    between atoms: O_2  and  C_3
REMARK    3  A    between atoms: C_10  and  C_11
REMARK    4  A    between atoms: N_13  and  C_14
REMARK    5  A    between atoms: C_14  and  C_15
REMARK    6  A    between atoms: C_18  and  N_19
REMARK    7  A    between atoms: N_19  and  C_20
REMARK    8  A    between atoms: C_20  and  C_21
REMARK                            x       y       z     vdW  Elec       q    Type
REMARK                         _______ _______ _______ _____ _____    ______ ____
ROOT
ATOM      1  C   UNL     1       3.249  -2.915   1.497  0.00  0.00    +0.000 C 
ENDROOT
BRANCH   1   2
ATOM      2  C   UNL     1       2.262  -2.321   2.475  0.00  0.00    +0.000 A 
ATOM      3  C   UNL     1       1.330  -3.125   3.147  0.00  0.00    +0.000 A 
ATOM      4  C   UNL     1       0.439  -2.571   4.086  0.00  0.00    +0.000 A 
ATOM      5  C   UNL     1       0.463  -1.205   4.378  0.00  0.00    +0.000 A 
ATOM      6  C   UNL     1       1.336  -0.398   3.639  0.00  0.00    +0.000 A 
ATOM      7  C   UNL     1       2.237  -0.944   2.716  0.00  0.00    +0.000 A 
BRANCH   5   8
ATOM      8  N   UNL     1      -0.392  -0.567   5.283  0.00  0.00    +0.000 N 
ATOM      9  H   UNL     1      -1.188  -0.159   4.792  0.00  0.00    +0.000 HD
BRANCH   8  10
ATOM     10  C   UNL     1      -0.839  -1.288   6.478  0.00  0.00    +0.000 C 
BRANCH  10  11
ATOM     11  C   UNL     1      -1.138  -0.318   7.605  0.00  0.00    +0.000 A 
ATOM     12  C   UNL     1      -0.131   0.499   8.117  0.00  0.00    +0.000 A 
ATOM     13  N   UNL     1      -0.325   1.359   9.148  0.00  0.00    +0.000 NA
ATOM     14  C   UNL     1      -1.575   1.379   9.655  0.00  0.00    +0.000 A 
ATOM     15  C   UNL     1      -2.586   0.574   9.155  0.00  0.00    +0.000 A 
ATOM     16  N   UNL     1      -2.395  -0.287   8.127  0.00  0.00    +0.000 NA
ENDBRANCH  10  11
ENDBRANCH   8  10
ENDBRANCH   5   8
ENDBRANCH   1   2
BRANCH   1  19
ATOM     17  C   UNL     1       3.415  -3.485  -0.900  0.00  0.00    +0.000 C 
ATOM     18  O   UNL     1       4.545  -3.942  -0.753  0.00  0.00    +0.000 OA
ATOM     19  N   UNL     1       2.713  -2.972   0.160  0.00  0.00    +0.000 N 
ATOM     20  H   UNL     1       1.799  -2.564   0.012  0.00  0.00    +0.000 HD
BRANCH  17  28
ATOM     21  C   UNL     1       0.316  -2.460  -1.986  0.00  0.00    +0.000 A 
ATOM     22  N   UNL     1      -0.789  -2.101  -2.669  0.00  0.00    +0.000 NA
ATOM     23  C   UNL     1      -0.797  -2.292  -3.991  0.00  0.00    +0.000 A 
ATOM     24  N   UNL     1       0.175  -2.818  -4.730  0.00  0.00    +0.000 NA
ATOM     25  C   UNL     1       1.261  -3.153  -4.011  0.00  0.00    +0.000 A 
ATOM     26  S   UNL     1       2.601  -3.847  -4.787  0.00  0.00    +0.000 S 
ATOM     27  C   UNL     1       3.461  -3.946  -3.323  0.00  0.00    +0.000 A 
ATOM     28  C   UNL     1       2.762  -3.459  -2.225  0.00  0.00    +0.000 A 
ATOM     29  C   UNL     1       1.437  -3.001  -2.639  0.00  0.00    +0.000 A 
BRANCH  21  31
ATOM     30  C   UNL     1      -0.965  -2.224  -0.042  0.00  0.00    +0.000 C 
ATOM     31  O   UNL     1       0.334  -2.240  -0.626  0.00  0.00    +0.000 OA
ENDBRANCH  21  31
ENDBRANCH  17  28
ENDBRANCH   1  19
TORSDOF 7
