REMARK  Name = 
REMARK  7 active torsions:
REMARK  status: ('A' for Active; 'I' for Inactive)
REMARK    1  A    between atoms: N_1  and  C_2
REMARK    2  A    between atoms: C_2  and  C_3
REMARK    3  A    between atoms: C_6  and  O_7
REMARK    4  A    between atoms: O_7  and  C_8
REMARK    5  A    between atoms: C_8  and  C_9
REMARK    6  A    between atoms: C_13  and  C_14
REMARK    7  A    between atoms: C_14  and  O_16
REMARK                            x       y       z     vdW  Elec       q    Type
REMARK                         _______ _______ _______ _____ _____    ______ ____
ROOT
ATOM      1  O   UNL     1       4.134  -2.375  -4.902  0.00  0.00    +0.000 OA
ENDROOT
BRANCH   1   5
ATOM      2  C   UNL     1       3.331  -0.207  -1.425  0.00  0.00    +0.000 A 
ATOM      3  C   UNL     1       2.630  -1.377  -1.750  0.00  0.00    +0.000 A 
ATOM      4  C   UNL     1       2.937  -2.088  -2.912  0.00  0.00    +0.000 A 
ATOM      5  C   UNL     1       3.938  -1.632  -3.770  0.00  0.00    +0.000 A 
ATOM      6  C   UNL     1       4.664  -0.489  -3.435  0.00  0.00    +0.000 A 
ATOM      7  C   UNL     1       4.355   0.224  -2.275  0.00  0.00    +0.000 A 
BRANCH   2   8
ATOM      8  C   UNL     1       2.992   0.578  -0.184  0.00  0.00    +0.000 C 
BRANCH   8   9
ATOM      9  N   UNL     1       3.212  -0.210   1.021  0.00  0.00    +0.000 NA
ATOM     10  H   UNL     1       3.096   0.389   1.836  0.00  0.00    +0.000 HD
ATOM     11  H   UNL     1       4.180  -0.529   1.033  0.00  0.00    +0.000 HD
ENDBRANCH   8   9
ENDBRANCH   2   8
ENDBRANCH   1   5
BRANCH   1  12
ATOM     12  C   UNL     1       4.736  -1.668  -5.990  0.00  0.00    +0.000 C 
BRANCH  12  13
ATOM     13  C   UNL     1       4.454  -2.382  -7.284  0.00  0.00    +0.000 A 
ATOM     14  C   UNL     1       5.310  -2.220  -8.370  0.00  0.00    +0.000 A 
ATOM     15  N   UNL     1       5.100  -2.769  -9.586  0.00  0.00    +0.000 NA
ATOM     16  C   UNL     1       3.977  -3.516  -9.736  0.00  0.00    +0.000 A 
ATOM     17  C   UNL     1       3.063  -3.744  -8.717  0.00  0.00    +0.000 A 
ATOM     18  C   UNL     1       3.295  -3.142  -7.480  0.00  0.00    +0.000 A 
BRANCH  17  19
ATOM     19  C   UNL     1       1.872  -4.564  -9.006  0.00  0.00    +0.000 C 
ATOM     20  O   UNL     1       1.400  -4.661 -10.127  0.00  0.00    +0.000 OA
BRANCH  19  21
ATOM     21  O   UNL     1       1.374  -5.220  -7.938  0.00  0.00    +0.000 OA
ATOM     22  H   UNL     1       1.919  -5.199  -7.130  0.00  0.00    +0.000 HD
ENDBRANCH  19  21
ENDBRANCH  17  19
ENDBRANCH  12  13
ENDBRANCH   1  12
TORSDOF 7
