REMARK  Name = 
REMARK  4 active torsions:
REMARK  status: ('A' for Active; 'I' for Inactive)
REMARK    1  A    between atoms: C_2  and  C_4
REMARK    2  A    between atoms: N_8  and  C_9
REMARK    3  A    between atoms: C_9  and  C_10
REMARK    4  A    between atoms: C_10  and  C_11
REMARK                            x       y       z     vdW  Elec       q    Type
REMARK                         _______ _______ _______ _____ _____    ______ ____
ROOT
ATOM      1  C   UNL     1       2.889   1.191   0.924  0.00  0.00    +0.000 A 
ATOM      2  C   UNL     1       4.245   1.281   0.623  0.00  0.00    +0.000 A 
ATOM      3  C   UNL     1       5.098   1.912   1.529  0.00  0.00    +0.000 A 
ATOM      4  C   UNL     1       4.592   2.414   2.728  0.00  0.00    +0.000 A 
ATOM      5  N   UNL     1       5.509   2.951   3.642  0.00  0.00    +0.000 N 
ATOM      6  N   UNL     1       3.278   2.350   3.016  0.00  0.00    +0.000 NA
ATOM      7  C   UNL     1       2.452   1.766   2.108  0.00  0.00    +0.000 A 
ATOM      8  H   UNL     1       6.009   3.722   3.211  0.00  0.00    +0.000 HD
ENDROOT
BRANCH   1  10
ATOM      9  N   UNL     1       2.385  -0.488  -0.758  0.00  0.00    +0.000 N 
ATOM     10  C   UNL     1       1.910   0.512   0.046  0.00  0.00    +0.000 C 
ATOM     11  O   UNL     1       0.722   0.803   0.069  0.00  0.00    +0.000 OA
ATOM     12  H   UNL     1       1.688  -1.022  -1.262  0.00  0.00    +0.000 HD
ATOM     13  H   UNL     1       3.283  -0.920  -0.612  0.00  0.00    +0.000 HD
ENDBRANCH   1  10
BRANCH   5  14
ATOM     14  C   UNL     1       4.979   3.259   4.971  0.00  0.00    +0.000 C 
BRANCH  14  15
ATOM     15  C   UNL     1       6.017   4.067   5.760  0.00  0.00    +0.000 C 
BRANCH  15  16
ATOM     16  C   UNL     1       5.679   4.174   7.226  0.00  0.00    +0.000 A 
ATOM     17  C   UNL     1       6.130   3.196   8.123  0.00  0.00    +0.000 A 
ATOM     18  C   UNL     1       5.820   3.283   9.480  0.00  0.00    +0.000 A 
ATOM     19  C   UNL     1       5.052   4.346   9.953  0.00  0.00    +0.000 A 
ATOM     20  C   UNL     1       4.590   5.318   9.068  0.00  0.00    +0.000 A 
ATOM     21  C   UNL     1       4.898   5.232   7.709  0.00  0.00    +0.000 A 
ENDBRANCH  15  16
ENDBRANCH  14  15
ENDBRANCH   5  14
TORSDOF 4
