REMARK  Name = 
REMARK  5 active torsions:
REMARK  status: ('A' for Active; 'I' for Inactive)
REMARK    1  A    between atoms: N_1  and  C_2
REMARK    2  A    between atoms: C_2  and  C_3
REMARK    3  A    between atoms: C_3  and  C_4
REMARK    4  A    between atoms: C_7  and  C_8
REMARK    5  A    between atoms: C_8  and  N_9
REMARK                            x       y       z     vdW  Elec       q    Type
REMARK                         _______ _______ _______ _____ _____    ______ ____
ROOT
ATOM      1  C   UNL     1       4.601   1.267  -0.495  0.00  0.00    +0.000 A 
ATOM      2  C   UNL     1       5.344   2.456  -0.487  0.00  0.00    +0.000 A 
ATOM      3  C   UNL     1       6.737   2.417  -0.439  0.00  0.00    +0.000 A 
ATOM      4  C   UNL     1       7.422   1.192  -0.401  0.00  0.00    +0.000 A 
ATOM      5  C   UNL     1       6.679   0.005  -0.426  0.00  0.00    +0.000 A 
ATOM      6  C   UNL     1       5.284   0.041  -0.482  0.00  0.00    +0.000 A 
ENDROOT
BRANCH   1   7
ATOM      7  C   UNL     1       3.091   1.298  -0.505  0.00  0.00    +0.000 C 
BRANCH   7   8
ATOM      8  C   UNL     1       2.493   1.300  -1.912  0.00  0.00    +0.000 C 
BRANCH   8   9
ATOM      9  N   UNL     1       1.030   1.304  -1.858  0.00  0.00    +0.000 NA
ATOM     10  H   UNL     1       0.658   1.308  -2.806  0.00  0.00    +0.000 HD
ATOM     11  H   UNL     1       0.708   2.165  -1.421  0.00  0.00    +0.000 HD
ENDBRANCH   8   9
ENDBRANCH   7   8
ENDBRANCH   1   7
BRANCH   4  12
ATOM     12  C   UNL     1       8.927   1.152  -0.383  0.00  0.00    +0.000 C 
BRANCH  12  13
ATOM     13  N   UNL     1       9.537   1.123   0.943  0.00  0.00    +0.000 N 
ATOM     14  C   UNL     1       9.240   1.971   1.977  0.00  0.00    +0.000 A 
ATOM     15  N   UNL     1      10.239   2.076   2.826  0.00  0.00    +0.000 NA
ATOM     16  C   UNL     1      11.212   1.240   2.340  0.00  0.00    +0.000 A 
ATOM     17  C   UNL     1      12.527   1.042   2.789  0.00  0.00    +0.000 A 
ATOM     18  C   UNL     1      13.342   0.128   2.110  0.00  0.00    +0.000 A 
ATOM     19  C   UNL     1      12.843  -0.612   1.037  0.00  0.00    +0.000 A 
ATOM     20  C   UNL     1      11.538  -0.422   0.569  0.00  0.00    +0.000 A 
ATOM     21  C   UNL     1      10.762   0.547   1.218  0.00  0.00    +0.000 A 
ENDBRANCH  12  13
ENDBRANCH   4  12
TORSDOF 5
