REMARK  Name = 
REMARK  9 active torsions:
REMARK  status: ('A' for Active; 'I' for Inactive)
REMARK    1  A    between atoms: C_1  and  N_2
REMARK    2  A    between atoms: N_5  and  C_6
REMARK    3  A    between atoms: C_10  and  C_11
REMARK    4  A    between atoms: C_11  and  C_12
REMARK    5  A    between atoms: C_11  and  C_13
REMARK    6  A    between atoms: C_11  and  C_14
REMARK    7  A    between atoms: C_14  and  N_15
REMARK    8  A    between atoms: N_15  and  C_16
REMARK    9  A    between atoms: C_19  and  C_20
REMARK                            x       y       z     vdW  Elec       q    Type
REMARK                         _______ _______ _______ _____ _____    ______ ____
ROOT
ATOM      1  C   UNL     1      -6.405   1.756   0.512  0.00  0.00    +0.000 C 
ATOM      2  C   UNL     1      -7.711   0.962   0.277  0.00  0.00    +0.000 C 
ATOM      3  C   UNL     1      -6.675   2.839   1.585  0.00  0.00    +0.000 C 
ENDROOT
BRANCH   1   8
ATOM      4  C   UNL     1      -3.012  -0.100   0.827  0.00  0.00    +0.000 A 
ATOM      5  C   UNL     1      -3.204  -0.751   2.049  0.00  0.00    +0.000 A 
ATOM      6  C   UNL     1      -4.423  -0.685   2.728  0.00  0.00    +0.000 A 
ATOM      7  C   UNL     1      -5.464   0.094   2.225  0.00  0.00    +0.000 A 
ATOM      8  C   UNL     1      -5.319   0.783   1.012  0.00  0.00    +0.000 A 
ATOM      9  C   UNL     1      -4.117   0.588   0.308  0.00  0.00    +0.000 A 
BRANCH   4  14
ATOM     10  C   UNL     1       1.658   1.847  -1.468  0.00  0.00    +0.000 C 
ATOM     11  N   UNL     1       0.703   0.828  -1.041  0.00  0.00    +0.000 NA
ATOM     12  C   UNL     1       0.494   0.883   0.422  0.00  0.00    +0.000 C 
ATOM     13  C   UNL     1      -0.523  -0.174   0.922  0.00  0.00    +0.000 C 
ATOM     14  N   UNL     1      -1.791  -0.042   0.188  0.00  0.00    +0.000 N 
ATOM     15  C   UNL     1      -1.647  -0.038  -1.279  0.00  0.00    +0.000 C 
ATOM     16  C   UNL     1      -0.599   1.012  -1.718  0.00  0.00    +0.000 C 
ENDBRANCH   4  14
ENDBRANCH   1   8
BRANCH   1  17
ATOM     17  C   UNL     1      -6.079   2.490  -0.836  0.00  0.00    +0.000 C 
BRANCH  17  18
ATOM     18  N   UNL     1      -4.913   3.392  -0.754  0.00  0.00    +0.000 N 
ATOM     19  H   UNL     1      -4.162   3.034  -0.166  0.00  0.00    +0.000 HD
BRANCH  18  20
ATOM     20  C   UNL     1      -4.453   3.965  -1.946  0.00  0.00    +0.000 A 
ATOM     21  C   UNL     1      -5.315   4.397  -2.952  0.00  0.00    +0.000 A 
ATOM     22  C   UNL     1      -4.830   5.064  -4.070  0.00  0.00    +0.000 A 
ATOM     23  C   UNL     1      -3.466   5.290  -4.163  0.00  0.00    +0.000 A 
ATOM     24  N   UNL     1      -2.568   4.885  -3.223  0.00  0.00    +0.000 NA
ATOM     25  C   UNL     1      -3.093   4.255  -2.139  0.00  0.00    +0.000 A 
BRANCH  23  26
ATOM     26  C   UNL     1      -2.930   6.056  -5.334  0.00  0.00    +0.000 C 
ATOM     27  N   UNL     1      -1.574   6.236  -5.345  0.00  0.00    +0.000 N 
ATOM     28  O   UNL     1      -3.648   6.502  -6.218  0.00  0.00    +0.000 OA
ATOM     29  H   UNL     1      -1.019   5.897  -4.571  0.00  0.00    +0.000 HD
ATOM     30  H   UNL     1      -1.151   6.787  -6.080  0.00  0.00    +0.000 HD
ENDBRANCH  23  26
ENDBRANCH  18  20
ENDBRANCH  17  18
ENDBRANCH   1  17
TORSDOF 6
