REMARK  Name = 
REMARK  9 active torsions:
REMARK  status: ('A' for Active; 'I' for Inactive)
REMARK    1  A    between atoms: C_1  and  O_2
REMARK    2  A    between atoms: O_2  and  C_3
REMARK    3  A    between atoms: C_10  and  C_11
REMARK    4  A    between atoms: N_13  and  C_14
REMARK    5  A    between atoms: C_14  and  C_15
REMARK    6  A    between atoms: C_18  and  N_19
REMARK    7  A    between atoms: N_19  and  C_20
REMARK    8  A    between atoms: C_20  and  C_21
REMARK    9  A    between atoms: C_21  and  C_22
REMARK                            x       y       z     vdW  Elec       q    Type
REMARK                         _______ _______ _______ _____ _____    ______ ____
ROOT
ATOM      1  C   UNL     1       2.592   3.276  -0.264  0.00  0.00    +0.000 C 
ENDROOT
BRANCH   1   2
ATOM      2  C   UNL     1       1.375   3.038  -1.120  0.00  0.00    +0.000 A 
ATOM      3  C   UNL     1       1.150   1.785  -1.699  0.00  0.00    +0.000 A 
ATOM      4  C   UNL     1      -0.052   1.513  -2.362  0.00  0.00    +0.000 A 
ATOM      5  C   UNL     1      -1.060   2.478  -2.445  0.00  0.00    +0.000 A 
ATOM      6  C   UNL     1      -0.766   3.771  -2.003  0.00  0.00    +0.000 A 
ATOM      7  C   UNL     1       0.432   4.049  -1.334  0.00  0.00    +0.000 A 
BRANCH   5   8
ATOM      8  N   UNL     1      -2.329   2.235  -2.990  0.00  0.00    +0.000 N 
ATOM      9  H   UNL     1      -2.365   2.578  -3.950  0.00  0.00    +0.000 HD
BRANCH   8  10
ATOM     10  C   UNL     1      -2.902   0.888  -2.862  0.00  0.00    +0.000 C 
BRANCH  10  11
ATOM     11  C   UNL     1      -3.147   0.518  -1.390  0.00  0.00    +0.000 C 
BRANCH  11  12
ATOM     12  C   UNL     1      -3.681  -0.877  -1.219  0.00  0.00    +0.000 A 
ATOM     13  C   UNL     1      -5.052  -1.131  -1.141  0.00  0.00    +0.000 A 
ATOM     14  C   UNL     1      -5.501  -2.436  -0.967  0.00  0.00    +0.000 A 
ATOM     15  C   UNL     1      -4.560  -3.450  -0.885  0.00  0.00    +0.000 A 
ATOM     16  N   UNL     1      -3.229  -3.245  -0.966  0.00  0.00    +0.000 NA
ATOM     17  C   UNL     1      -2.820  -1.967  -1.126  0.00  0.00    +0.000 A 
ENDBRANCH  11  12
ENDBRANCH  10  11
ENDBRANCH   8  10
ENDBRANCH   5   8
ENDBRANCH   1   2
BRANCH   1  20
ATOM     18  C   UNL     1       4.912   4.046  -0.441  0.00  0.00    +0.000 C 
ATOM     19  O   UNL     1       5.101   3.849   0.757  0.00  0.00    +0.000 OA
ATOM     20  N   UNL     1       3.703   3.783  -1.025  0.00  0.00    +0.000 N 
ATOM     21  H   UNL     1       3.561   3.944  -2.011  0.00  0.00    +0.000 HD
BRANCH  18  29
ATOM     22  C   UNL     1       5.129   4.666  -3.815  0.00  0.00    +0.000 A 
ATOM     23  N   UNL     1       5.442   5.075  -5.058  0.00  0.00    +0.000 NA
ATOM     24  C   UNL     1       6.635   5.647  -5.246  0.00  0.00    +0.000 A 
ATOM     25  N   UNL     1       7.579   5.854  -4.331  0.00  0.00    +0.000 NA
ATOM     26  C   UNL     1       7.221   5.446  -3.103  0.00  0.00    +0.000 A 
ATOM     27  S   UNL     1       8.304   5.617  -1.808  0.00  0.00    +0.000 S 
ATOM     28  C   UNL     1       7.184   4.953  -0.717  0.00  0.00    +0.000 A 
ATOM     29  C   UNL     1       5.973   4.596  -1.302  0.00  0.00    +0.000 A 
ATOM     30  C   UNL     1       6.010   4.863  -2.736  0.00  0.00    +0.000 A 
BRANCH  22  32
ATOM     31  C   UNL     1       3.377   3.449  -4.780  0.00  0.00    +0.000 C 
ATOM     32  O   UNL     1       3.901   4.075  -3.612  0.00  0.00    +0.000 OA
ENDBRANCH  22  32
ENDBRANCH  18  29
ENDBRANCH   1  20
TORSDOF 8
