REMARK  Name = 
REMARK  8 active torsions:
REMARK  status: ('A' for Active; 'I' for Inactive)
REMARK    1  A    between atoms: N_1  and  C_2
REMARK    2  A    between atoms: C_2  and  N_3
REMARK    3  A    between atoms: C_2  and  C_25
REMARK    4  A    between atoms: N_3  and  C_4
REMARK    5  A    between atoms: C_4  and  C_5
REMARK    6  A    between atoms: C_8  and  C_9
REMARK    7  A    between atoms: C_9  and  N_10
REMARK    8  A    between atoms: C_11  and  C_13
REMARK                            x       y       z     vdW  Elec       q    Type
REMARK                         _______ _______ _______ _____ _____    ______ ____
ROOT
ATOM      1  C   UNL     1       2.972  -3.782  -0.201  0.00  0.00    +0.000 A 
ATOM      2  C   UNL     1       3.916  -3.834  -1.231  0.00  0.00    +0.000 A 
ATOM      3  C   UNL     1       4.283  -5.061  -1.778  0.00  0.00    +0.000 A 
ATOM      4  C   UNL     1       3.706  -6.223  -1.274  0.00  0.00    +0.000 A 
ATOM      5  N   UNL     1       2.770  -6.200  -0.292  0.00  0.00    +0.000 NA
ATOM      6  C   UNL     1       2.424  -4.994   0.208  0.00  0.00    +0.000 A 
ENDROOT
BRANCH   1   7
ATOM      7  C   UNL     1       2.530  -2.476   0.402  0.00  0.00    +0.000 C 
BRANCH   7   8
ATOM      8  N   UNL     1       2.728  -2.453   1.857  0.00  0.00    +0.000 NA
ATOM      9  H   UNL     1       2.100  -3.148   2.260  0.00  0.00    +0.000 HD
BRANCH   8  10
ATOM     10  C   UNL     1       2.321  -1.185   2.437  0.00  0.00    +0.000 C 
BRANCH  10  11
ATOM     11  C   UNL     1       0.812  -0.926   2.410  0.00  0.00    +0.000 A 
ATOM     12  C   UNL     1       0.339   0.386   2.466  0.00  0.00    +0.000 A 
ATOM     13  C   UNL     1      -1.035   0.608   2.505  0.00  0.00    +0.000 A 
ATOM     14  C   UNL     1      -1.899  -0.480   2.489  0.00  0.00    +0.000 A 
ATOM     15  C   UNL     1      -1.344  -1.748   2.439  0.00  0.00    +0.000 A 
ATOM     16 CL   UNL     1      -2.340  -3.144   2.412  0.00  0.00    +0.000 Cl
ATOM     17  N   UNL     1      -0.021  -2.005   2.402  0.00  0.00    +0.000 NA
ENDBRANCH  10  11
BRANCH  10  18
ATOM     18  N   UNL     1       2.790  -1.306   3.801  0.00  0.00    +0.000 NA
ATOM     19  H   UNL     1       3.760  -1.615   3.734  0.00  0.00    +0.000 HD
ATOM     20  H   UNL     1       2.298  -2.094   4.215  0.00  0.00    +0.000 HD
ENDBRANCH  10  18
ENDBRANCH   8  10
ENDBRANCH   7   8
ENDBRANCH   1   7
BRANCH   4  21
ATOM     21  C   UNL     1       4.095  -7.573  -1.821  0.00  0.00    +0.000 C 
BRANCH  21  22
ATOM     22  N   UNL     1       3.214  -7.999  -2.884  0.00  0.00    +0.000 N 
ATOM     23  C   UNL     1       3.541  -7.877  -4.204  0.00  0.00    +0.000 C 
ATOM     24  O   UNL     1       4.614  -7.405  -4.568  0.00  0.00    +0.000 OA
ATOM     25  H   UNL     1       2.251  -8.177  -2.609  0.00  0.00    +0.000 HD
BRANCH  23  26
ATOM     26  C   UNL     1       2.574  -8.413  -5.179  0.00  0.00    +0.000 A 
ATOM     27  C   UNL     1       3.006  -8.750  -6.453  0.00  0.00    +0.000 A 
ATOM     28  S   UNL     1       1.779  -9.396  -7.443  0.00  0.00    +0.000 S 
ATOM     29  C   UNL     1       0.616  -9.210  -6.216  0.00  0.00    +0.000 A 
ATOM     30  N   UNL     1      -0.682  -9.559  -6.426  0.00  0.00    +0.000 NA
ATOM     31  C   UNL     1      -1.464  -9.335  -5.423  0.00  0.00    +0.000 A 
ATOM     32  N   UNL     1      -1.063  -8.800  -4.227  0.00  0.00    +0.000 N 
ATOM     33  C   UNL     1       0.245  -8.482  -3.952  0.00  0.00    +0.000 A 
ATOM     34  O   UNL     1       0.582  -8.083  -2.843  0.00  0.00    +0.000 OA
ATOM     35  C   UNL     1       1.161  -8.683  -5.059  0.00  0.00    +0.000 A 
ATOM     36  H   UNL     1      -1.720  -8.667  -3.472  0.00  0.00    +0.000 HD
ENDBRANCH  23  26
ENDBRANCH  21  22
ENDBRANCH   4  21
TORSDOF 8
