REMARK  Name = 
REMARK  3 active torsions:
REMARK  status: ('A' for Active; 'I' for Inactive)
REMARK    1  A    between atoms: C_2  and  C_3
REMARK    2  A    between atoms: N_5  and  C_6
REMARK    3  A    between atoms: C_6  and  C_7
REMARK                            x       y       z     vdW  Elec       q    Type
REMARK                         _______ _______ _______ _____ _____    ______ ____
ROOT
ATOM      1  C   UNL     1       3.740   0.018  -0.056  0.00  0.00    +0.000 A 
ATOM      2  C   UNL     1       4.516   1.156  -0.076  0.00  0.00    +0.000 A 
ATOM      3  N   UNL     1       5.834   0.770  -0.041  0.00  0.00    +0.000 N 
ATOM      4  C   UNL     1       5.923  -0.610  -0.023  0.00  0.00    +0.000 A 
ATOM      5  C   UNL     1       7.036  -1.465  -0.004  0.00  0.00    +0.000 A 
ATOM      6  C   UNL     1       6.810  -2.845   0.015  0.00  0.00    +0.000 A 
ATOM      7  C   UNL     1       5.518  -3.359   0.018  0.00  0.00    +0.000 A 
ATOM      8  C   UNL     1       4.413  -2.502  -0.001  0.00  0.00    +0.000 A 
ATOM      9  C   UNL     1       4.613  -1.105  -0.026  0.00  0.00    +0.000 A 
ENDROOT
BRANCH   1  11
ATOM     10  N   UNL     1       1.150  -0.011  -0.087  0.00  0.00    +0.000 NA
ATOM     11  C   UNL     1       2.313  -0.001  -0.069  0.00  0.00    +0.000 C 
ENDBRANCH   1  11
BRANCH   3  12
ATOM     12  C   UNL     1       6.967   1.700   0.003  0.00  0.00    +0.000 C 
BRANCH  12  13
ATOM     13  C   UNL     1       7.491   1.998  -1.381  0.00  0.00    +0.000 A 
ATOM     14  C   UNL     1       6.688   2.658  -2.326  0.00  0.00    +0.000 A 
ATOM     15  C   UNL     1       7.121   2.819  -3.642  0.00  0.00    +0.000 A 
ATOM     16  C   UNL     1       8.374   2.348  -4.027  0.00  0.00    +0.000 A 
ATOM     17  C   UNL     1       9.204   1.749  -3.082  0.00  0.00    +0.000 A 
ATOM     18 CL   UNL     1      10.760   1.183  -3.552  0.00  0.00    +0.000 Cl
ATOM     19  C   UNL     1       8.776   1.582  -1.764  0.00  0.00    +0.000 A 
ENDBRANCH  12  13
ENDBRANCH   3  12
TORSDOF 3
