REMARK  Name = 
REMARK  7 active torsions:
REMARK  status: ('A' for Active; 'I' for Inactive)
REMARK    1  A    between atoms: C_1  and  O_2
REMARK    2  A    between atoms: O_2  and  C_3
REMARK    3  A    between atoms: C_5  and  C_6
REMARK    4  A    between atoms: C_6  and  N_7
REMARK    5  A    between atoms: C_12  and  C_13
REMARK    6  A    between atoms: C_21  and  C_22
REMARK    7  A    between atoms: C_22  and  N_23
REMARK                            x       y       z     vdW  Elec       q    Type
REMARK                         _______ _______ _______ _____ _____    ______ ____
ROOT
ATOM      1  N   UNL     1       2.392  -5.177   2.624  0.00  0.00    +0.000 N 
ATOM      2  C   UNL     1       2.379  -6.021   3.713  0.00  0.00    +0.000 A 
ATOM      3  C   UNL     1       1.102  -6.505   3.857  0.00  0.00    +0.000 A 
ATOM      4  C   UNL     1       0.513  -6.368   2.579  0.00  0.00    +0.000 A 
ATOM      5  C   UNL     1      -0.526  -7.045   1.921  0.00  0.00    +0.000 A 
ATOM      6  C   UNL     1      -0.833  -6.698   0.591  0.00  0.00    +0.000 A 
ATOM      7  C   UNL     1      -0.249  -5.575   0.014  0.00  0.00    +0.000 A 
ATOM      8  C   UNL     1       0.788  -4.887   0.660  0.00  0.00    +0.000 A 
ATOM      9  C   UNL     1       1.236  -5.389   1.889  0.00  0.00    +0.000 A 
ENDROOT
BRANCH   6  10
ATOM     10  C   UNL     1      -1.725  -7.629  -0.167  0.00  0.00    +0.000 C 
ATOM     11  N   UNL     1      -2.017  -7.344  -1.464  0.00  0.00    +0.000 N 
ATOM     12  O   UNL     1      -2.147  -8.674   0.318  0.00  0.00    +0.000 OA
ATOM     13  H   UNL     1      -1.678  -6.543  -1.985  0.00  0.00    +0.000 HD
ATOM     14  H   UNL     1      -2.565  -8.029  -1.963  0.00  0.00    +0.000 HD
ENDBRANCH   6  10
BRANCH   1  15
ATOM     15  C   UNL     1       3.619  -4.530   2.164  0.00  0.00    +0.000 C 
BRANCH  15  18
ATOM     16  C   UNL     1       3.343  -0.727   2.630  0.00  0.00    +0.000 A 
ATOM     17  C   UNL     1       3.337  -2.105   2.911  0.00  0.00    +0.000 A 
ATOM     18  C   UNL     1       3.513  -3.052   1.885  0.00  0.00    +0.000 A 
ATOM     19  C   UNL     1       3.690  -2.598   0.573  0.00  0.00    +0.000 A 
ATOM     20  C   UNL     1       3.685  -1.237   0.288  0.00  0.00    +0.000 A 
ATOM     21  C   UNL     1       3.525  -0.284   1.307  0.00  0.00    +0.000 A 
BRANCH  16  23
ATOM     22  C   UNL     1       3.249  -0.100   4.939  0.00  0.00    +0.000 C 
ATOM     23  O   UNL     1       3.171   0.260   3.567  0.00  0.00    +0.000 OA
ENDBRANCH  16  23
BRANCH  21  24
ATOM     24  C   UNL     1       3.537   1.182   0.936  0.00  0.00    +0.000 C 
BRANCH  24  25
ATOM     25  N   UNL     1       4.753   1.546   0.205  0.00  0.00    +0.000 NA
ATOM     26  H   UNL     1       5.550   1.380   0.819  0.00  0.00    +0.000 HD
ATOM     27  H   UNL     1       4.737   2.548   0.028  0.00  0.00    +0.000 HD
ENDBRANCH  24  25
ENDBRANCH  21  24
ENDBRANCH  15  18
ENDBRANCH   1  15
TORSDOF 6
