REMARK  Name = 
REMARK  7 active torsions:
REMARK  status: ('A' for Active; 'I' for Inactive)
REMARK    1  A    between atoms: C_2  and  C_20
REMARK    2  A    between atoms: N_3  and  C_4
REMARK    3  A    between atoms: C_4  and  C_5
REMARK    4  A    between atoms: C_8  and  O_9
REMARK    5  A    between atoms: O_9  and  C_10
REMARK    6  A    between atoms: C_10  and  C_11
REMARK    7  A    between atoms: C_11  and  N_12
REMARK                            x       y       z     vdW  Elec       q    Type
REMARK                         _______ _______ _______ _____ _____    ______ ____
ROOT
ATOM      1  C   UNL     1       2.271   1.090   2.122  0.00  0.00    +0.000 C 
ENDROOT
BRANCH   1   2
ATOM      2  C   UNL     1       3.233   1.623   3.148  0.00  0.00    +0.000 A 
ATOM      3  C   UNL     1       3.310   2.996   3.426  0.00  0.00    +0.000 A 
ATOM      4  C   UNL     1       4.169   3.477   4.423  0.00  0.00    +0.000 A 
ATOM      5  C   UNL     1       4.978   2.599   5.151  0.00  0.00    +0.000 A 
ATOM      6  C   UNL     1       4.922   1.236   4.837  0.00  0.00    +0.000 A 
ATOM      7  F   UNL     1       5.674   0.328   5.477  0.00  0.00    +0.000 F 
ATOM      8  C   UNL     1       4.071   0.752   3.848  0.00  0.00    +0.000 A 
BRANCH   5   9
ATOM      9  O   UNL     1       5.753   3.186   6.123  0.00  0.00    +0.000 OA
BRANCH   9  10
ATOM     10  C   UNL     1       6.593   2.283   6.855  0.00  0.00    +0.000 C 
BRANCH  10  11
ATOM     11  C   UNL     1       7.429   3.041   7.896  0.00  0.00    +0.000 C 
BRANCH  11  12
ATOM     12  N   UNL     1       8.280   2.169   8.735  0.00  0.00    +0.000 NA
ATOM     13  C   UNL     1       9.297   1.412   7.995  0.00  0.00    +0.000 C 
ATOM     14  C   UNL     1      10.461   2.373   7.829  0.00  0.00    +0.000 C 
ATOM     15  O   UNL     1      10.311   3.358   8.859  0.00  0.00    +0.000 OA
ATOM     16  C   UNL     1       9.134   2.999   9.587  0.00  0.00    +0.000 C 
ENDBRANCH  11  12
ENDBRANCH  10  11
ENDBRANCH   9  10
ENDBRANCH   5   9
ENDBRANCH   1   2
BRANCH   1  19
ATOM     17  O   UNL     1       2.038   3.130   0.221  0.00  0.00    +0.000 OA
ATOM     18  C   UNL     1       2.709   2.137  -0.052  0.00  0.00    +0.000 C 
ATOM     19  N   UNL     1       2.841   1.076   0.803  0.00  0.00    +0.000 N 
ATOM     20  H   UNL     1       3.546   0.370   0.619  0.00  0.00    +0.000 HD
BRANCH  18  21
ATOM     21  C   UNL     1       3.376   2.005  -1.349  0.00  0.00    +0.000 A 
ATOM     22  C   UNL     1       2.871   2.654  -2.467  0.00  0.00    +0.000 A 
ATOM     23  S   UNL     1       3.805   2.400  -3.872  0.00  0.00    +0.000 S 
ATOM     24  C   UNL     1       4.928   1.440  -3.023  0.00  0.00    +0.000 A 
ATOM     25  N   UNL     1       6.021   0.919  -3.639  0.00  0.00    +0.000 NA
ATOM     26  C   UNL     1       6.799   0.244  -2.858  0.00  0.00    +0.000 A 
ATOM     27  N   UNL     1       6.581   0.032  -1.525  0.00  0.00    +0.000 N 
ATOM     28  C   UNL     1       5.452   0.472  -0.876  0.00  0.00    +0.000 A 
ATOM     29  O   UNL     1       5.215   0.139   0.278  0.00  0.00    +0.000 OA
ATOM     30  C   UNL     1       4.573   1.286  -1.696  0.00  0.00    +0.000 A 
ATOM     31  H   UNL     1       7.205  -0.540  -0.975  0.00  0.00    +0.000 HD
ENDBRANCH  18  21
ENDBRANCH   1  19
TORSDOF 7
