REMARK  Name = 
REMARK  5 active torsions:
REMARK  status: ('A' for Active; 'I' for Inactive)
REMARK    1  A    between atoms: C_2  and  C_4
REMARK    2  A    between atoms: C_7  and  O_8
REMARK    3  A    between atoms: O_8  and  C_9
REMARK    4  A    between atoms: C_9  and  C_10
REMARK    5  A    between atoms: C_14  and  C_15
REMARK                            x       y       z     vdW  Elec       q    Type
REMARK                         _______ _______ _______ _____ _____    ______ ____
ROOT
ATOM      1  C   UNL     1       5.554  -5.093   2.380  0.00  0.00    +0.000 C 
ENDROOT
BRANCH   1   2
ATOM      2  C   UNL     1       6.606  -5.887   3.112  0.00  0.00    +0.000 A 
ATOM      3  C   UNL     1       6.500  -7.272   3.145  0.00  0.00    +0.000 A 
ATOM      4  N   UNL     1       7.368  -8.081   3.785  0.00  0.00    +0.000 NA
ATOM      5  C   UNL     1       8.394  -7.478   4.432  0.00  0.00    +0.000 A 
ATOM      6  C   UNL     1       8.626  -6.101   4.471  0.00  0.00    +0.000 A 
ATOM      7  C   UNL     1       7.693  -5.311   3.779  0.00  0.00    +0.000 A 
BRANCH   6   8
ATOM      8  C   UNL     1       9.770  -5.511   5.194  0.00  0.00    +0.000 A 
ATOM      9  C   UNL     1      10.999  -6.174   5.328  0.00  0.00    +0.000 A 
ATOM     10  C   UNL     1      12.059  -5.580   6.014  0.00  0.00    +0.000 A 
ATOM     11  C   UNL     1      11.872  -4.320   6.551  0.00  0.00    +0.000 A 
ATOM     12  N   UNL     1      10.716  -3.637   6.455  0.00  0.00    +0.000 NA
ATOM     13  C   UNL     1       9.703  -4.248   5.790  0.00  0.00    +0.000 A 
ENDBRANCH   6   8
ENDBRANCH   1   2
BRANCH   1  14
ATOM     14  O   UNL     1       5.803  -3.684   2.439  0.00  0.00    +0.000 OA
BRANCH  14  18
ATOM     15  C   UNL     1       2.889  -1.478   0.537  0.00  0.00    +0.000 A 
ATOM     16  C   UNL     1       3.962  -0.824   1.147  0.00  0.00    +0.000 A 
ATOM     17  C   UNL     1       4.944  -1.581   1.791  0.00  0.00    +0.000 A 
ATOM     18  C   UNL     1       4.818  -2.962   1.794  0.00  0.00    +0.000 A 
ATOM     19  N   UNL     1       3.793  -3.619   1.212  0.00  0.00    +0.000 NA
ATOM     20  C   UNL     1       2.846  -2.863   0.606  0.00  0.00    +0.000 A 
BRANCH  15  22
ATOM     21  N   UNL     1       2.053   0.442  -0.699  0.00  0.00    +0.000 N 
ATOM     22  C   UNL     1       1.786  -0.783  -0.156  0.00  0.00    +0.000 C 
ATOM     23  O   UNL     1       0.684  -1.300  -0.275  0.00  0.00    +0.000 OA
ATOM     24  H   UNL     1       1.315   0.841  -1.267  0.00  0.00    +0.000 HD
ATOM     25  H   UNL     1       2.992   0.781  -0.850  0.00  0.00    +0.000 HD
ENDBRANCH  15  22
ENDBRANCH  14  18
ENDBRANCH   1  14
TORSDOF 5
