REMARK  Name = 
REMARK  8 active torsions:
REMARK  status: ('A' for Active; 'I' for Inactive)
REMARK    1  A    between atoms: C_1  and  C_2
REMARK    2  A    between atoms: C_2  and  O_3
REMARK    3  A    between atoms: O_3  and  C_4
REMARK    4  A    between atoms: C_8  and  C_9
REMARK    5  A    between atoms: C_9  and  C_10
REMARK    6  A    between atoms: C_10  and  N_11
REMARK    7  A    between atoms: N_11  and  C_12
REMARK    8  A    between atoms: C_15  and  C_16
REMARK                            x       y       z     vdW  Elec       q    Type
REMARK                         _______ _______ _______ _____ _____    ______ ____
ROOT
ATOM      1  C   UNL     1       5.426   1.166  -5.977  0.00  0.00    +0.000 C 
ENDROOT
BRANCH   1   2
ATOM      2  N   UNL     1       5.767   2.036  -7.109  0.00  0.00    +0.000 N 
ATOM      3  H   UNL     1       6.751   2.299  -7.113  0.00  0.00    +0.000 HD
BRANCH   2   4
ATOM      4  C   UNL     1       5.341   1.610  -8.383  0.00  0.00    +0.000 A 
ATOM      5  C   UNL     1       4.179   0.860  -8.587  0.00  0.00    +0.000 A 
ATOM      6  C   UNL     1       3.763   0.517  -9.874  0.00  0.00    +0.000 A 
ATOM      7  C   UNL     1       4.512   0.969 -10.947  0.00  0.00    +0.000 A 
ATOM      8  N   UNL     1       5.626   1.739 -10.819  0.00  0.00    +0.000 NA
ATOM      9  C   UNL     1       5.987   2.050  -9.544  0.00  0.00    +0.000 A 
BRANCH   7  10
ATOM     10  C   UNL     1       4.088   0.605 -12.336  0.00  0.00    +0.000 C 
ATOM     11  N   UNL     1       4.880   1.091 -13.339  0.00  0.00    +0.000 N 
ATOM     12  O   UNL     1       3.099  -0.079 -12.570  0.00  0.00    +0.000 OA
ATOM     13  H   UNL     1       5.681   1.667 -13.108  0.00  0.00    +0.000 HD
ATOM     14  H   UNL     1       4.639   0.901 -14.301  0.00  0.00    +0.000 HD
ENDBRANCH   7  10
ENDBRANCH   2   4
ENDBRANCH   1   2
BRANCH   1  15
ATOM     15  C   UNL     1       5.930   1.727  -4.643  0.00  0.00    +0.000 C 
BRANCH  15  20
ATOM     16  C   UNL     1       3.974  -0.139  -1.932  0.00  0.00    +0.000 A 
ATOM     17  C   UNL     1       4.865  -1.163  -1.621  0.00  0.00    +0.000 A 
ATOM     18  C   UNL     1       6.117  -1.215  -2.237  0.00  0.00    +0.000 A 
ATOM     19  C   UNL     1       6.479  -0.256  -3.181  0.00  0.00    +0.000 A 
ATOM     20  C   UNL     1       5.586   0.766  -3.525  0.00  0.00    +0.000 A 
ATOM     21  C   UNL     1       4.335   0.818  -2.888  0.00  0.00    +0.000 A 
BRANCH  16  22
ATOM     22  O   UNL     1       2.721   0.016  -1.389  0.00  0.00    +0.000 OA
BRANCH  22  24
ATOM     23  C   UNL     1       1.785  -2.114  -0.609  0.00  0.00    +0.000 C 
ATOM     24  C   UNL     1       2.315  -0.739  -0.212  0.00  0.00    +0.000 C 
ATOM     25  C   UNL     1       3.192  -0.656   1.062  0.00  0.00    +0.000 C 
ATOM     26  O   UNL     1       2.277   0.266   1.697  0.00  0.00    +0.000 OA
ATOM     27  C   UNL     1       1.288   0.012   0.674  0.00  0.00    +0.000 C 
ENDBRANCH  22  24
ENDBRANCH  16  22
ENDBRANCH  15  20
ENDBRANCH   1  15
TORSDOF 7
