REMARK  Name = 
REMARK  5 active torsions:
REMARK  status: ('A' for Active; 'I' for Inactive)
REMARK    1  A    between atoms: N_1  and  C_2
REMARK    2  A    between atoms: C_2  and  C_3
REMARK    3  A    between atoms: C_3  and  C_4
REMARK    4  A    between atoms: C_7  and  C_8
REMARK    5  A    between atoms: C_8  and  N_9
REMARK                            x       y       z     vdW  Elec       q    Type
REMARK                         _______ _______ _______ _____ _____    ______ ____
ROOT
ATOM      1  C   UNL     1       4.497  -1.317   0.470  0.00  0.00    +0.000 A 
ATOM      2  C   UNL     1       5.147  -2.548   0.327  0.00  0.00    +0.000 A 
ATOM      3  C   UNL     1       6.541  -2.611   0.239  0.00  0.00    +0.000 A 
ATOM      4  C   UNL     1       7.315  -1.444   0.296  0.00  0.00    +0.000 A 
ATOM      5  C   UNL     1       6.662  -0.216   0.475  0.00  0.00    +0.000 A 
ATOM      6  C   UNL     1       5.268  -0.153   0.567  0.00  0.00    +0.000 A 
ENDROOT
BRANCH   1   7
ATOM      7  C   UNL     1       2.988  -1.245   0.491  0.00  0.00    +0.000 C 
BRANCH   7   8
ATOM      8  C   UNL     1       2.401  -1.378   1.899  0.00  0.00    +0.000 C 
BRANCH   8   9
ATOM      9  N   UNL     1       0.938  -1.336   1.859  0.00  0.00    +0.000 NA
ATOM     10  H   UNL     1       0.570  -1.464   2.800  0.00  0.00    +0.000 HD
ATOM     11  H   UNL     1       0.588  -2.119   1.308  0.00  0.00    +0.000 HD
ENDBRANCH   8   9
ENDBRANCH   7   8
ENDBRANCH   1   7
BRANCH   4  12
ATOM     12  C   UNL     1       8.816  -1.500   0.164  0.00  0.00    +0.000 C 
BRANCH  12  13
ATOM     13  N   UNL     1       9.266  -1.358  -1.220  0.00  0.00    +0.000 N 
ATOM     14  C   UNL     1       9.540  -0.154  -1.824  0.00  0.00    +0.000 A 
ATOM     15  C   UNL     1      10.078  -0.409  -3.066  0.00  0.00    +0.000 A 
ATOM     16  C   UNL     1      10.143  -1.817  -3.226  0.00  0.00    +0.000 A 
ATOM     17  C   UNL     1      10.610  -2.657  -4.245  0.00  0.00    +0.000 A 
ATOM     18  C   UNL     1      10.506  -4.021  -4.022  0.00  0.00    +0.000 A 
ATOM     19  N   UNL     1       9.985  -4.581  -2.911  0.00  0.00    +0.000 NA
ATOM     20  C   UNL     1       9.530  -3.776  -1.923  0.00  0.00    +0.000 A 
ATOM     21  C   UNL     1       9.615  -2.395  -2.068  0.00  0.00    +0.000 A 
ENDBRANCH  12  13
ENDBRANCH   4  12
TORSDOF 5
