REMARK  Name = 
REMARK  7 active torsions:
REMARK  status: ('A' for Active; 'I' for Inactive)
REMARK    1  A    between atoms: C_1  and  O_2
REMARK    2  A    between atoms: O_2  and  C_3
REMARK    3  A    between atoms: C_10  and  C_11
REMARK    4  A    between atoms: N_13  and  C_14
REMARK    5  A    between atoms: C_14  and  C_15
REMARK    6  A    between atoms: C_18  and  C_19
REMARK    7  A    between atoms: C_20  and  C_21
REMARK                            x       y       z     vdW  Elec       q    Type
REMARK                         _______ _______ _______ _____ _____    ______ ____
ROOT
ATOM      1  C   UNL     1       4.525  -0.623   2.062  0.00  0.00    +0.000 C 
ATOM      2  O   UNL     1       4.885  -1.104   3.135  0.00  0.00    +0.000 OA
ATOM      3  N   UNL     1       3.565   0.351   2.011  0.00  0.00    +0.000 N 
ATOM      4  H   UNL     1       3.320   0.778   1.128  0.00  0.00    +0.000 HD
ENDROOT
BRANCH   1  12
ATOM      5  C   UNL     1       3.887   0.133  -1.235  0.00  0.00    +0.000 A 
ATOM      6  N   UNL     1       3.859   0.254  -2.577  0.00  0.00    +0.000 NA
ATOM      7  C   UNL     1       4.725  -0.471  -3.291  0.00  0.00    +0.000 A 
ATOM      8  N   UNL     1       5.632  -1.323  -2.824  0.00  0.00    +0.000 NA
ATOM      9  C   UNL     1       5.631  -1.408  -1.483  0.00  0.00    +0.000 A 
ATOM     10  S   UNL     1       6.722  -2.454  -0.709  0.00  0.00    +0.000 S 
ATOM     11  C   UNL     1       6.134  -2.013   0.823  0.00  0.00    +0.000 A 
ATOM     12  C   UNL     1       5.112  -1.071   0.787  0.00  0.00    +0.000 A 
ATOM     13  C   UNL     1       4.809  -0.716  -0.598  0.00  0.00    +0.000 A 
BRANCH   5  15
ATOM     14  C   UNL     1       1.841   1.266  -1.217  0.00  0.00    +0.000 C 
ATOM     15  O   UNL     1       3.018   0.907  -0.497  0.00  0.00    +0.000 OA
ENDBRANCH   5  15
ENDBRANCH   1  12
BRANCH   3  16
ATOM     16  C   UNL     1       2.921   0.858   3.199  0.00  0.00    +0.000 C 
BRANCH  16  17
ATOM     17  C   UNL     1       1.844   1.856   2.854  0.00  0.00    +0.000 A 
ATOM     18  C   UNL     1       0.535   1.434   2.585  0.00  0.00    +0.000 A 
ATOM     19  C   UNL     1      -0.460   2.359   2.240  0.00  0.00    +0.000 A 
ATOM     20  C   UNL     1      -0.170   3.727   2.159  0.00  0.00    +0.000 A 
ATOM     21  C   UNL     1       1.145   4.142   2.407  0.00  0.00    +0.000 A 
ATOM     22  C   UNL     1       2.142   3.220   2.749  0.00  0.00    +0.000 A 
BRANCH  20  23
ATOM     23  C   UNL     1      -1.163   4.734   1.747  0.00  0.00    +0.000 C 
ATOM     24  C   UNL     1      -2.490   4.664   1.956  0.00  0.00    +0.000 C 
BRANCH  24  25
ATOM     25  C   UNL     1      -3.438   5.699   1.506  0.00  0.00    +0.000 A 
ATOM     26  C   UNL     1      -4.803   5.549   1.734  0.00  0.00    +0.000 A 
ATOM     27  C   UNL     1      -5.677   6.539   1.284  0.00  0.00    +0.000 A 
ATOM     28  C   UNL     1      -5.166   7.649   0.624  0.00  0.00    +0.000 A 
ATOM     29  C   UNL     1      -3.796   7.723   0.441  0.00  0.00    +0.000 A 
ATOM     30  N   UNL     1      -2.928   6.778   0.864  0.00  0.00    +0.000 NA
ENDBRANCH  24  25
ENDBRANCH  20  23
ENDBRANCH  16  17
ENDBRANCH   3  16
TORSDOF 6
