REMARK  Name = 
REMARK  4 active torsions:
REMARK  status: ('A' for Active; 'I' for Inactive)
REMARK    1  A    between atoms: C_2  and  C_4
REMARK    2  A    between atoms: N_8  and  C_9
REMARK    3  A    between atoms: C_9  and  C_10
REMARK    4  A    between atoms: C_14  and  C_15
REMARK                            x       y       z     vdW  Elec       q    Type
REMARK                         _______ _______ _______ _____ _____    ______ ____
ROOT
ATOM      1  C   UNL     1       4.708   5.825  -1.558  0.00  0.00    +0.000 C 
ENDROOT
BRANCH   1   6
ATOM      2  C   UNL     1       7.675   2.688   1.233  0.00  0.00    +0.000 A 
ATOM      3  C   UNL     1       7.321   4.017   1.430  0.00  0.00    +0.000 A 
ATOM      4  C   UNL     1       6.532   4.653   0.477  0.00  0.00    +0.000 A 
ATOM      5  C   UNL     1       6.109   3.960  -0.651  0.00  0.00    +0.000 A 
ATOM      6  N   UNL     1       5.308   4.513  -1.613  0.00  0.00    +0.000 N 
ATOM      7  N   UNL     1       6.480   2.682  -0.872  0.00  0.00    +0.000 NA
ATOM      8  C   UNL     1       7.258   2.073   0.063  0.00  0.00    +0.000 A 
ATOM      9  H   UNL     1       5.115   3.908  -2.400  0.00  0.00    +0.000 HD
BRANCH   2  11
ATOM     10  N   UNL     1       8.362   2.326   3.525  0.00  0.00    +0.000 N 
ATOM     11  C   UNL     1       8.474   1.937   2.219  0.00  0.00    +0.000 C 
ATOM     12  O   UNL     1       9.175   0.989   1.888  0.00  0.00    +0.000 OA
ATOM     13  H   UNL     1       8.837   1.749   4.210  0.00  0.00    +0.000 HD
ATOM     14  H   UNL     1       7.620   2.927   3.853  0.00  0.00    +0.000 HD
ENDBRANCH   2  11
ENDBRANCH   1   6
BRANCH   1  15
ATOM     15  C   UNL     1       5.584   6.921  -2.128  0.00  0.00    +0.000 A 
ATOM     16  C   UNL     1       5.103   8.236  -2.107  0.00  0.00    +0.000 A 
ATOM     17  C   UNL     1       5.881   9.282  -2.595  0.00  0.00    +0.000 A 
ATOM     18  C   UNL     1       7.156   9.027  -3.102  0.00  0.00    +0.000 A 
ATOM     19  C   UNL     1       7.691   7.727  -3.124  0.00  0.00    +0.000 A 
ATOM     20  C   UNL     1       6.871   6.688  -2.646  0.00  0.00    +0.000 A 
BRANCH  19  21
ATOM     21  C   UNL     1       9.069   7.466  -3.600  0.00  0.00    +0.000 A 
ATOM     22  C   UNL     1       9.418   6.260  -4.241  0.00  0.00    +0.000 A 
ATOM     23  C   UNL     1      10.723   6.014  -4.684  0.00  0.00    +0.000 A 
ATOM     24  C   UNL     1      11.710   6.976  -4.504  0.00  0.00    +0.000 A 
ATOM     25  C   UNL     1      11.386   8.166  -3.869  0.00  0.00    +0.000 A 
ATOM     26  F   UNL     1      12.334   9.096  -3.687  0.00  0.00    +0.000 F 
ATOM     27  C   UNL     1      10.095   8.412  -3.414  0.00  0.00    +0.000 A 
ENDBRANCH  19  21
ENDBRANCH   1  15
TORSDOF 4
