REMARK  Name = 
REMARK  7 active torsions:
REMARK  status: ('A' for Active; 'I' for Inactive)
REMARK    1  A    between atoms: N_1  and  C_2
REMARK    2  A    between atoms: C_2  and  C_3
REMARK    3  A    between atoms: C_3  and  C_4
REMARK    4  A    between atoms: C_7  and  C_8
REMARK    5  A    between atoms: C_8  and  N_9
REMARK    6  A    between atoms: C_14  and  C_15
REMARK    7  A    between atoms: C_15  and  O_17
REMARK                            x       y       z     vdW  Elec       q    Type
REMARK                         _______ _______ _______ _____ _____    ______ ____
ROOT
ATOM      1  N   UNL     1       9.177   2.854  -0.475  0.00  0.00    +0.000 N 
ATOM      2  N   UNL     1       9.302   3.110   0.846  0.00  0.00    +0.000 NA
ATOM      3  N   UNL     1       8.875   4.350   1.048  0.00  0.00    +0.000 NA
ATOM      4  C   UNL     1       8.573   4.895  -0.170  0.00  0.00    +0.000 A 
ATOM      5  C   UNL     1       7.975   6.118  -0.496  0.00  0.00    +0.000 A 
ATOM      6  C   UNL     1       7.770   6.403  -1.853  0.00  0.00    +0.000 A 
ATOM      7  C   UNL     1       8.235   5.543  -2.859  0.00  0.00    +0.000 A 
ATOM      8  C   UNL     1       8.814   4.309  -2.543  0.00  0.00    +0.000 A 
ATOM      9  C   UNL     1       8.913   4.006  -1.182  0.00  0.00    +0.000 A 
ENDROOT
BRANCH   6  10
ATOM     10  C   UNL     1       7.041   7.622  -2.267  0.00  0.00    +0.000 C 
ATOM     11  O   UNL     1       7.322   8.263  -3.261  0.00  0.00    +0.000 OA
BRANCH  10  12
ATOM     12  O   UNL     1       5.977   7.898  -1.482  0.00  0.00    +0.000 OA
ATOM     13  H   UNL     1       5.743   7.205  -0.833  0.00  0.00    +0.000 HD
ENDBRANCH  10  12
ENDBRANCH   6  10
BRANCH   1  14
ATOM     14  C   UNL     1       8.855   1.498  -0.907  0.00  0.00    +0.000 C 
BRANCH  14  18
ATOM     15  C   UNL     1       4.521   1.224  -0.951  0.00  0.00    +0.000 A 
ATOM     16  C   UNL     1       5.235   1.417  -2.141  0.00  0.00    +0.000 A 
ATOM     17  C   UNL     1       6.633   1.458  -2.138  0.00  0.00    +0.000 A 
ATOM     18  C   UNL     1       7.349   1.324  -0.941  0.00  0.00    +0.000 A 
ATOM     19  C   UNL     1       6.631   1.145   0.252  0.00  0.00    +0.000 A 
ATOM     20  C   UNL     1       5.235   1.094   0.246  0.00  0.00    +0.000 A 
BRANCH  15  21
ATOM     21  C   UNL     1       3.008   1.204  -0.942  0.00  0.00    +0.000 C 
BRANCH  21  22
ATOM     22  C   UNL     1       2.412   0.086  -1.807  0.00  0.00    +0.000 C 
BRANCH  22  23
ATOM     23  N   UNL     1       0.951   0.098  -1.754  0.00  0.00    +0.000 NA
ATOM     24  H   UNL     1       0.586  -0.640  -2.354  0.00  0.00    +0.000 HD
ATOM     25  H   UNL     1       0.599   0.976  -2.138  0.00  0.00    +0.000 HD
ENDBRANCH  22  23
ENDBRANCH  21  22
ENDBRANCH  15  21
ENDBRANCH  14  18
ENDBRANCH   1  14
TORSDOF 7
