REMARK  Name = 
REMARK  7 active torsions:
REMARK  status: ('A' for Active; 'I' for Inactive)
REMARK    1  A    between atoms: C_1  and  S_2
REMARK    2  A    between atoms: S_2  and  C_5
REMARK    3  A    between atoms: N_7  and  C_8
REMARK    4  A    between atoms: C_8  and  C_9
REMARK    5  A    between atoms: C_12  and  C_13
REMARK    6  A    between atoms: C_13  and  C_14
REMARK    7  A    between atoms: C_14  and  N_15
REMARK                            x       y       z     vdW  Elec       q    Type
REMARK                         _______ _______ _______ _____ _____    ______ ____
ROOT
ATOM      1  C   UNL     1       2.579  -1.797  -1.171  0.00  0.00    +0.000 A 
ATOM      2  C   UNL     1       2.926  -2.227  -2.435  0.00  0.00    +0.000 A 
ATOM      3  N   UNL     1       4.238  -2.631  -2.401  0.00  0.00    +0.000 N 
ATOM      4  C   UNL     1       4.728  -2.526  -1.110  0.00  0.00    +0.000 A 
ATOM      5  C   UNL     1       5.984  -2.851  -0.569  0.00  0.00    +0.000 A 
ATOM      6  C   UNL     1       6.212  -2.595   0.786  0.00  0.00    +0.000 A 
ATOM      7  C   UNL     1       5.221  -2.041   1.583  0.00  0.00    +0.000 A 
ATOM      8  C   UNL     1       3.966  -1.737   1.046  0.00  0.00    +0.000 A 
ATOM      9  C   UNL     1       3.707  -1.978  -0.321  0.00  0.00    +0.000 A 
ENDROOT
BRANCH   1  11
ATOM     10  C   UNL     1       1.380   0.524  -0.232  0.00  0.00    +0.000 C 
ATOM     11  S   UNL     1       1.047  -1.154  -0.702  0.00  0.00    +0.000 S 
ATOM     12  O   UNL     1       0.666  -1.913   0.470  0.00  0.00    +0.000 OA
ATOM     13  O   UNL     1       0.250  -1.150  -1.915  0.00  0.00    +0.000 OA
ENDBRANCH   1  11
BRANCH   3  14
ATOM     14  C   UNL     1       4.998  -3.055  -3.580  0.00  0.00    +0.000 C 
BRANCH  14  15
ATOM     15  C   UNL     1       5.663  -1.860  -4.222  0.00  0.00    +0.000 A 
ATOM     16  C   UNL     1       6.939  -1.451  -3.814  0.00  0.00    +0.000 A 
ATOM     17  C   UNL     1       7.454  -0.220  -4.223  0.00  0.00    +0.000 A 
ATOM     18  C   UNL     1       6.703   0.622  -5.050  0.00  0.00    +0.000 A 
ATOM     19  C   UNL     1       5.479   0.165  -5.553  0.00  0.00    +0.000 A 
ATOM     20  C   UNL     1       4.961  -1.065  -5.139  0.00  0.00    +0.000 A 
BRANCH  18  21
ATOM     21  C   UNL     1       7.165   2.034  -5.315  0.00  0.00    +0.000 C 
BRANCH  21  22
ATOM     22  C   UNL     1       8.112   2.162  -6.507  0.00  0.00    +0.000 C 
BRANCH  22  23
ATOM     23  N   UNL     1       8.541   3.554  -6.661  0.00  0.00    +0.000 NA
ATOM     24  H   UNL     1       7.731   4.145  -6.846  0.00  0.00    +0.000 HD
ATOM     25  H   UNL     1       9.145   3.633  -7.478  0.00  0.00    +0.000 HD
ENDBRANCH  22  23
ENDBRANCH  21  22
ENDBRANCH  18  21
ENDBRANCH  14  15
ENDBRANCH   3  14
TORSDOF 6
