REMARK  Name = 
REMARK  8 active torsions:
REMARK  status: ('A' for Active; 'I' for Inactive)
REMARK    1  A    between atoms: C_1  and  O_2
REMARK    2  A    between atoms: O_2  and  C_3
REMARK    3  A    between atoms: C_5  and  C_6
REMARK    4  A    between atoms: C_6  and  N_7
REMARK    5  A    between atoms: C_8  and  C_10
REMARK    6  A    between atoms: C_22  and  C_23
REMARK    7  A    between atoms: C_23  and  N_24
REMARK    8  A    between atoms: N_24  and  C_25
REMARK                            x       y       z     vdW  Elec       q    Type
REMARK                         _______ _______ _______ _____ _____    ______ ____
ROOT
ATOM      1  C   UNL     1       3.044  -0.785   0.887  0.00  0.00    +0.000 A 
ATOM      2  C   UNL     1       2.730  -2.053   1.389  0.00  0.00    +0.000 A 
ATOM      3  C   UNL     1       3.544  -2.658   2.352  0.00  0.00    +0.000 A 
ATOM      4  C   UNL     1       4.636  -1.934   2.807  0.00  0.00    +0.000 A 
ATOM      5  N   UNL     1       4.970  -0.705   2.354  0.00  0.00    +0.000 NA
ATOM      6  C   UNL     1       4.184  -0.142   1.389  0.00  0.00    +0.000 A 
ENDROOT
BRANCH   1   8
ATOM      7  C   UNL     1       0.984  -0.588  -0.278  0.00  0.00    +0.000 C 
ATOM      8  O   UNL     1       2.325  -0.146  -0.087  0.00  0.00    +0.000 OA
ENDBRANCH   1   8
BRANCH   3   9
ATOM      9  C   UNL     1       3.235  -4.026   2.887  0.00  0.00    +0.000 C 
BRANCH   9  10
ATOM     10  N   UNL     1       2.356  -3.957   4.029  0.00  0.00    +0.000 N 
ATOM     11  C   UNL     1       2.045  -5.079   4.757  0.00  0.00    +0.000 C 
ATOM     12  O   UNL     1       2.520  -6.178   4.491  0.00  0.00    +0.000 OA
ATOM     13  H   UNL     1       1.777  -3.129   4.120  0.00  0.00    +0.000 HD
BRANCH  11  14
ATOM     14  C   UNL     1       1.162  -4.880   5.914  0.00  0.00    +0.000 A 
ATOM     15  C   UNL     1       1.171  -5.803   6.951  0.00  0.00    +0.000 A 
ATOM     16  S   UNL     1       0.138  -5.391   8.243  0.00  0.00    +0.000 S 
ATOM     17  C   UNL     1      -0.400  -3.992   7.439  0.00  0.00    +0.000 A 
ATOM     18  N   UNL     1      -1.330  -3.176   8.003  0.00  0.00    +0.000 NA
ATOM     19  C   UNL     1      -1.665  -2.164   7.275  0.00  0.00    +0.000 A 
ATOM     20  N   UNL     1      -1.151  -1.892   6.033  0.00  0.00    +0.000 N 
ATOM     21  C   UNL     1      -0.197  -2.677   5.431  0.00  0.00    +0.000 A 
ATOM     22  O   UNL     1       0.259  -2.393   4.327  0.00  0.00    +0.000 OA
ATOM     23  C   UNL     1       0.213  -3.832   6.208  0.00  0.00    +0.000 A 
ATOM     24  H   UNL     1      -1.453  -1.078   5.518  0.00  0.00    +0.000 HD
ENDBRANCH  11  14
ENDBRANCH   9  10
ENDBRANCH   3   9
BRANCH   6  25
ATOM     25  C   UNL     1       4.607   1.233   0.881  0.00  0.00    +0.000 C 
BRANCH  25  26
ATOM     26  N   UNL     1       5.529   1.121  -0.251  0.00  0.00    +0.000 N 
ATOM     27  H   UNL     1       5.174   0.505  -0.975  0.00  0.00    +0.000 HD
BRANCH  26  28
ATOM     28  C   UNL     1       5.934   2.341  -0.824  0.00  0.00    +0.000 A 
ATOM     29  N   UNL     1       5.567   3.504  -0.234  0.00  0.00    +0.000 NA
ATOM     30  C   UNL     1       5.981   4.666  -0.793  0.00  0.00    +0.000 A 
ATOM     31  C   UNL     1       6.763   4.743  -1.931  0.00  0.00    +0.000 A 
ATOM     32  C   UNL     1       7.160   3.554  -2.527  0.00  0.00    +0.000 A 
ATOM     33  C   UNL     1       6.751   2.341  -1.970  0.00  0.00    +0.000 A 
ATOM     34 CL   UNL     1       7.250   0.876  -2.739  0.00  0.00    +0.000 Cl
ENDBRANCH  26  28
ENDBRANCH  25  26
ENDBRANCH   6  25
TORSDOF 7
