REMARK  Name = 
REMARK  6 active torsions:
REMARK  status: ('A' for Active; 'I' for Inactive)
REMARK    1  A    between atoms: C_1  and  C_2
REMARK    2  A    between atoms: C_2  and  N_3
REMARK    3  A    between atoms: C_2  and  C_15
REMARK    4  A    between atoms: C_7  and  C_8
REMARK    5  A    between atoms: N_10  and  C_11
REMARK    6  A    between atoms: N_10  and  C_12
REMARK                            x       y       z     vdW  Elec       q    Type
REMARK                         _______ _______ _______ _____ _____    ______ ____
ROOT
ATOM      1  N   UNL     1       2.740  -1.446  -0.546  0.00  0.00    +0.000 N 
ATOM      2  C   UNL     1       2.477  -2.417   0.420  0.00  0.00    +0.000 A 
ATOM      3  N   UNL     1       2.334  -3.682  -0.003  0.00  0.00    +0.000 NA
ATOM      4  C   UNL     1       2.123  -4.646   0.935  0.00  0.00    +0.000 A 
ATOM      5  C   UNL     1       2.054  -4.402   2.282  0.00  0.00    +0.000 A 
ATOM      6  C   UNL     1       2.276  -3.083   2.614  0.00  0.00    +0.000 A 
ATOM      7  N   UNL     1       2.465  -2.086   1.717  0.00  0.00    +0.000 NA
ATOM      8  H   UNL     1       3.731  -1.540  -0.743  0.00  0.00    +0.000 HD
ENDROOT
BRANCH   5   9
ATOM      9  C   UNL     1       1.931  -5.390   3.373  0.00  0.00    +0.000 C 
ATOM     10  O   UNL     1       2.578  -5.117   4.391  0.00  0.00    +0.000 OA
ATOM     11  N   UNL     1       1.138  -6.536   3.305  0.00  0.00    +0.000 N 
ATOM     12  C   UNL     1       0.216  -6.933   2.250  0.00  0.00    +0.000 C 
ATOM     13  C   UNL     1       1.083  -7.382   4.497  0.00  0.00    +0.000 C 
ENDBRANCH   5   9
BRANCH   1  15
ATOM     14  C   UNL     1       0.935   0.200  -0.514  0.00  0.00    +0.000 C 
ATOM     15  C   UNL     1       2.402  -0.074  -0.163  0.00  0.00    +0.000 C 
BRANCH  15  16
ATOM     16  C   UNL     1       3.320   0.919  -0.872  0.00  0.00    +0.000 A 
ATOM     17  C   UNL     1       4.133   1.775  -0.108  0.00  0.00    +0.000 A 
ATOM     18  C   UNL     1       4.937   2.738  -0.722  0.00  0.00    +0.000 A 
ATOM     19  C   UNL     1       4.945   2.856  -2.111  0.00  0.00    +0.000 A 
ATOM     20  C   UNL     1       4.160   2.003  -2.884  0.00  0.00    +0.000 A 
ATOM     21  C   UNL     1       3.356   1.037  -2.270  0.00  0.00    +0.000 A 
ENDBRANCH  15  16
ENDBRANCH   1  15
TORSDOF 3
