REMARK  Name = 
REMARK  5 active torsions:
REMARK  status: ('A' for Active; 'I' for Inactive)
REMARK    1  A    between atoms: C_2  and  C_4
REMARK    2  A    between atoms: C_7  and  O_8
REMARK    3  A    between atoms: O_8  and  C_9
REMARK    4  A    between atoms: C_9  and  C_10
REMARK    5  A    between atoms: C_16  and  C_17
REMARK                            x       y       z     vdW  Elec       q    Type
REMARK                         _______ _______ _______ _____ _____    ______ ____
ROOT
ATOM      1  C   UNL     1       6.056  -2.696   6.520  0.00  0.00    +0.000 A 
ATOM      2  C   UNL     1       6.523  -1.561   7.226  0.00  0.00    +0.000 A 
ATOM      3  C   UNL     1       7.275  -1.680   8.386  0.00  0.00    +0.000 A 
ATOM      4  C   UNL     1       7.522  -2.940   8.903  0.00  0.00    +0.000 A 
ATOM      5  C   UNL     1       7.062  -4.084   8.235  0.00  0.00    +0.000 A 
ATOM      6 BR   UNL     1       7.319  -5.714   9.211  0.00  0.00    +0.000 Br
ATOM      7  C   UNL     1       6.384  -4.014   6.982  0.00  0.00    +0.000 A 
ENDROOT
BRANCH   7   8
ATOM      8  C   UNL     1       6.106  -5.253   6.171  0.00  0.00    +0.000 A 
ATOM      9  C   UNL     1       7.108  -6.236   5.989  0.00  0.00    +0.000 A 
ATOM     10  C   UNL     1       6.892  -7.412   5.254  0.00  0.00    +0.000 A 
ATOM     11  C   UNL     1       5.688  -7.599   4.592  0.00  0.00    +0.000 A 
ATOM     12  C   UNL     1       4.705  -6.633   4.716  0.00  0.00    +0.000 A 
ATOM     13  F   UNL     1       3.554  -6.776   4.044  0.00  0.00    +0.000 F 
ATOM     14  C   UNL     1       4.886  -5.505   5.522  0.00  0.00    +0.000 A 
ENDBRANCH   7   8
BRANCH   1  15
ATOM     15  C   UNL     1       5.170  -2.454   5.304  0.00  0.00    +0.000 C 
BRANCH  15  16
ATOM     16  O   UNL     1       4.990  -1.065   4.992  0.00  0.00    +0.000 OA
BRANCH  16  20
ATOM     17  C   UNL     1       2.309   0.105   2.013  0.00  0.00    +0.000 A 
ATOM     18  C   UNL     1       2.550  -1.262   2.192  0.00  0.00    +0.000 A 
ATOM     19  C   UNL     1       3.429  -1.696   3.193  0.00  0.00    +0.000 A 
ATOM     20  C   UNL     1       4.076  -0.770   4.015  0.00  0.00    +0.000 A 
ATOM     21  C   UNL     1       3.821   0.592   3.843  0.00  0.00    +0.000 A 
ATOM     22  C   UNL     1       2.948   1.032   2.843  0.00  0.00    +0.000 A 
BRANCH  17  24
ATOM     23  N   UNL     1       0.430  -0.214   0.492  0.00  0.00    +0.000 N 
ATOM     24  C   UNL     1       1.420   0.617   0.937  0.00  0.00    +0.000 C 
ATOM     25  O   UNL     1       1.545   1.747   0.484  0.00  0.00    +0.000 OA
ATOM     26  H   UNL     1      -0.225   0.185  -0.169  0.00  0.00    +0.000 HD
ATOM     27  H   UNL     1       0.147  -1.042   0.995  0.00  0.00    +0.000 HD
ENDBRANCH  17  24
ENDBRANCH  16  20
ENDBRANCH  15  16
ENDBRANCH   1  15
TORSDOF 5
