REMARK  Name = 
REMARK  9 active torsions:
REMARK  status: ('A' for Active; 'I' for Inactive)
REMARK    1  A    between atoms: C_1  and  C_2
REMARK    2  A    between atoms: C_2  and  O_3
REMARK    3  A    between atoms: O_3  and  C_4
REMARK    4  A    between atoms: C_4  and  C_5
REMARK    5  A    between atoms: C_4  and  C_19
REMARK    6  A    between atoms: C_5  and  N_6
REMARK    7  A    between atoms: C_7  and  C_9
REMARK    8  A    between atoms: C_22  and  O_23
REMARK    9  A    between atoms: O_23  and  C_24
REMARK                            x       y       z     vdW  Elec       q    Type
REMARK                         _______ _______ _______ _____ _____    ______ ____
ROOT
ATOM      1  C   UNL     1       4.492   0.723   1.058  0.00  0.00    +0.000 C 
ENDROOT
BRANCH   1   2
ATOM      2  C   UNL     1       4.954   1.508   2.289  0.00  0.00    +0.000 A 
ATOM      3  C   UNL     1       4.130   1.570   3.426  0.00  0.00    +0.000 A 
ATOM      4  C   UNL     1       4.516   2.282   4.564  0.00  0.00    +0.000 A 
ATOM      5  C   UNL     1       5.765   2.900   4.616  0.00  0.00    +0.000 A 
ATOM      6  C   UNL     1       6.593   2.863   3.499  0.00  0.00    +0.000 A 
ATOM      7  C   UNL     1       6.199   2.159   2.353  0.00  0.00    +0.000 A 
BRANCH   5   8
ATOM      8  O   UNL     1       6.211   3.613   5.706  0.00  0.00    +0.000 OA
BRANCH   8   9
ATOM      9  C   UNL     1       5.975   3.075   6.967  0.00  0.00    +0.000 A 
ATOM     10  C   UNL     1       5.968   3.964   8.031  0.00  0.00    +0.000 A 
ATOM     11  C   UNL     1       5.694   3.464   9.301  0.00  0.00    +0.000 A 
ATOM     12  C   UNL     1       5.442   2.104   9.462  0.00  0.00    +0.000 A 
ATOM     13  C   UNL     1       5.502   1.289   8.345  0.00  0.00    +0.000 A 
ATOM     14  N   UNL     1       5.777   1.744   7.107  0.00  0.00    +0.000 NA
ENDBRANCH   8   9
ENDBRANCH   5   8
ENDBRANCH   1   2
BRANCH   1  15
ATOM     15  O   UNL     1       3.049   0.791   1.020  0.00  0.00    +0.000 OA
BRANCH  15  17
ATOM     16  C   UNL     1       0.939  -0.107   0.369  0.00  0.00    +0.000 C 
ATOM     17  C   UNL     1       2.435  -0.122   0.118  0.00  0.00    +0.000 C 
ENDBRANCH  15  17
ENDBRANCH   1  15
BRANCH   1  18
ATOM     18  C   UNL     1       5.094   1.204  -0.288  0.00  0.00    +0.000 C 
BRANCH  18  19
ATOM     19  N   UNL     1       4.697   2.561  -0.624  0.00  0.00    +0.000 N 
ATOM     20  C   UNL     1       5.084   3.177  -1.787  0.00  0.00    +0.000 C 
ATOM     21  O   UNL     1       5.724   2.594  -2.657  0.00  0.00    +0.000 OA
ATOM     22  H   UNL     1       4.317   3.116   0.134  0.00  0.00    +0.000 HD
BRANCH  20  23
ATOM     23  C   UNL     1       4.596   4.548  -1.966  0.00  0.00    +0.000 A 
ATOM     24  C   UNL     1       4.367   5.058  -3.235  0.00  0.00    +0.000 A 
ATOM     25  S   UNL     1       3.651   6.611  -3.218  0.00  0.00    +0.000 S 
ATOM     26  C   UNL     1       3.686   6.674  -1.517  0.00  0.00    +0.000 A 
ATOM     27  N   UNL     1       3.181   7.735  -0.829  0.00  0.00    +0.000 NA
ATOM     28  C   UNL     1       3.302   7.642   0.455  0.00  0.00    +0.000 A 
ATOM     29  N   UNL     1       3.908   6.603   1.112  0.00  0.00    +0.000 N 
ATOM     30  C   UNL     1       4.472   5.542   0.453  0.00  0.00    +0.000 A 
ATOM     31  O   UNL     1       5.096   4.673   1.050  0.00  0.00    +0.000 OA
ATOM     32  C   UNL     1       4.281   5.549  -0.979  0.00  0.00    +0.000 A 
ATOM     33  H   UNL     1       4.013   6.606   2.117  0.00  0.00    +0.000 HD
ENDBRANCH  20  23
ENDBRANCH  18  19
ENDBRANCH   1  18
TORSDOF 8
