REMARK  Name = 
REMARK  5 active torsions:
REMARK  status: ('A' for Active; 'I' for Inactive)
REMARK    1  A    between atoms: N_1  and  C_2
REMARK    2  A    between atoms: C_2  and  C_3
REMARK    3  A    between atoms: C_6  and  O_7
REMARK    4  A    between atoms: O_7  and  C_8
REMARK    5  A    between atoms: C_8  and  C_9
REMARK                            x       y       z     vdW  Elec       q    Type
REMARK                         _______ _______ _______ _____ _____    ______ ____
ROOT
ATOM      1  C   UNL     1       2.771  -1.166  -0.777  0.00  0.00    +0.000 A 
ATOM      2  C   UNL     1       3.786  -1.088  -1.742  0.00  0.00    +0.000 A 
ATOM      3  C   UNL     1       4.223  -2.237  -2.407  0.00  0.00    +0.000 A 
ATOM      4  C   UNL     1       3.662  -3.478  -2.109  0.00  0.00    +0.000 A 
ATOM      5  C   UNL     1       2.617  -3.557  -1.188  0.00  0.00    +0.000 A 
ATOM      6  C   UNL     1       2.183  -2.410  -0.519  0.00  0.00    +0.000 A 
ENDROOT
BRANCH   1   7
ATOM      7  C   UNL     1       2.333   0.056  -0.012  0.00  0.00    +0.000 C 
BRANCH   7   8
ATOM      8  N   UNL     1       1.791   1.080  -0.894  0.00  0.00    +0.000 NA
ATOM      9  H   UNL     1       1.422   1.842  -0.330  0.00  0.00    +0.000 HD
ATOM     10  H   UNL     1       1.000   0.688  -1.404  0.00  0.00    +0.000 HD
ENDBRANCH   7   8
ENDBRANCH   1   7
BRANCH   4  11
ATOM     11  O   UNL     1       4.207  -4.548  -2.770  0.00  0.00    +0.000 OA
BRANCH  11  12
ATOM     12  C   UNL     1       4.007  -5.812  -2.136  0.00  0.00    +0.000 C 
BRANCH  12  13
ATOM     13  C   UNL     1       5.051  -6.786  -2.623  0.00  0.00    +0.000 A 
ATOM     14  C   UNL     1       6.417  -6.485  -2.483  0.00  0.00    +0.000 A 
ATOM     15  C   UNL     1       7.393  -7.405  -2.875  0.00  0.00    +0.000 A 
ATOM     16  C   UNL     1       7.011  -8.635  -3.407  0.00  0.00    +0.000 A 
ATOM     17 CL   UNL     1       8.219  -9.766  -3.877  0.00  0.00    +0.000 Cl
ATOM     18  C   UNL     1       5.658  -8.938  -3.546  0.00  0.00    +0.000 A 
ATOM     19  F   UNL     1       5.269 -10.120  -4.047  0.00  0.00    +0.000 F 
ATOM     20  C   UNL     1       4.680  -8.025  -3.158  0.00  0.00    +0.000 A 
ENDBRANCH  12  13
ENDBRANCH  11  12
ENDBRANCH   4  11
TORSDOF 5
