REMARK  Name = 
REMARK  5 active torsions:
REMARK  status: ('A' for Active; 'I' for Inactive)
REMARK    1  A    between atoms: C_1  and  C_2
REMARK    2  A    between atoms: C_4  and  N_5
REMARK    3  A    between atoms: N_5  and  C_6
REMARK    4  A    between atoms: C_6  and  C_7
REMARK    5  A    between atoms: C_15  and  C_16
REMARK                            x       y       z     vdW  Elec       q    Type
REMARK                         _______ _______ _______ _____ _____    ______ ____
ROOT
ATOM      1  N   UNL     1      -3.694  -0.103   0.255  0.00  0.00    +0.000 N 
ATOM      2  H   UNL     1      -3.974  -0.759  -0.484  0.00  0.00    +0.000 HD
ENDROOT
BRANCH   1   6
ATOM      3  C   UNL     1       0.685  -1.818   1.603  0.00  0.00    +0.000 C 
ATOM      4  C   UNL     1      -0.140  -0.766   0.918  0.00  0.00    +0.000 A 
ATOM      5  C   UNL     1      -1.530  -0.917   0.826  0.00  0.00    +0.000 A 
ATOM      6  C   UNL     1      -2.315   0.085   0.245  0.00  0.00    +0.000 A 
ATOM      7  N   UNL     1      -1.766   1.187  -0.294  0.00  0.00    +0.000 NA
ATOM      8  C   UNL     1      -0.418   1.311  -0.225  0.00  0.00    +0.000 A 
ATOM      9  C   UNL     1       0.431   0.394   0.376  0.00  0.00    +0.000 A 
BRANCH   9  10
ATOM     10  C   UNL     1       1.833   0.660   0.439  0.00  0.00    +0.000 C 
ATOM     11  N   UNL     1       2.974   0.879   0.496  0.00  0.00    +0.000 NA
ENDBRANCH   9  10
ENDBRANCH   1   6
BRANCH   1  12
ATOM     12  C   UNL     1      -4.531   1.083   0.241  0.00  0.00    +0.000 C 
BRANCH  12  13
ATOM     13  C   UNL     1      -6.035   0.714   0.265  0.00  0.00    +0.000 C 
ATOM     14  C   UNL     1      -6.482  -0.106   1.494  0.00  0.00    +0.000 C 
ATOM     15  C   UNL     1      -6.177  -1.602   1.385  0.00  0.00    +0.000 C 
ATOM     16  C   UNL     1      -6.534  -2.171   0.012  0.00  0.00    +0.000 C 
ATOM     17  N   UNL     1      -5.968  -1.378  -1.084  0.00  0.00    +0.000 NA
ATOM     18  C   UNL     1      -6.471  -0.000  -1.023  0.00  0.00    +0.000 C 
ATOM     19  H   UNL     1      -6.252  -1.795  -1.974  0.00  0.00    +0.000 HD
ENDBRANCH  12  13
ENDBRANCH   1  12
TORSDOF 4
