REMARK  Name = 
REMARK  10 active torsions:
REMARK  status: ('A' for Active; 'I' for Inactive)
REMARK    1  A    between atoms: C_1  and  O_2
REMARK    2  A    between atoms: O_2  and  C_3
REMARK    3  A    between atoms: C_10  and  C_11
REMARK    4  A    between atoms: N_13  and  C_14
REMARK    5  A    between atoms: C_14  and  C_15
REMARK    6  A    between atoms: C_18  and  C_19
REMARK    7  A    between atoms: C_19  and  N_20
REMARK    8  A    between atoms: N_20  and  C_21
REMARK    9  A    between atoms: N_20  and  C_22
REMARK   10  A    between atoms: C_22  and  C_23
REMARK                            x       y       z     vdW  Elec       q    Type
REMARK                         _______ _______ _______ _____ _____    ______ ____
ROOT
ATOM      1  C   UNL     1       2.965   0.940   3.143  0.00  0.00    +0.000 C 
ENDROOT
BRANCH   1   2
ATOM      2  C   UNL     1       1.893   1.920   2.743  0.00  0.00    +0.000 A 
ATOM      3  C   UNL     1       0.625   1.468   2.359  0.00  0.00    +0.000 A 
ATOM      4  C   UNL     1      -0.358   2.372   1.948  0.00  0.00    +0.000 A 
ATOM      5  C   UNL     1      -0.096   3.749   1.930  0.00  0.00    +0.000 A 
ATOM      6  C   UNL     1       1.180   4.200   2.294  0.00  0.00    +0.000 A 
ATOM      7  C   UNL     1       2.168   3.294   2.689  0.00  0.00    +0.000 A 
BRANCH   5   8
ATOM      8  C   UNL     1      -1.172   4.737   1.522  0.00  0.00    +0.000 C 
BRANCH   8   9
ATOM      9  N   UNL     1      -2.395   4.660   2.346  0.00  0.00    +0.000 NA
ATOM     10  C   UNL     1      -2.112   4.983   3.752  0.00  0.00    +0.000 C 
BRANCH   9  11
ATOM     11  C   UNL     1      -3.422   5.593   1.846  0.00  0.00    +0.000 C 
BRANCH  11  12
ATOM     12  C   UNL     1      -3.929   5.287   0.451  0.00  0.00    +0.000 A 
ATOM     13  C   UNL     1      -4.526   4.052   0.162  0.00  0.00    +0.000 A 
ATOM     14  C   UNL     1      -5.079   3.809  -1.096  0.00  0.00    +0.000 A 
ATOM     15  C   UNL     1      -5.031   4.794  -2.082  0.00  0.00    +0.000 A 
ATOM     16  C   UNL     1      -4.405   6.011  -1.820  0.00  0.00    +0.000 A 
ATOM     17  C   UNL     1      -3.857   6.258  -0.560  0.00  0.00    +0.000 A 
ENDBRANCH  11  12
ENDBRANCH   9  11
ENDBRANCH   8   9
ENDBRANCH   5   8
ENDBRANCH   1   2
BRANCH   1  20
ATOM     18  C   UNL     1       4.718  -0.412   2.072  0.00  0.00    +0.000 C 
ATOM     19  O   UNL     1       5.020  -0.927   3.144  0.00  0.00    +0.000 OA
ATOM     20  N   UNL     1       3.722   0.520   1.989  0.00  0.00    +0.000 N 
ATOM     21  H   UNL     1       3.501   0.955   1.104  0.00  0.00    +0.000 HD
BRANCH  18  29
ATOM     22  C   UNL     1       4.306   0.489  -1.232  0.00  0.00    +0.000 A 
ATOM     23  N   UNL     1       4.392   0.686  -2.562  0.00  0.00    +0.000 NA
ATOM     24  C   UNL     1       5.348   0.041  -3.236  0.00  0.00    +0.000 A 
ATOM     25  N   UNL     1       6.248  -0.799  -2.735  0.00  0.00    +0.000 NA
ATOM     26  C   UNL     1       6.137  -0.959  -1.405  0.00  0.00    +0.000 A 
ATOM     27  S   UNL     1       7.202  -2.004  -0.598  0.00  0.00    +0.000 S 
ATOM     28  C   UNL     1       6.473  -1.674   0.899  0.00  0.00    +0.000 A 
ATOM     29  C   UNL     1       5.419  -0.769   0.825  0.00  0.00    +0.000 A 
ATOM     30  C   UNL     1       5.211  -0.351  -0.559  0.00  0.00    +0.000 A 
BRANCH  22  32
ATOM     31  C   UNL     1       2.184   1.440  -1.357  0.00  0.00    +0.000 C 
ATOM     32  O   UNL     1       3.327   1.175  -0.544  0.00  0.00    +0.000 OA
ENDBRANCH  22  32
ENDBRANCH  18  29
ENDBRANCH   1  20
TORSDOF 8
