REMARK  Name = 
REMARK  8 active torsions:
REMARK  status: ('A' for Active; 'I' for Inactive)
REMARK    1  A    between atoms: C_1  and  O_2
REMARK    2  A    between atoms: O_2  and  C_3
REMARK    3  A    between atoms: C_7  and  N_8
REMARK    4  A    between atoms: N_8  and  C_9
REMARK    5  A    between atoms: C_9  and  C_10
REMARK    6  A    between atoms: C_14  and  C_15
REMARK    7  A    between atoms: C_19  and  O_20
REMARK    8  A    between atoms: O_20  and  C_21
REMARK                            x       y       z     vdW  Elec       q    Type
REMARK                         _______ _______ _______ _____ _____    ______ ____
ROOT
ATOM      1  C   UNL     1       1.532   6.571  -0.014  0.00  0.00    +0.000 A 
ATOM      2  C   UNL     1       2.570   7.498   0.042  0.00  0.00    +0.000 A 
ATOM      3  C   UNL     1       2.249   8.844   0.028  0.00  0.00    +0.000 A 
ATOM      4  N   UNL     1       0.985   9.317  -0.036  0.00  0.00    +0.000 NA
ATOM      5  C   UNL     1      -0.026   8.417  -0.093  0.00  0.00    +0.000 A 
ATOM      6  C   UNL     1       0.221   7.044  -0.111  0.00  0.00    +0.000 A 
ENDROOT
BRANCH   5   7
ATOM      7  C   UNL     1      -1.390   8.969  -0.118  0.00  0.00    +0.000 A 
ATOM      8  C   UNL     1      -1.669  10.211  -0.690  0.00  0.00    +0.000 A 
ATOM      9  N   UNL     1      -2.903  10.767  -0.769  0.00  0.00    +0.000 NA
ATOM     10  C   UNL     1      -3.921  10.053  -0.234  0.00  0.00    +0.000 A 
ATOM     11  C   UNL     1      -3.772   8.818   0.381  0.00  0.00    +0.000 A 
ATOM     12  C   UNL     1      -2.487   8.284   0.438  0.00  0.00    +0.000 A 
BRANCH  11  13
ATOM     13  O   UNL     1      -4.907   8.240   0.874  0.00  0.00    +0.000 OA
ATOM     14  C   UNL     1      -4.762   6.969   1.497  0.00  0.00    +0.000 C 
ENDBRANCH  11  13
ENDBRANCH   5   7
BRANCH   1  15
ATOM     15  C   UNL     1       1.800   5.092   0.038  0.00  0.00    +0.000 C 
BRANCH  15  16
ATOM     16  N   UNL     1       2.064   4.579  -1.294  0.00  0.00    +0.000 N 
ATOM     17  H   UNL     1       1.491   4.992  -2.026  0.00  0.00    +0.000 HD
BRANCH  16  22
ATOM     18  C   UNL     1       2.788   0.972  -0.661  0.00  0.00    +0.000 A 
ATOM     19  C   UNL     1       2.961   0.581  -1.979  0.00  0.00    +0.000 A 
ATOM     20  N   UNL     1       2.805   1.404  -3.041  0.00  0.00    +0.000 NA
ATOM     21  C   UNL     1       2.483   2.690  -2.757  0.00  0.00    +0.000 A 
ATOM     22  C   UNL     1       2.287   3.210  -1.474  0.00  0.00    +0.000 A 
ATOM     23  C   UNL     1       2.478   2.312  -0.419  0.00  0.00    +0.000 A 
BRANCH  18  25
ATOM     24  C   UNL     1       2.190   0.190   1.479  0.00  0.00    +0.000 C 
ATOM     25  O   UNL     1       2.986   0.030   0.307  0.00  0.00    +0.000 OA
ENDBRANCH  18  25
ENDBRANCH  16  22
ENDBRANCH  15  16
ENDBRANCH   1  15
TORSDOF 6
