REMARK  Name = 
REMARK  5 active torsions:
REMARK  status: ('A' for Active; 'I' for Inactive)
REMARK    1  A    between atoms: C_1  and  C_2
REMARK    2  A    between atoms: C_5  and  C_6
REMARK    3  A    between atoms: C_6  and  N_7
REMARK    4  A    between atoms: C_12  and  C_13
REMARK    5  A    between atoms: C_13  and  O_15
REMARK                            x       y       z     vdW  Elec       q    Type
REMARK                         _______ _______ _______ _____ _____    ______ ____
ROOT
ATOM      1  N   UNL     1      -3.965  -1.209   0.072  0.00  0.00    +0.000 N 
ATOM      2  C   UNL     1      -4.775  -1.661  -0.942  0.00  0.00    +0.000 A 
ATOM      3  C   UNL     1      -5.167  -2.942  -0.634  0.00  0.00    +0.000 A 
ATOM      4  C   UNL     1      -4.574  -3.288   0.609  0.00  0.00    +0.000 A 
ATOM      5  C   UNL     1      -4.583  -4.458   1.393  0.00  0.00    +0.000 A 
ATOM      6  C   UNL     1      -3.859  -4.498   2.595  0.00  0.00    +0.000 A 
ATOM      7  C   UNL     1      -3.146  -3.373   3.024  0.00  0.00    +0.000 A 
ATOM      8  C   UNL     1      -3.140  -2.193   2.266  0.00  0.00    +0.000 A 
ATOM      9  C   UNL     1      -3.843  -2.180   1.050  0.00  0.00    +0.000 A 
ENDROOT
BRANCH   6  10
ATOM     10  C   UNL     1      -3.832  -5.796   3.326  0.00  0.00    +0.000 C 
ATOM     11  O   UNL     1      -3.973  -6.867   2.766  0.00  0.00    +0.000 OA
BRANCH  10  12
ATOM     12  O   UNL     1      -3.669  -5.687   4.661  0.00  0.00    +0.000 OA
ATOM     13  H   UNL     1      -3.728  -4.785   5.022  0.00  0.00    +0.000 HD
ENDBRANCH  10  12
ENDBRANCH   6  10
BRANCH   1  14
ATOM     14  C   UNL     1      -3.277   0.081   0.051  0.00  0.00    +0.000 C 
BRANCH  14  19
ATOM     15  C   UNL     1      -6.071   4.733   1.999  0.00  0.00    +0.000 C 
ATOM     16  C   UNL     1      -5.385   3.484   1.534  0.00  0.00    +0.000 A 
ATOM     17  C   UNL     1      -6.024   2.253   1.608  0.00  0.00    +0.000 A 
ATOM     18  C   UNL     1      -5.358   1.118   1.151  0.00  0.00    +0.000 A 
ATOM     19  C   UNL     1      -4.070   1.226   0.621  0.00  0.00    +0.000 A 
ATOM     20  C   UNL     1      -3.508   2.500   0.608  0.00  0.00    +0.000 A 
ATOM     21  N   UNL     1      -4.129   3.618   1.050  0.00  0.00    +0.000 NA
ENDBRANCH  14  19
ENDBRANCH   1  14
TORSDOF 4
