REMARK  Name = 
REMARK  6 active torsions:
REMARK  status: ('A' for Active; 'I' for Inactive)
REMARK    1  A    between atoms: C_2  and  C_3
REMARK    2  A    between atoms: N_10  and  C_11
REMARK    3  A    between atoms: C_11  and  C_12
REMARK    4  A    between atoms: C_15  and  C_16
REMARK    5  A    between atoms: C_16  and  N_17
REMARK    6  A    between atoms: C_18  and  C_20
REMARK                            x       y       z     vdW  Elec       q    Type
REMARK                         _______ _______ _______ _____ _____    ______ ____
ROOT
ATOM      1  C   UNL     1       0.664  -4.101  -0.148  0.00  0.00    +0.000 A 
ATOM      2  C   UNL     1       0.035  -5.352  -0.099  0.00  0.00    +0.000 A 
ATOM      3  C   UNL     1      -1.360  -5.448  -0.035  0.00  0.00    +0.000 A 
ATOM      4  C   UNL     1      -2.159  -4.297  -0.042  0.00  0.00    +0.000 A 
ATOM      5  C   UNL     1      -1.530  -3.046  -0.071  0.00  0.00    +0.000 A 
ATOM      6  C   UNL     1      -0.135  -2.949  -0.132  0.00  0.00    +0.000 A 
ENDROOT
BRANCH   1   7
ATOM      7  C   UNL     1       2.165  -3.997  -0.191  0.00  0.00    +0.000 C 
BRANCH   7  15
ATOM      8  C   UNL     1       4.187  -4.734  -4.053  0.00  0.00    +0.000 A 
ATOM      9  C   UNL     1       4.822  -4.307  -5.207  0.00  0.00    +0.000 A 
ATOM     10  C   UNL     1       5.504  -3.107  -4.906  0.00  0.00    +0.000 A 
ATOM     11  C   UNL     1       5.295  -2.855  -3.571  0.00  0.00    +0.000 A 
ATOM     12  N   UNL     1       4.451  -3.822  -3.043  0.00  0.00    +0.000 N 
ATOM     13  C   UNL     1       4.054  -3.860  -1.693  0.00  0.00    +0.000 C 
ATOM     14  O   UNL     1       4.858  -3.559  -0.824  0.00  0.00    +0.000 OA
ATOM     15  N   UNL     1       2.711  -4.121  -1.527  0.00  0.00    +0.000 N 
ATOM     16  H   UNL     1       2.073  -4.019  -2.308  0.00  0.00    +0.000 HD
BRANCH   8  18
ATOM     17  N   UNL     1       2.933  -6.970  -3.743  0.00  0.00    +0.000 NA
ATOM     18  C   UNL     1       3.493  -5.963  -3.882  0.00  0.00    +0.000 C 
ENDBRANCH   8  18
ENDBRANCH   7  15
ENDBRANCH   1   7
BRANCH   4  19
ATOM     19  C   UNL     1      -3.663  -4.399  -0.005  0.00  0.00    +0.000 C 
BRANCH  19  20
ATOM     20  N   UNL     1      -4.177  -4.310   1.338  0.00  0.00    +0.000 N 
ATOM     21  C   UNL     1      -5.529  -4.268   1.565  0.00  0.00    +0.000 C 
ATOM     22  O   UNL     1      -6.341  -4.146   0.650  0.00  0.00    +0.000 OA
ATOM     23  H   UNL     1      -3.554  -4.598   2.087  0.00  0.00    +0.000 HD
BRANCH  21  24
ATOM     24  C   UNL     1      -5.972  -4.365   2.962  0.00  0.00    +0.000 A 
ATOM     25  C   UNL     1      -7.194  -3.826   3.341  0.00  0.00    +0.000 A 
ATOM     26  S   UNL     1      -7.587  -4.110   4.977  0.00  0.00    +0.000 S 
ATOM     27  C   UNL     1      -6.176  -5.033   5.209  0.00  0.00    +0.000 A 
ATOM     28  N   UNL     1      -5.954  -5.695   6.376  0.00  0.00    +0.000 NA
ATOM     29  C   UNL     1      -4.853  -6.369   6.405  0.00  0.00    +0.000 A 
ATOM     30  N   UNL     1      -3.931  -6.402   5.391  0.00  0.00    +0.000 N 
ATOM     31  C   UNL     1      -4.092  -5.713   4.213  0.00  0.00    +0.000 A 
ATOM     32  O   UNL     1      -3.209  -5.686   3.362  0.00  0.00    +0.000 OA
ATOM     33  C   UNL     1      -5.359  -5.017   4.093  0.00  0.00    +0.000 A 
ATOM     34  H   UNL     1      -3.061  -6.901   5.500  0.00  0.00    +0.000 HD
ENDBRANCH  21  24
ENDBRANCH  19  20
ENDBRANCH   4  19
TORSDOF 6
