REMARK  Name = 
REMARK  6 active torsions:
REMARK  status: ('A' for Active; 'I' for Inactive)
REMARK    1  A    between atoms: C_2  and  C_3
REMARK    2  A    between atoms: C_7  and  C_8
REMARK    3  A    between atoms: C_8  and  C_9
REMARK    4  A    between atoms: C_12  and  C_13
REMARK    5  A    between atoms: C_13  and  N_14
REMARK    6  A    between atoms: C_15  and  C_17
REMARK                            x       y       z     vdW  Elec       q    Type
REMARK                         _______ _______ _______ _____ _____    ______ ____
ROOT
ATOM      1  C   UNL     1       8.122   1.635   0.061  0.00  0.00    +0.000 C 
ENDROOT
BRANCH   1   5
ATOM      2  C   UNL     1       3.847   2.324   0.029  0.00  0.00    +0.000 A 
ATOM      3  C   UNL     1       4.469   1.662  -1.037  0.00  0.00    +0.000 A 
ATOM      4  C   UNL     1       5.853   1.461  -1.042  0.00  0.00    +0.000 A 
ATOM      5  C   UNL     1       6.640   1.905   0.027  0.00  0.00    +0.000 A 
ATOM      6  C   UNL     1       6.027   2.618   1.065  0.00  0.00    +0.000 A 
ATOM      7  C   UNL     1       4.643   2.818   1.071  0.00  0.00    +0.000 A 
BRANCH   2   8
ATOM      8  C   UNL     1       2.344   2.480   0.066  0.00  0.00    +0.000 C 
BRANCH   8  13
ATOM      9  C   UNL     1       0.686   0.416   2.827  0.00  0.00    +0.000 A 
ATOM     10  C   UNL     1       0.239  -0.699   2.113  0.00  0.00    +0.000 A 
ATOM     11  C   UNL     1       0.495  -0.798   0.745  0.00  0.00    +0.000 A 
ATOM     12  C   UNL     1       1.188   0.223   0.086  0.00  0.00    +0.000 A 
ATOM     13  C   UNL     1       1.624   1.359   0.784  0.00  0.00    +0.000 A 
ATOM     14  C   UNL     1       1.378   1.438   2.165  0.00  0.00    +0.000 A 
BRANCH   9  16
ATOM     15  N   UNL     1       0.222   0.604   5.374  0.00  0.00    +0.000 NA
ATOM     16  C   UNL     1       0.432   0.518   4.233  0.00  0.00    +0.000 C 
ENDBRANCH   9  16
ENDBRANCH   8  13
ENDBRANCH   2   8
ENDBRANCH   1   5
BRANCH   1  17
ATOM     17  N   UNL     1       8.865   2.684  -0.586  0.00  0.00    +0.000 N 
ATOM     18  C   UNL     1      10.228   2.613  -0.713  0.00  0.00    +0.000 C 
ATOM     19  O   UNL     1      10.871   1.641  -0.322  0.00  0.00    +0.000 OA
ATOM     20  H   UNL     1       8.398   3.579  -0.692  0.00  0.00    +0.000 HD
BRANCH  18  21
ATOM     21  C   UNL     1      10.875   3.730  -1.409  0.00  0.00    +0.000 A 
ATOM     22  C   UNL     1      12.104   3.541  -2.026  0.00  0.00    +0.000 A 
ATOM     23  S   UNL     1      12.668   4.918  -2.860  0.00  0.00    +0.000 S 
ATOM     24  C   UNL     1      11.318   5.833  -2.374  0.00  0.00    +0.000 A 
ATOM     25  N   UNL     1      11.183   7.134  -2.745  0.00  0.00    +0.000 NA
ATOM     26  C   UNL     1      10.131   7.717  -2.275  0.00  0.00    +0.000 A 
ATOM     27  N   UNL     1       9.200   7.115  -1.468  0.00  0.00    +0.000 N 
ATOM     28  C   UNL     1       9.276   5.796  -1.094  0.00  0.00    +0.000 A 
ATOM     29  O   UNL     1       8.405   5.276  -0.405  0.00  0.00    +0.000 OA
ATOM     30  C   UNL     1      10.446   5.096  -1.593  0.00  0.00    +0.000 A 
ATOM     31  H   UNL     1       8.397   7.626  -1.133  0.00  0.00    +0.000 HD
ENDBRANCH  18  21
ENDBRANCH   1  17
TORSDOF 6
