REMARK  Name = 
REMARK  6 active torsions:
REMARK  status: ('A' for Active; 'I' for Inactive)
REMARK    1  A    between atoms: C_2  and  C_25
REMARK    2  A    between atoms: N_3  and  C_4
REMARK    3  A    between atoms: C_4  and  C_5
REMARK    4  A    between atoms: C_8  and  C_9
REMARK    5  A    between atoms: C_9  and  N_10
REMARK    6  A    between atoms: C_11  and  C_13
REMARK                            x       y       z     vdW  Elec       q    Type
REMARK                         _______ _______ _______ _____ _____    ______ ____
ROOT
ATOM      1  C   UNL     1       3.296  -3.216   1.619  0.00  0.00    +0.000 A 
ATOM      2  C   UNL     1       4.417  -2.838   2.370  0.00  0.00    +0.000 A 
ATOM      3  C   UNL     1       5.269  -3.805   2.919  0.00  0.00    +0.000 A 
ATOM      4  C   UNL     1       5.029  -5.170   2.710  0.00  0.00    +0.000 A 
ATOM      5  C   UNL     1       3.900  -5.546   1.972  0.00  0.00    +0.000 A 
ATOM      6  C   UNL     1       3.050  -4.581   1.421  0.00  0.00    +0.000 A 
ENDROOT
BRANCH   1   7
ATOM      7  C   UNL     1       2.353  -2.181   1.067  0.00  0.00    +0.000 C 
BRANCH   7  10
ATOM      8  O   UNL     1       0.946  -0.295  -0.315  0.00  0.00    +0.000 OA
ATOM      9  C   UNL     1       1.966  -0.724  -0.855  0.00  0.00    +0.000 C 
ATOM     10  N   UNL     1       2.743  -1.681  -0.230  0.00  0.00    +0.000 N 
ATOM     11  H   UNL     1       3.592  -2.007  -0.673  0.00  0.00    +0.000 HD
BRANCH   9  12
ATOM     12  C   UNL     1       2.407  -0.249  -2.161  0.00  0.00    +0.000 A 
ATOM     13  C   UNL     1       1.806   0.754  -2.906  0.00  0.00    +0.000 A 
ATOM     14  C   UNL     1       2.449   0.978  -4.155  0.00  0.00    +0.000 A 
ATOM     15  C   UNL     1       3.526   0.139  -4.331  0.00  0.00    +0.000 A 
ATOM     16  S   UNL     1       3.760  -0.896  -2.986  0.00  0.00    +0.000 S 
ENDBRANCH   9  12
ENDBRANCH   7  10
ENDBRANCH   1   7
BRANCH   4  17
ATOM     17  C   UNL     1       5.942  -6.221   3.292  0.00  0.00    +0.000 C 
BRANCH  17  18
ATOM     18  N   UNL     1       5.511  -6.632   4.603  0.00  0.00    +0.000 N 
ATOM     19  C   UNL     1       6.236  -7.530   5.344  0.00  0.00    +0.000 C 
ATOM     20  O   UNL     1       7.304  -7.989   4.949  0.00  0.00    +0.000 OA
ATOM     21  H   UNL     1       4.537  -6.464   4.836  0.00  0.00    +0.000 HD
BRANCH  19  22
ATOM     22  C   UNL     1       5.697  -7.875   6.667  0.00  0.00    +0.000 A 
ATOM     23  C   UNL     1       6.547  -8.346   7.659  0.00  0.00    +0.000 A 
ATOM     24  S   UNL     1       5.766  -8.644   9.145  0.00  0.00    +0.000 S 
ATOM     25  C   UNL     1       4.253  -8.208   8.499  0.00  0.00    +0.000 A 
ATOM     26  N   UNL     1       3.126  -8.267   9.259  0.00  0.00    +0.000 NA
ATOM     27  C   UNL     1       2.045  -7.938   8.633  0.00  0.00    +0.000 A 
ATOM     28  N   UNL     1       1.989  -7.550   7.320  0.00  0.00    +0.000 N 
ATOM     29  C   UNL     1       3.104  -7.450   6.522  0.00  0.00    +0.000 A 
ATOM     30  O   UNL     1       3.022  -7.064   5.362  0.00  0.00    +0.000 OA
ATOM     31  C   UNL     1       4.346  -7.821   7.174  0.00  0.00    +0.000 A 
ATOM     32  H   UNL     1       1.110  -7.300   6.891  0.00  0.00    +0.000 HD
ENDBRANCH  19  22
ENDBRANCH  17  18
ENDBRANCH   4  17
TORSDOF 6
