REMARK  Name = 
REMARK  7 active torsions:
REMARK  status: ('A' for Active; 'I' for Inactive)
REMARK    1  A    between atoms: C_1  and  N_2
REMARK    2  A    between atoms: C_6  and  C_7
REMARK    3  A    between atoms: N_9  and  C_10
REMARK    4  A    between atoms: C_10  and  C_11
REMARK    5  A    between atoms: C_14  and  C_15
REMARK    6  A    between atoms: C_15  and  N_16
REMARK    7  A    between atoms: C_17  and  C_19
REMARK                            x       y       z     vdW  Elec       q    Type
REMARK                         _______ _______ _______ _____ _____    ______ ____
ROOT
ATOM      1  C   UNL     1       3.733   4.280   0.095  0.00  0.00    +0.000 A 
ATOM      2  C   UNL     1       4.428   5.497   0.078  0.00  0.00    +0.000 A 
ATOM      3  C   UNL     1       5.828   5.527   0.117  0.00  0.00    +0.000 A 
ATOM      4  C   UNL     1       6.566   4.340   0.179  0.00  0.00    +0.000 A 
ATOM      5  C   UNL     1       5.867   3.128   0.186  0.00  0.00    +0.000 A 
ATOM      6  F   UNL     1       6.540   1.968   0.231  0.00  0.00    +0.000 F 
ATOM      7  C   UNL     1       4.471   3.090   0.145  0.00  0.00    +0.000 A 
ENDROOT
BRANCH   1   8
ATOM      8  C   UNL     1       2.225   4.269   0.042  0.00  0.00    +0.000 C 
BRANCH   8  11
ATOM      9  C   UNL     1       1.366   5.341  -2.042  0.00  0.00    +0.000 C 
ATOM     10  O   UNL     1       1.476   6.488  -1.619  0.00  0.00    +0.000 OA
ATOM     11  N   UNL     1       1.721   4.229  -1.308  0.00  0.00    +0.000 N 
ATOM     12  H   UNL     1       1.600   3.337  -1.779  0.00  0.00    +0.000 HD
BRANCH   9  18
ATOM     13  C   UNL     1       0.421   7.305  -4.304  0.00  0.00    +0.000 C 
ATOM     14  N   UNL     1       0.427   5.863  -4.352  0.00  0.00    +0.000 N 
ATOM     15  C   UNL     1       0.012   5.115  -5.421  0.00  0.00    +0.000 A 
ATOM     16  C   UNL     1       0.178   3.809  -5.032  0.00  0.00    +0.000 A 
ATOM     17  N   UNL     1       0.695   3.742  -3.766  0.00  0.00    +0.000 NA
ATOM     18  C   UNL     1       0.842   5.000  -3.361  0.00  0.00    +0.000 A 
ENDBRANCH   9  18
ENDBRANCH   8  11
ENDBRANCH   1   8
BRANCH   4  19
ATOM     19  C   UNL     1       8.072   4.366   0.178  0.00  0.00    +0.000 C 
BRANCH  19  20
ATOM     20  N   UNL     1       8.594   4.351  -1.167  0.00  0.00    +0.000 N 
ATOM     21  C   UNL     1       9.940   4.314  -1.423  0.00  0.00    +0.000 C 
ATOM     22  O   UNL     1      10.775   4.269  -0.524  0.00  0.00    +0.000 OA
ATOM     23  H   UNL     1       7.951   4.588  -1.915  0.00  0.00    +0.000 HD
BRANCH  21  24
ATOM     24  C   UNL     1      10.333   4.271  -2.837  0.00  0.00    +0.000 A 
ATOM     25  C   UNL     1      11.557   3.726  -3.201  0.00  0.00    +0.000 A 
ATOM     26  S   UNL     1      11.829   3.715  -4.886  0.00  0.00    +0.000 S 
ATOM     27  C   UNL     1      10.344   4.485  -5.185  0.00  0.00    +0.000 A 
ATOM     28  N   UNL     1       9.956   4.795  -6.454  0.00  0.00    +0.000 NA
ATOM     29  C   UNL     1       8.822   5.400  -6.531  0.00  0.00    +0.000 A 
ATOM     30  N   UNL     1       8.032   5.728  -5.457  0.00  0.00    +0.000 N 
ATOM     31  C   UNL     1       8.365   5.403  -4.163  0.00  0.00    +0.000 A 
ATOM     32  O   UNL     1       7.610   5.662  -3.232  0.00  0.00    +0.000 OA
ATOM     33  C   UNL     1       9.644   4.730  -4.018  0.00  0.00    +0.000 A 
ATOM     34  H   UNL     1       7.147   6.194  -5.588  0.00  0.00    +0.000 HD
ENDBRANCH  21  24
ENDBRANCH  19  20
ENDBRANCH   4  19
TORSDOF 6
