REMARK  Name = 
REMARK  6 active torsions:
REMARK  status: ('A' for Active; 'I' for Inactive)
REMARK    1  A    between atoms: C_2  and  C_19
REMARK    2  A    between atoms: N_3  and  C_4
REMARK    3  A    between atoms: C_4  and  C_5
REMARK    4  A    between atoms: C_8  and  C_9
REMARK    5  A    between atoms: C_9  and  N_10
REMARK    6  A    between atoms: N_10  and  C_11
REMARK                            x       y       z     vdW  Elec       q    Type
REMARK                         _______ _______ _______ _____ _____    ______ ____
ROOT
ATOM      1  C   UNL     1       2.358   1.649  -1.941  0.00  0.00    +0.000 C 
ENDROOT
BRANCH   1   2
ATOM      2  C   UNL     1       3.289   2.688  -2.526  0.00  0.00    +0.000 A 
ATOM      3  C   UNL     1       2.966   4.052  -2.495  0.00  0.00    +0.000 A 
ATOM      4  C   UNL     1       3.795   4.994  -3.114  0.00  0.00    +0.000 A 
ATOM      5  C   UNL     1       4.952   4.589  -3.798  0.00  0.00    +0.000 A 
ATOM      6  C   UNL     1       5.278   3.225  -3.816  0.00  0.00    +0.000 A 
ATOM      7  C   UNL     1       4.449   2.288  -3.196  0.00  0.00    +0.000 A 
BRANCH   5   8
ATOM      8  C   UNL     1       5.822   5.598  -4.510  0.00  0.00    +0.000 C 
BRANCH   8   9
ATOM      9  N   UNL     1       6.857   6.093  -3.609  0.00  0.00    +0.000 N 
ATOM     10  H   UNL     1       7.284   5.340  -3.071  0.00  0.00    +0.000 HD
BRANCH   9  11
ATOM     11  C   UNL     1       7.795   6.999  -4.104  0.00  0.00    +0.000 A 
ATOM     12  C   UNL     1       7.577   7.912  -5.128  0.00  0.00    +0.000 A 
ATOM     13  N   UNL     1       8.464   8.844  -5.548  0.00  0.00    +0.000 NA
ATOM     14  C   UNL     1       9.622   8.881  -4.877  0.00  0.00    +0.000 A 
ATOM     15  N   UNL     1       9.960   8.092  -3.850  0.00  0.00    +0.000 NA
ATOM     16  C   UNL     1       9.022   7.184  -3.483  0.00  0.00    +0.000 A 
ENDBRANCH   9  11
ENDBRANCH   8   9
ENDBRANCH   5   8
ENDBRANCH   1   2
BRANCH   1  19
ATOM     17  O   UNL     1       2.358  -0.682  -3.638  0.00  0.00    +0.000 OA
ATOM     18  C   UNL     1       1.530   0.208  -3.778  0.00  0.00    +0.000 C 
ATOM     19  N   UNL     1       1.377   1.285  -2.930  0.00  0.00    +0.000 N 
ATOM     20  H   UNL     1       0.818   2.053  -3.259  0.00  0.00    +0.000 HD
BRANCH  18  21
ATOM     21  C   UNL     1       0.721   0.373  -4.981  0.00  0.00    +0.000 A 
ATOM     22  C   UNL     1       1.208   0.124  -6.255  0.00  0.00    +0.000 A 
ATOM     23  S   UNL     1       0.283   0.940  -7.452  0.00  0.00    +0.000 S 
ATOM     24  C   UNL     1      -0.834   1.502  -6.290  0.00  0.00    +0.000 A 
ATOM     25  N   UNL     1      -1.813   2.397  -6.580  0.00  0.00    +0.000 NA
ATOM     26  C   UNL     1      -2.594   2.677  -5.590  0.00  0.00    +0.000 A 
ATOM     27  N   UNL     1      -2.523   2.092  -4.345  0.00  0.00    +0.000 N 
ATOM     28  C   UNL     1      -1.565   1.165  -4.006  0.00  0.00    +0.000 A 
ATOM     29  O   UNL     1      -1.558   0.607  -2.920  0.00  0.00    +0.000 OA
ATOM     30  C   UNL     1      -0.593   0.942  -5.055  0.00  0.00    +0.000 A 
ATOM     31  H   UNL     1      -3.222   2.283  -3.640  0.00  0.00    +0.000 HD
ENDBRANCH  18  21
ENDBRANCH   1  19
TORSDOF 6
