REMARK  Name = 
REMARK  5 active torsions:
REMARK  status: ('A' for Active; 'I' for Inactive)
REMARK    1  A    between atoms: C_2  and  C_17
REMARK    2  A    between atoms: N_3  and  C_4
REMARK    3  A    between atoms: C_4  and  C_5
REMARK    4  A    between atoms: C_8  and  C_9
REMARK    5  A    between atoms: C_9  and  N_10
REMARK                            x       y       z     vdW  Elec       q    Type
REMARK                         _______ _______ _______ _____ _____    ______ ____
ROOT
ATOM      1  O   UNL     1       2.865  -0.862   1.929  0.00  0.00    +0.000 OA
ATOM      2  C   UNL     1       3.223  -0.421   0.839  0.00  0.00    +0.000 C 
ATOM      3  N   UNL     1       2.899  -1.049  -0.335  0.00  0.00    +0.000 N 
ATOM      4  H   UNL     1       3.316  -0.732  -1.205  0.00  0.00    +0.000 HD
ENDROOT
BRANCH   2   5
ATOM      5  C   UNL     1       4.000   0.821   0.739  0.00  0.00    +0.000 A 
ATOM      6  C   UNL     1       4.012   1.710   1.807  0.00  0.00    +0.000 A 
ATOM      7  S   UNL     1       5.004   3.073   1.556  0.00  0.00    +0.000 S 
ATOM      8  C   UNL     1       5.494   2.502   0.030  0.00  0.00    +0.000 A 
ATOM      9  N   UNL     1       6.422   3.175  -0.701  0.00  0.00    +0.000 NA
ATOM     10  C   UNL     1       6.714   2.623  -1.831  0.00  0.00    +0.000 A 
ATOM     11  N   UNL     1       6.137   1.477  -2.311  0.00  0.00    +0.000 N 
ATOM     12  C   UNL     1       5.159   0.790  -1.628  0.00  0.00    +0.000 A 
ATOM     13  O   UNL     1       4.586  -0.170  -2.134  0.00  0.00    +0.000 OA
ATOM     14  C   UNL     1       4.849   1.328  -0.317  0.00  0.00    +0.000 A 
ATOM     15  H   UNL     1       6.376   1.124  -3.226  0.00  0.00    +0.000 HD
ENDBRANCH   2   5
BRANCH   3  16
ATOM     16  C   UNL     1       2.226  -2.325  -0.364  0.00  0.00    +0.000 C 
BRANCH  16  17
ATOM     17  C   UNL     1       3.205  -3.456  -0.492  0.00  0.00    +0.000 A 
ATOM     18  C   UNL     1       3.637  -3.921  -1.737  0.00  0.00    +0.000 A 
ATOM     19  C   UNL     1       4.562  -4.963  -1.807  0.00  0.00    +0.000 A 
ATOM     20  C   UNL     1       5.041  -5.521  -0.623  0.00  0.00    +0.000 A 
ATOM     21  N   UNL     1       4.639  -5.080   0.595  0.00  0.00    +0.000 NA
ATOM     22  C   UNL     1       3.746  -4.061   0.634  0.00  0.00    +0.000 A 
BRANCH  20  23
ATOM     23  C   UNL     1       6.026  -6.660  -0.645  0.00  0.00    +0.000 C 
BRANCH  23  24
ATOM     24  N   UNL     1       7.406  -6.202  -0.657  0.00  0.00    +0.000 N 
ATOM     25  C   UNL     1       8.346  -6.489  -1.610  0.00  0.00    +0.000 A 
ATOM     26  C   UNL     1       9.526  -5.993  -1.106  0.00  0.00    +0.000 A 
ATOM     27  N   UNL     1       9.321  -5.392   0.108  0.00  0.00    +0.000 NA
ATOM     28  C   UNL     1       8.040  -5.538   0.357  0.00  0.00    +0.000 A 
ENDBRANCH  23  24
ENDBRANCH  20  23
ENDBRANCH  16  17
ENDBRANCH   3  16
TORSDOF 5
