REMARK  Name = 
REMARK  6 active torsions:
REMARK  status: ('A' for Active; 'I' for Inactive)
REMARK    1  A    between atoms: C_1  and  C_2
REMARK    2  A    between atoms: C_5  and  O_6
REMARK    3  A    between atoms: O_6  and  C_7
REMARK    4  A    between atoms: C_11  and  C_12
REMARK    5  A    between atoms: C_13  and  C_14
REMARK    6  A    between atoms: C_17  and  C_18
REMARK                            x       y       z     vdW  Elec       q    Type
REMARK                         _______ _______ _______ _____ _____    ______ ____
ROOT
ATOM      1  C   UNL     1       5.017   5.118  -3.350  0.00  0.00    +0.000 C 
ATOM      2  C   UNL     1       4.942   5.262  -4.685  0.00  0.00    +0.000 C 
ENDROOT
BRANCH   1   7
ATOM      3  C   UNL     1       4.331   2.453  -0.770  0.00  0.00    +0.000 A 
ATOM      4  C   UNL     1       4.880   1.321  -1.375  0.00  0.00    +0.000 A 
ATOM      5  C   UNL     1       5.509   1.435  -2.615  0.00  0.00    +0.000 A 
ATOM      6  C   UNL     1       5.579   2.671  -3.259  0.00  0.00    +0.000 A 
ATOM      7  C   UNL     1       5.013   3.811  -2.676  0.00  0.00    +0.000 A 
ATOM      8  C   UNL     1       4.424   3.695  -1.409  0.00  0.00    +0.000 A 
BRANCH   3   9
ATOM      9  O   UNL     1       3.697   2.459   0.450  0.00  0.00    +0.000 OA
BRANCH   9  14
ATOM     10  C   UNL     1       2.473   0.809   3.435  0.00  0.00    +0.000 C 
ATOM     11  C   UNL     1       2.082   1.389   2.090  0.00  0.00    +0.000 C 
ATOM     12  O   UNL     1       1.122   0.529   1.413  0.00  0.00    +0.000 OA
ATOM     13  C   UNL     1       1.845   0.714   0.167  0.00  0.00    +0.000 C 
ATOM     14  C   UNL     1       3.082   1.235   0.918  0.00  0.00    +0.000 C 
ENDBRANCH   9  14
ENDBRANCH   3   9
ENDBRANCH   1   7
BRANCH   2  15
ATOM     15  C   UNL     1       4.854   6.557  -5.371  0.00  0.00    +0.000 A 
ATOM     16  C   UNL     1       4.806   6.612  -6.762  0.00  0.00    +0.000 A 
ATOM     17  C   UNL     1       4.674   7.856  -7.382  0.00  0.00    +0.000 A 
ATOM     18  C   UNL     1       4.590   9.013  -6.605  0.00  0.00    +0.000 A 
ATOM     19  C   UNL     1       4.653   8.858  -5.229  0.00  0.00    +0.000 A 
ATOM     20  N   UNL     1       4.785   7.665  -4.599  0.00  0.00    +0.000 NA
BRANCH  18  21
ATOM     21  C   UNL     1       4.434  10.326  -7.272  0.00  0.00    +0.000 C 
ATOM     22  N   UNL     1       4.360  11.457  -6.508  0.00  0.00    +0.000 N 
ATOM     23  O   UNL     1       4.370  10.410  -8.496  0.00  0.00    +0.000 OA
ATOM     24  H   UNL     1       4.407  11.500  -5.502  0.00  0.00    +0.000 HD
ATOM     25  H   UNL     1       4.252  12.331  -7.006  0.00  0.00    +0.000 HD
ENDBRANCH  18  21
ENDBRANCH   2  15
TORSDOF 5
