REMARK  Name = 
REMARK  6 active torsions:
REMARK  status: ('A' for Active; 'I' for Inactive)
REMARK    1  A    between atoms: C_1  and  C_2
REMARK    2  A    between atoms: C_4  and  C_5
REMARK    3  A    between atoms: C_10  and  N_11
REMARK    4  A    between atoms: N_11  and  C_12
REMARK    5  A    between atoms: C_12  and  C_13
REMARK    6  A    between atoms: C_18  and  C_19
REMARK                            x       y       z     vdW  Elec       q    Type
REMARK                         _______ _______ _______ _____ _____    ______ ____
ROOT
ATOM      1  N   UNL     1       0.859  -2.259  -0.067  0.00  0.00    +0.000 N 
ATOM      2  H   UNL     1       0.385  -2.724  -0.829  0.00  0.00    +0.000 HD
ENDROOT
BRANCH   1   9
ATOM      3  C   UNL     1      -2.015  -1.716  -0.184  0.00  0.00    +0.000 C 
ATOM      4  C   UNL     1      -1.246  -1.904   1.093  0.00  0.00    +0.000 A 
ATOM      5  C   UNL     1      -1.928  -1.772   2.317  0.00  0.00    +0.000 A 
ATOM      6  C   UNL     1      -1.254  -1.924   3.527  0.00  0.00    +0.000 A 
ATOM      7  C   UNL     1       0.095  -2.206   3.451  0.00  0.00    +0.000 A 
ATOM      8  N   UNL     1       0.783  -2.339   2.288  0.00  0.00    +0.000 NA
ATOM      9  C   UNL     1       0.127  -2.195   1.116  0.00  0.00    +0.000 A 
BRANCH   6  10
ATOM     10  C   UNL     1      -2.001  -1.776   4.797  0.00  0.00    +0.000 C 
ATOM     11  N   UNL     1      -1.335  -1.910   5.983  0.00  0.00    +0.000 N 
ATOM     12  O   UNL     1      -3.203  -1.533   4.802  0.00  0.00    +0.000 OA
ATOM     13  H   UNL     1      -0.345  -2.073   6.099  0.00  0.00    +0.000 HD
ATOM     14  H   UNL     1      -1.882  -1.782   6.824  0.00  0.00    +0.000 HD
ENDBRANCH   6  10
ENDBRANCH   1   9
BRANCH   1  15
ATOM     15  C   UNL     1       2.291  -2.537   0.001  0.00  0.00    +0.000 C 
BRANCH  15  16
ATOM     16  C   UNL     1       2.688  -4.005  -0.072  0.00  0.00    +0.000 A 
ATOM     17  C   UNL     1       3.934  -4.342  -0.629  0.00  0.00    +0.000 A 
ATOM     18  C   UNL     1       4.387  -5.656  -0.623  0.00  0.00    +0.000 A 
ATOM     19  C   UNL     1       3.612  -6.659  -0.044  0.00  0.00    +0.000 A 
ATOM     20  F   UNL     1       4.111  -7.906  -0.035  0.00  0.00    +0.000 F 
ATOM     21  C   UNL     1       2.360  -6.387   0.533  0.00  0.00    +0.000 A 
ATOM     22  C   UNL     1       1.924  -5.040   0.501  0.00  0.00    +0.000 A 
BRANCH  21  23
ATOM     23  C   UNL     1       1.524  -7.441   1.152  0.00  0.00    +0.000 A 
ATOM     24  C   UNL     1       0.703  -7.186   2.262  0.00  0.00    +0.000 A 
ATOM     25  C   UNL     1      -0.118  -8.182   2.792  0.00  0.00    +0.000 A 
ATOM     26  C   UNL     1      -0.091  -9.434   2.208  0.00  0.00    +0.000 A 
ATOM     27  N   UNL     1       0.691  -9.745   1.157  0.00  0.00    +0.000 NA
ATOM     28  C   UNL     1       1.472  -8.750   0.660  0.00  0.00    +0.000 A 
ENDBRANCH  21  23
ENDBRANCH  15  16
ENDBRANCH   1  15
TORSDOF 5
