REMARK  Name = 
REMARK  7 active torsions:
REMARK  status: ('A' for Active; 'I' for Inactive)
REMARK    1  A    between atoms: C_1  and  C_2
REMARK    2  A    between atoms: C_4  and  C_5
REMARK    3  A    between atoms: C_5  and  N_6
REMARK    4  A    between atoms: C_7  and  C_9
REMARK    5  A    between atoms: C_20  and  C_21
REMARK    6  A    between atoms: C_21  and  N_22
REMARK    7  A    between atoms: C_23  and  C_25
REMARK                            x       y       z     vdW  Elec       q    Type
REMARK                         _______ _______ _______ _____ _____    ______ ____
ROOT
ATOM      1  C   UNL     1       2.558   0.235  -0.150  0.00  0.00    +0.000 C 
ATOM      2  C   UNL     1       1.057   0.129  -0.122  0.00  0.00    +0.000 A 
ATOM      3  C   UNL     1       0.309   1.324  -0.096  0.00  0.00    +0.000 A 
ATOM      4  C   UNL     1      -1.091   1.319  -0.028  0.00  0.00    +0.000 A 
ATOM      5  C   UNL     1      -1.750   0.088  -0.010  0.00  0.00    +0.000 A 
ATOM      6  C   UNL     1      -1.021  -1.107  -0.024  0.00  0.00    +0.000 A 
ATOM      7  C   UNL     1       0.385  -1.111  -0.084  0.00  0.00    +0.000 A 
ENDROOT
BRANCH   4   8
ATOM      8  C   UNL     1      -1.854   2.620   0.005  0.00  0.00    +0.000 C 
BRANCH   8   9
ATOM      9  N   UNL     1      -2.134   3.106  -1.325  0.00  0.00    +0.000 N 
ATOM     10  C   UNL     1      -2.818   4.285  -1.527  0.00  0.00    +0.000 C 
ATOM     11  O   UNL     1      -3.195   5.017  -0.620  0.00  0.00    +0.000 OA
ATOM     12  H   UNL     1      -1.654   2.659  -2.097  0.00  0.00    +0.000 HD
BRANCH  10  13
ATOM     13  C   UNL     1      -3.070   4.657  -2.939  0.00  0.00    +0.000 A 
ATOM     14  C   UNL     1      -3.196   6.005  -3.283  0.00  0.00    +0.000 A 
ATOM     15  N   UNL     1      -3.425   6.492  -4.537  0.00  0.00    +0.000 NA
ATOM     16  C   UNL     1      -3.546   5.503  -5.442  0.00  0.00    +0.000 A 
ATOM     17  N   UNL     1      -3.785   5.635  -6.780  0.00  0.00    +0.000 N 
ATOM     18  C   UNL     1      -3.842   4.376  -7.315  0.00  0.00    +0.000 A 
ATOM     19  N   UNL     1      -3.654   3.446  -6.404  0.00  0.00    +0.000 NA
ATOM     20  C   UNL     1      -3.465   4.133  -5.231  0.00  0.00    +0.000 A 
ATOM     21  C   UNL     1      -3.223   3.680  -3.931  0.00  0.00    +0.000 A 
ATOM     22  H   UNL     1      -3.899   6.511  -7.266  0.00  0.00    +0.000 HD
ENDBRANCH  10  13
ENDBRANCH   8   9
ENDBRANCH   4   8
BRANCH   7  23
ATOM     23  C   UNL     1       1.101  -2.448  -0.057  0.00  0.00    +0.000 C 
BRANCH  23  24
ATOM     24  N   UNL     1       1.364  -2.876   1.297  0.00  0.00    +0.000 N 
ATOM     25  C   UNL     1       2.060  -4.025   1.577  0.00  0.00    +0.000 C 
ATOM     26  O   UNL     1       2.524  -4.743   0.692  0.00  0.00    +0.000 OA
ATOM     27  H   UNL     1       0.758  -2.489   2.012  0.00  0.00    +0.000 HD
BRANCH  25  28
ATOM     28  C   UNL     1       2.296  -4.314   3.001  0.00  0.00    +0.000 A 
ATOM     29  C   UNL     1       3.340  -5.148   3.383  0.00  0.00    +0.000 A 
ATOM     30  S   UNL     1       3.550  -5.251   5.074  0.00  0.00    +0.000 S 
ATOM     31  C   UNL     1       2.219  -4.230   5.358  0.00  0.00    +0.000 A 
ATOM     32  N   UNL     1       1.855  -3.883   6.622  0.00  0.00    +0.000 NA
ATOM     33  C   UNL     1       0.816  -3.118   6.687  0.00  0.00    +0.000 A 
ATOM     34  N   UNL     1       0.097  -2.684   5.603  0.00  0.00    +0.000 N 
ATOM     35  C   UNL     1       0.418  -3.024   4.312  0.00  0.00    +0.000 A 
ATOM     36  O   UNL     1      -0.266  -2.650   3.364  0.00  0.00    +0.000 OA
ATOM     37  C   UNL     1       1.609  -3.839   4.180  0.00  0.00    +0.000 A 
ATOM     38  H   UNL     1      -0.721  -2.106   5.721  0.00  0.00    +0.000 HD
ENDBRANCH  25  28
ENDBRANCH  23  24
ENDBRANCH   7  23
TORSDOF 6
