REMARK  Name = 
REMARK  9 active torsions:
REMARK  status: ('A' for Active; 'I' for Inactive)
REMARK    1  A    between atoms: C_1  and  O_2
REMARK    2  A    between atoms: O_2  and  C_3
REMARK    3  A    between atoms: C_7  and  C_8
REMARK    4  A    between atoms: C_8  and  N_9
REMARK    5  A    between atoms: N_9  and  C_10
REMARK    6  A    between atoms: C_10  and  C_11
REMARK    7  A    between atoms: C_14  and  C_15
REMARK    8  A    between atoms: C_15  and  N_16
REMARK    9  A    between atoms: C_17  and  C_19
REMARK                            x       y       z     vdW  Elec       q    Type
REMARK                         _______ _______ _______ _____ _____    ______ ____
ROOT
ATOM      1  C   UNL     1       9.018   5.252   0.215  0.00  0.00    +0.000 A 
ATOM      2  C   UNL     1       8.660   6.521  -0.268  0.00  0.00    +0.000 A 
ATOM      3  C   UNL     1       9.092   7.686   0.369  0.00  0.00    +0.000 A 
ATOM      4  C   UNL     1       9.898   7.614   1.513  0.00  0.00    +0.000 A 
ATOM      5  C   UNL     1      10.249   6.346   2.001  0.00  0.00    +0.000 A 
ATOM      6  C   UNL     1       9.823   5.177   1.357  0.00  0.00    +0.000 A 
ENDROOT
BRANCH   1   7
ATOM      7  C   UNL     1       8.503   4.009  -0.479  0.00  0.00    +0.000 C 
BRANCH   7   8
ATOM      8  N   UNL     1       8.908   4.015  -1.882  0.00  0.00    +0.000 NA
ATOM      9  H   UNL     1       8.555   4.861  -2.324  0.00  0.00    +0.000 HD
BRANCH   8  10
ATOM     10  C   UNL     1       8.400   2.873  -2.634  0.00  0.00    +0.000 C 
BRANCH  10  15
ATOM     11  C   UNL     1       8.237   3.286  -6.428  0.00  0.00    +0.000 A 
ATOM     12  C   UNL     1       9.589   3.360  -6.758  0.00  0.00    +0.000 A 
ATOM     13  C   UNL     1      10.562   3.204  -5.772  0.00  0.00    +0.000 A 
ATOM     14  C   UNL     1      10.188   3.002  -4.442  0.00  0.00    +0.000 A 
ATOM     15  C   UNL     1       8.832   2.970  -4.082  0.00  0.00    +0.000 A 
ATOM     16  C   UNL     1       7.867   3.081  -5.095  0.00  0.00    +0.000 A 
BRANCH  11  18
ATOM     17  C   UNL     1       7.538   3.705  -8.653  0.00  0.00    +0.000 C 
ATOM     18  O   UNL     1       7.193   3.424  -7.302  0.00  0.00    +0.000 OA
ENDBRANCH  11  18
ENDBRANCH  10  15
ENDBRANCH   8  10
ENDBRANCH   7   8
ENDBRANCH   1   7
BRANCH   4  19
ATOM     19  C   UNL     1      10.374   8.858   2.224  0.00  0.00    +0.000 C 
BRANCH  19  20
ATOM     20  N   UNL     1       9.458   9.284   3.250  0.00  0.00    +0.000 N 
ATOM     21  C   UNL     1       9.691  10.396   4.022  0.00  0.00    +0.000 C 
ATOM     22  O   UNL     1      10.686  11.102   3.887  0.00  0.00    +0.000 OA
ATOM     23  H   UNL     1       8.808   8.587   3.598  0.00  0.00    +0.000 HD
BRANCH  21  24
ATOM     24  C   UNL     1       8.627  10.734   4.975  0.00  0.00    +0.000 A 
ATOM     25  C   UNL     1       8.426  12.055   5.359  0.00  0.00    +0.000 A 
ATOM     26  S   UNL     1       7.100  12.255   6.416  0.00  0.00    +0.000 S 
ATOM     27  C   UNL     1       6.788  10.582   6.438  0.00  0.00    +0.000 A 
ATOM     28  N   UNL     1       5.770  10.069   7.181  0.00  0.00    +0.000 NA
ATOM     29  C   UNL     1       5.681   8.789   7.123  0.00  0.00    +0.000 A 
ATOM     30  N   UNL     1       6.489   7.961   6.392  0.00  0.00    +0.000 N 
ATOM     31  C   UNL     1       7.483   8.442   5.581  0.00  0.00    +0.000 A 
ATOM     32  O   UNL     1       8.136   7.691   4.862  0.00  0.00    +0.000 OA
ATOM     33  C   UNL     1       7.663   9.883   5.631  0.00  0.00    +0.000 A 
ATOM     34  H   UNL     1       6.330   6.966   6.378  0.00  0.00    +0.000 HD
ENDBRANCH  21  24
ENDBRANCH  19  20
ENDBRANCH   4  19
TORSDOF 8
