REMARK  Name = 
REMARK  6 active torsions:
REMARK  status: ('A' for Active; 'I' for Inactive)
REMARK    1  A    between atoms: C_2  and  C_4
REMARK    2  A    between atoms: N_8  and  C_9
REMARK    3  A    between atoms: C_9  and  C_10
REMARK    4  A    between atoms: C_10  and  C_13
REMARK    5  A    between atoms: C_18  and  O_19
REMARK    6  A    between atoms: O_19  and  C_20
REMARK                            x       y       z     vdW  Elec       q    Type
REMARK                         _______ _______ _______ _____ _____    ______ ____
ROOT
ATOM      1  C   UNL     1       6.043   6.381   3.347  0.00  0.00    +0.000 C 
ATOM      2  F   UNL     1       7.297   5.834   3.355  0.00  0.00    +0.000 F 
ATOM      3  F   UNL     1       6.056   7.297   2.335  0.00  0.00    +0.000 F 
ENDROOT
BRANCH   1   4
ATOM      4  C   UNL     1       5.696   7.030   4.681  0.00  0.00    +0.000 A 
ATOM      5  C   UNL     1       6.217   6.534   5.882  0.00  0.00    +0.000 A 
ATOM      6  C   UNL     1       5.934   7.183   7.088  0.00  0.00    +0.000 A 
ATOM      7  C   UNL     1       5.115   8.317   7.106  0.00  0.00    +0.000 A 
ATOM      8  F   UNL     1       4.925   8.939   8.278  0.00  0.00    +0.000 F 
ATOM      9  C   UNL     1       4.541   8.794   5.930  0.00  0.00    +0.000 A 
ATOM     10  C   UNL     1       4.849   8.155   4.721  0.00  0.00    +0.000 A 
BRANCH   9  11
ATOM     11  O   UNL     1       3.716   9.888   5.801  0.00  0.00    +0.000 OA
BRANCH  11  12
ATOM     12  C   UNL     1       2.913  10.323   6.926  0.00  0.00    +0.000 C 
ATOM     13  C   UNL     1       1.769   9.406   7.402  0.00  0.00    +0.000 C 
ATOM     14  N   UNL     1       0.811  10.518   7.314  0.00  0.00    +0.000 NA
ATOM     15  C   UNL     1       1.791  11.334   6.584  0.00  0.00    +0.000 C 
ATOM     16  H   UNL     1       0.539  10.907   8.216  0.00  0.00    +0.000 HD
ENDBRANCH  11  12
ENDBRANCH   9  11
ENDBRANCH   1   4
BRANCH   1  17
ATOM     17  C   UNL     1       5.028   5.264   3.003  0.00  0.00    +0.000 C 
BRANCH  17  22
ATOM     18  C   UNL     1       2.818   1.600   0.248  0.00  0.00    +0.000 A 
ATOM     19  C   UNL     1       2.268   2.507   1.142  0.00  0.00    +0.000 A 
ATOM     20  C   UNL     1       3.073   3.526   1.654  0.00  0.00    +0.000 A 
ATOM     21  C   UNL     1       4.405   3.617   1.277  0.00  0.00    +0.000 A 
ATOM     22  N   UNL     1       5.223   4.663   1.676  0.00  0.00    +0.000 N 
ATOM     23  N   UNL     1       4.964   2.721   0.440  0.00  0.00    +0.000 NA
ATOM     24  C   UNL     1       4.167   1.726  -0.053  0.00  0.00    +0.000 A 
ATOM     25  H   UNL     1       6.185   4.473   1.397  0.00  0.00    +0.000 HD
BRANCH  18  27
ATOM     26  N   UNL     1       0.681   0.774  -0.550  0.00  0.00    +0.000 N 
ATOM     27  C   UNL     1       2.017   0.528  -0.376  0.00  0.00    +0.000 C 
ATOM     28  O   UNL     1       2.527  -0.515  -0.757  0.00  0.00    +0.000 OA
ATOM     29  H   UNL     1       0.158   0.083  -1.074  0.00  0.00    +0.000 HD
ATOM     30  H   UNL     1       0.280   1.697  -0.472  0.00  0.00    +0.000 HD
ENDBRANCH  18  27
ENDBRANCH  17  22
ENDBRANCH   1  17
TORSDOF 6
