REMARK  Name = 
REMARK  5 active torsions:
REMARK  status: ('A' for Active; 'I' for Inactive)
REMARK    1  A    between atoms: N_1  and  C_2
REMARK    2  A    between atoms: C_2  and  C_3
REMARK    3  A    between atoms: C_3  and  C_4
REMARK    4  A    between atoms: C_7  and  C_8
REMARK    5  A    between atoms: C_8  and  N_9
REMARK                            x       y       z     vdW  Elec       q    Type
REMARK                         _______ _______ _______ _____ _____    ______ ____
ROOT
ATOM      1  C   UNL     1       4.675  -0.490   1.416  0.00  0.00    +0.000 A 
ATOM      2  C   UNL     1       5.462   0.668   1.494  0.00  0.00    +0.000 A 
ATOM      3  C   UNL     1       6.862   0.573   1.551  0.00  0.00    +0.000 A 
ATOM      4  C   UNL     1       7.498  -0.678   1.555  0.00  0.00    +0.000 A 
ATOM      5  C   UNL     1       6.712  -1.822   1.496  0.00  0.00    +0.000 A 
ATOM      6  C   UNL     1       5.319  -1.731   1.424  0.00  0.00    +0.000 A 
ENDROOT
BRANCH   1   7
ATOM      7  C   UNL     1       3.165  -0.406   1.387  0.00  0.00    +0.000 C 
BRANCH   7   8
ATOM      8  C   UNL     1       2.592   0.351   0.179  0.00  0.00    +0.000 C 
BRANCH   8   9
ATOM      9  N   UNL     1       1.128   0.363   0.219  0.00  0.00    +0.000 NA
ATOM     10  H   UNL     1       0.771   0.901  -0.571  0.00  0.00    +0.000 HD
ATOM     11  H   UNL     1       0.811   0.846   1.058  0.00  0.00    +0.000 HD
ENDBRANCH   8   9
ENDBRANCH   7   8
ENDBRANCH   1   7
BRANCH   4  12
ATOM     12  C   UNL     1       9.012  -0.779   1.609  0.00  0.00    +0.000 C 
BRANCH  12  13
ATOM     13  N   UNL     1       9.554  -0.850   2.959  0.00  0.00    +0.000 N 
ATOM     14  C   UNL     1       9.471   0.176   3.871  0.00  0.00    +0.000 A 
ATOM     15  C   UNL     1      10.162  -0.195   4.999  0.00  0.00    +0.000 A 
ATOM     16  C   UNL     1      10.954  -1.310   4.635  0.00  0.00    +0.000 A 
ATOM     17  C   UNL     1      12.069  -1.934   5.223  0.00  0.00    +0.000 A 
ATOM     18  C   UNL     1      12.631  -3.037   4.586  0.00  0.00    +0.000 A 
ATOM     19  F   UNL     1      13.762  -3.565   5.074  0.00  0.00    +0.000 F 
ATOM     20  C   UNL     1      12.058  -3.588   3.450  0.00  0.00    +0.000 A 
ATOM     21  C   UNL     1      10.947  -2.984   2.850  0.00  0.00    +0.000 A 
ATOM     22  C   UNL     1      10.458  -1.792   3.416  0.00  0.00    +0.000 A 
ENDBRANCH  12  13
ENDBRANCH   4  12
TORSDOF 5
