REMARK  Name = 
REMARK  6 active torsions:
REMARK  status: ('A' for Active; 'I' for Inactive)
REMARK    1  A    between atoms: C_2  and  C_3
REMARK    2  A    between atoms: C_6  and  C_7
REMARK    3  A    between atoms: C_7  and  N_8
REMARK    4  A    between atoms: C_11  and  C_12
REMARK    5  A    between atoms: C_12  and  N_13
REMARK    6  A    between atoms: C_14  and  C_16
REMARK                            x       y       z     vdW  Elec       q    Type
REMARK                         _______ _______ _______ _____ _____    ______ ____
ROOT
ATOM      1  C   UNL     1       6.244  -4.163   1.868  0.00  0.00    +0.000 C 
ENDROOT
BRANCH   1   5
ATOM      2  N   UNL     1       4.351  -1.440   0.247  0.00  0.00    +0.000 N 
ATOM      3  C   UNL     1       4.308  -2.382  -0.749  0.00  0.00    +0.000 A 
ATOM      4  C   UNL     1       4.966  -3.505  -0.300  0.00  0.00    +0.000 A 
ATOM      5  C   UNL     1       5.468  -3.228   1.003  0.00  0.00    +0.000 A 
ATOM      6  C   UNL     1       5.074  -1.934   1.304  0.00  0.00    +0.000 A 
BRANCH   2   7
ATOM      7  C   UNL     1       3.796  -0.095   0.155  0.00  0.00    +0.000 C 
BRANCH   7  11
ATOM      8  C   UNL     1      -0.351   0.052   1.388  0.00  0.00    +0.000 A 
ATOM      9  C   UNL     1       0.667   0.275   2.317  0.00  0.00    +0.000 A 
ATOM     10  C   UNL     1       2.009   0.223   1.920  0.00  0.00    +0.000 A 
ATOM     11  C   UNL     1       2.348  -0.045   0.585  0.00  0.00    +0.000 A 
ATOM     12  C   UNL     1       1.318  -0.268  -0.342  0.00  0.00    +0.000 A 
ATOM     13  C   UNL     1      -0.023  -0.219   0.055  0.00  0.00    +0.000 A 
BRANCH   8  15
ATOM     14  N   UNL     1      -2.833   0.129   2.139  0.00  0.00    +0.000 NA
ATOM     15  C   UNL     1      -1.725   0.096   1.801  0.00  0.00    +0.000 C 
ENDBRANCH   8  15
ENDBRANCH   7  11
ENDBRANCH   2   7
ENDBRANCH   1   5
BRANCH   1  16
ATOM     16  N   UNL     1       5.310  -4.941   2.638  0.00  0.00    +0.000 N 
ATOM     17  C   UNL     1       5.737  -5.927   3.488  0.00  0.00    +0.000 C 
ATOM     18  O   UNL     1       6.914  -6.276   3.544  0.00  0.00    +0.000 OA
ATOM     19  H   UNL     1       4.366  -4.577   2.718  0.00  0.00    +0.000 HD
BRANCH  17  20
ATOM     20  C   UNL     1       4.712  -6.564   4.321  0.00  0.00    +0.000 A 
ATOM     21  C   UNL     1       4.907  -7.855   4.793  0.00  0.00    +0.000 A 
ATOM     22  S   UNL     1       3.658  -8.405   5.816  0.00  0.00    +0.000 S 
ATOM     23  C   UNL     1       2.839  -6.917   5.704  0.00  0.00    +0.000 A 
ATOM     24  N   UNL     1       1.716  -6.680   6.433  0.00  0.00    +0.000 NA
ATOM     25  C   UNL     1       1.211  -5.503   6.266  0.00  0.00    +0.000 A 
ATOM     26  N   UNL     1       1.708  -4.554   5.411  0.00  0.00    +0.000 N 
ATOM     27  C   UNL     1       2.808  -4.771   4.615  0.00  0.00    +0.000 A 
ATOM     28  O   UNL     1       3.161  -3.940   3.784  0.00  0.00    +0.000 OA
ATOM     29  C   UNL     1       3.461  -6.048   4.826  0.00  0.00    +0.000 A 
ATOM     30  H   UNL     1       1.234  -3.673   5.284  0.00  0.00    +0.000 HD
ENDBRANCH  17  20
ENDBRANCH   1  16
TORSDOF 6
