REMARK  Name = 
REMARK  7 active torsions:
REMARK  status: ('A' for Active; 'I' for Inactive)
REMARK    1  A    between atoms: N_1  and  C_2
REMARK    2  A    between atoms: C_2  and  C_3
REMARK    3  A    between atoms: C_3  and  C_4
REMARK    4  A    between atoms: C_7  and  C_8
REMARK    5  A    between atoms: C_8  and  O_9
REMARK    6  A    between atoms: O_9  and  C_10
REMARK    7  A    between atoms: C_13  and  C_14
REMARK                            x       y       z     vdW  Elec       q    Type
REMARK                         _______ _______ _______ _____ _____    ______ ____
ROOT
ATOM      1  O   UNL     1       9.205   1.718  -1.281  0.00  0.00    +0.000 OA
ENDROOT
BRANCH   1   2
ATOM      2  C   UNL     1      10.560   1.920  -1.305  0.00  0.00    +0.000 A 
ATOM      3  C   UNL     1      11.534   0.926  -1.419  0.00  0.00    +0.000 A 
ATOM      4  C   UNL     1      12.894   1.265  -1.429  0.00  0.00    +0.000 A 
ATOM      5  C   UNL     1      13.299   2.602  -1.328  0.00  0.00    +0.000 A 
ATOM      6  C   UNL     1      12.317   3.587  -1.216  0.00  0.00    +0.000 A 
ATOM      7  F   UNL     1      12.646   4.886  -1.117  0.00  0.00    +0.000 F 
ATOM      8  C   UNL     1      10.961   3.253  -1.204  0.00  0.00    +0.000 A 
BRANCH   5   9
ATOM      9  C   UNL     1      14.756   2.897  -1.344  0.00  0.00    +0.000 C 
ATOM     10  N   UNL     1      15.155   4.198  -1.250  0.00  0.00    +0.000 N 
ATOM     11  O   UNL     1      15.585   2.000  -1.441  0.00  0.00    +0.000 OA
ATOM     12  H   UNL     1      14.506   4.973  -1.170  0.00  0.00    +0.000 HD
ATOM     13  H   UNL     1      16.147   4.394  -1.260  0.00  0.00    +0.000 HD
ENDBRANCH   5   9
ENDBRANCH   1   2
BRANCH   1  14
ATOM     14  C   UNL     1       8.755   0.371  -1.423  0.00  0.00    +0.000 C 
BRANCH  14  18
ATOM     15  C   UNL     1       4.425   0.203  -1.298  0.00  0.00    +0.000 A 
ATOM     16  C   UNL     1       5.096   0.408  -2.511  0.00  0.00    +0.000 A 
ATOM     17  C   UNL     1       6.492   0.478  -2.549  0.00  0.00    +0.000 A 
ATOM     18  C   UNL     1       7.246   0.327  -1.378  0.00  0.00    +0.000 A 
ATOM     19  C   UNL     1       6.574   0.131  -0.165  0.00  0.00    +0.000 A 
ATOM     20  C   UNL     1       5.178   0.061  -0.126  0.00  0.00    +0.000 A 
BRANCH  15  21
ATOM     21  C   UNL     1       2.916   0.145  -1.255  0.00  0.00    +0.000 C 
BRANCH  21  22
ATOM     22  C   UNL     1       2.372  -1.272  -1.467  0.00  0.00    +0.000 C 
BRANCH  22  23
ATOM     23  N   UNL     1       0.908  -1.277  -1.449  0.00  0.00    +0.000 NA
ATOM     24  H   UNL     1       0.572  -2.225  -1.614  0.00  0.00    +0.000 HD
ATOM     25  H   UNL     1       0.555  -0.713  -2.221  0.00  0.00    +0.000 HD
ENDBRANCH  22  23
ENDBRANCH  21  22
ENDBRANCH  15  21
ENDBRANCH  14  18
ENDBRANCH   1  14
TORSDOF 7
