REMARK  Name = 
REMARK  6 active torsions:
REMARK  status: ('A' for Active; 'I' for Inactive)
REMARK    1  A    between atoms: C_2  and  C_3
REMARK    2  A    between atoms: C_6  and  N_7
REMARK    3  A    between atoms: N_7  and  C_8
REMARK    4  A    between atoms: C_8  and  C_9
REMARK    5  A    between atoms: C_17  and  C_18
REMARK    6  A    between atoms: C_18  and  O_19
REMARK                            x       y       z     vdW  Elec       q    Type
REMARK                         _______ _______ _______ _____ _____    ______ ____
ROOT
ATOM      1  C   UNL     1       6.032  -0.963   0.299  0.00  0.00    +0.000 A 
ATOM      2  C   UNL     1       6.900  -2.052   0.335  0.00  0.00    +0.000 A 
ATOM      3  C   UNL     1       8.257  -1.806   0.440  0.00  0.00    +0.000 A 
ATOM      4  N   UNL     1       8.798  -0.571   0.508  0.00  0.00    +0.000 NA
ATOM      5  C   UNL     1       7.971   0.492   0.455  0.00  0.00    +0.000 A 
ATOM      6  N   UNL     1       8.480   1.787   0.632  0.00  0.00    +0.000 N 
ATOM      7  C   UNL     1       9.795   1.824   1.284  0.00  0.00    +0.000 C 
ATOM      8  C   UNL     1      10.008   3.245   1.812  0.00  0.00    +0.000 C 
ATOM      9  C   UNL     1       9.886   4.307   0.702  0.00  0.00    +0.000 C 
ATOM     10  C   UNL     1       8.601   4.091  -0.120  0.00  0.00    +0.000 C 
ATOM     11  C   UNL     1       8.407   2.635  -0.561  0.00  0.00    +0.000 C 
ATOM     12  C   UNL     1       6.587   0.324   0.335  0.00  0.00    +0.000 A 
ENDROOT
BRANCH   1  13
ATOM     13  C   UNL     1       4.539  -1.171   0.252  0.00  0.00    +0.000 C 
BRANCH  13  14
ATOM     14  N   UNL     1       4.103  -1.329  -1.125  0.00  0.00    +0.000 N 
ATOM     15  H   UNL     1       4.557  -0.693  -1.777  0.00  0.00    +0.000 HD
BRANCH  14  19
ATOM     16  C   UNL     1       0.136  -2.289  -2.215  0.00  0.00    +0.000 A 
ATOM     17  C   UNL     1       0.459  -2.131  -0.868  0.00  0.00    +0.000 A 
ATOM     18  C   UNL     1       1.765  -1.795  -0.487  0.00  0.00    +0.000 A 
ATOM     19  C   UNL     1       2.768  -1.576  -1.440  0.00  0.00    +0.000 A 
ATOM     20  C   UNL     1       2.426  -1.750  -2.789  0.00  0.00    +0.000 A 
ATOM     21  C   UNL     1       1.128  -2.103  -3.179  0.00  0.00    +0.000 A 
BRANCH  16  23
ATOM     22  N   UNL     1      -2.274  -2.940  -2.917  0.00  0.00    +0.000 NA
ATOM     23  C   UNL     1      -1.196  -2.648  -2.605  0.00  0.00    +0.000 C 
ENDBRANCH  16  23
ENDBRANCH  14  19
ENDBRANCH  13  14
ENDBRANCH   1  13
BRANCH   9  24
ATOM     24  C   UNL     1      11.126   4.346  -0.198  0.00  0.00    +0.000 C 
BRANCH  24  25
ATOM     25  O   UNL     1      12.290   4.639   0.566  0.00  0.00    +0.000 OA
ATOM     26  H   UNL     1      12.144   5.490   1.013  0.00  0.00    +0.000 HD
ENDBRANCH  24  25
ENDBRANCH   9  24
TORSDOF 6
