REMARK  Name = 
REMARK  8 active torsions:
REMARK  status: ('A' for Active; 'I' for Inactive)
REMARK    1  A    between atoms: C_1  and  C_2
REMARK    2  A    between atoms: C_4  and  C_5
REMARK    3  A    between atoms: C_10  and  N_11
REMARK    4  A    between atoms: N_11  and  C_12
REMARK    5  A    between atoms: N_11  and  C_13
REMARK    6  A    between atoms: C_13  and  C_14
REMARK    7  A    between atoms: C_17  and  O_18
REMARK    8  A    between atoms: O_18  and  C_19
REMARK                            x       y       z     vdW  Elec       q    Type
REMARK                         _______ _______ _______ _____ _____    ______ ____
ROOT
ATOM      1  N   UNL     1       0.882  -2.178   0.141  0.00  0.00    +0.000 N 
ATOM      2  C   UNL     1      -0.073  -3.302   0.175  0.00  0.00    +0.000 C 
ENDROOT
BRANCH   1   9
ATOM      3  C   UNL     1       2.393   0.562  -0.098  0.00  0.00    +0.000 C 
ATOM      4  C   UNL     1       0.918   0.341  -0.019  0.00  0.00    +0.000 A 
ATOM      5  C   UNL     1       0.133   1.527  -0.029  0.00  0.00    +0.000 A 
ATOM      6  C   UNL     1      -1.257   1.492   0.007  0.00  0.00    +0.000 A 
ATOM      7  C   UNL     1      -1.817   0.244   0.053  0.00  0.00    +0.000 A 
ATOM      8  N   UNL     1      -1.093  -0.902   0.075  0.00  0.00    +0.000 NA
ATOM      9  C   UNL     1       0.274  -0.903   0.049  0.00  0.00    +0.000 A 
BRANCH   6  10
ATOM     10  C   UNL     1      -2.029   2.758  -0.006  0.00  0.00    +0.000 C 
ATOM     11  N   UNL     1      -3.396   2.706   0.015  0.00  0.00    +0.000 N 
ATOM     12  O   UNL     1      -1.462   3.847  -0.029  0.00  0.00    +0.000 OA
ATOM     13  H   UNL     1      -3.963   1.874   0.031  0.00  0.00    +0.000 HD
ATOM     14  H   UNL     1      -3.879   3.597   0.002  0.00  0.00    +0.000 HD
ENDBRANCH   6  10
ENDBRANCH   1   9
BRANCH   1  15
ATOM     15  C   UNL     1       2.321  -2.587  -0.035  0.00  0.00    +0.000 C 
ATOM     16  C   UNL     1       2.801  -3.664   0.973  0.00  0.00    +0.000 C 
ATOM     17  C   UNL     1       3.412  -2.316   1.004  0.00  0.00    +0.000 C 
BRANCH  15  18
ATOM     18  C   UNL     1       2.812  -2.847  -1.487  0.00  0.00    +0.000 A 
ATOM     19  C   UNL     1       3.869  -2.106  -2.053  0.00  0.00    +0.000 A 
ATOM     20  C   UNL     1       4.469  -2.454  -3.270  0.00  0.00    +0.000 A 
ATOM     21  C   UNL     1       4.046  -3.588  -3.949  0.00  0.00    +0.000 A 
ATOM     22  C   UNL     1       2.944  -4.287  -3.468  0.00  0.00    +0.000 A 
ATOM     23  C   UNL     1       2.348  -3.930  -2.251  0.00  0.00    +0.000 A 
BRANCH  21  24
ATOM     24  O   UNL     1       4.602  -4.082  -5.088  0.00  0.00    +0.000 OA
BRANCH  24  25
ATOM     25  C   UNL     1       6.011  -3.976  -5.254  0.00  0.00    +0.000 C 
ATOM     26  F   UNL     1       6.674  -3.563  -4.153  0.00  0.00    +0.000 F 
ATOM     27  F   UNL     1       6.498  -5.192  -5.591  0.00  0.00    +0.000 F 
ATOM     28  F   UNL     1       6.276  -3.123  -6.267  0.00  0.00    +0.000 F 
ENDBRANCH  24  25
ENDBRANCH  21  24
ENDBRANCH  15  18
ENDBRANCH   1  15
TORSDOF 6
