REMARK  Name = 
REMARK  6 active torsions:
REMARK  status: ('A' for Active; 'I' for Inactive)
REMARK    1  A    between atoms: C_2  and  C_3
REMARK    2  A    between atoms: N_7  and  C_8
REMARK    3  A    between atoms: C_8  and  C_9
REMARK    4  A    between atoms: C_9  and  C_12
REMARK    5  A    between atoms: C_16  and  O_17
REMARK    6  A    between atoms: O_17  and  C_18
REMARK                            x       y       z     vdW  Elec       q    Type
REMARK                         _______ _______ _______ _____ _____    ______ ____
ROOT
ATOM      1  C   UNL     1      -5.872   1.123  -0.344  0.00  0.00    +0.000 C 
ATOM      2  F   UNL     1      -4.788   1.206  -1.169  0.00  0.00    +0.000 F 
ATOM      3  F   UNL     1      -6.620   0.089  -0.832  0.00  0.00    +0.000 F 
ENDROOT
BRANCH   1   4
ATOM      4  C   UNL     1      -6.658   2.422  -0.292  0.00  0.00    +0.000 A 
ATOM      5  C   UNL     1      -8.044   2.412  -0.087  0.00  0.00    +0.000 A 
ATOM      6  C   UNL     1      -8.748   3.611   0.036  0.00  0.00    +0.000 A 
ATOM      7  C   UNL     1      -8.081   4.838  -0.048  0.00  0.00    +0.000 A 
ATOM      8  C   UNL     1      -6.707   4.860  -0.265  0.00  0.00    +0.000 A 
ATOM      9  C   UNL     1      -6.000   3.659  -0.383  0.00  0.00    +0.000 A 
BRANCH   8  10
ATOM     10  O   UNL     1      -5.933   5.991  -0.324  0.00  0.00    +0.000 OA
BRANCH  10  11
ATOM     11  C   UNL     1      -6.547   7.263  -0.632  0.00  0.00    +0.000 C 
ATOM     12  C   UNL     1      -7.043   7.501  -2.075  0.00  0.00    +0.000 C 
ATOM     13  N   UNL     1      -6.375   8.818  -2.087  0.00  0.00    +0.000 NA
ATOM     14  C   UNL     1      -5.543   8.397  -0.944  0.00  0.00    +0.000 C 
ATOM     15  H   UNL     1      -6.993   9.601  -1.877  0.00  0.00    +0.000 HD
ENDBRANCH  10  11
ENDBRANCH   8  10
ENDBRANCH   1   4
BRANCH   1  16
ATOM     16  C   UNL     1      -5.387   0.755   1.082  0.00  0.00    +0.000 C 
BRANCH  16  21
ATOM     17  C   UNL     1      -3.218  -2.279   4.622  0.00  0.00    +0.000 A 
ATOM     18  C   UNL     1      -3.804  -1.026   4.723  0.00  0.00    +0.000 A 
ATOM     19  C   UNL     1      -4.311  -0.415   3.572  0.00  0.00    +0.000 A 
ATOM     20  C   UNL     1      -4.222  -1.063   2.344  0.00  0.00    +0.000 A 
ATOM     21  N   UNL     1      -4.676  -0.516   1.174  0.00  0.00    +0.000 N 
ATOM     22  N   UNL     1      -3.661  -2.282   2.242  0.00  0.00    +0.000 NA
ATOM     23  C   UNL     1      -3.173  -2.865   3.369  0.00  0.00    +0.000 A 
ATOM     24  H   UNL     1      -4.567  -1.101   0.351  0.00  0.00    +0.000 HD
BRANCH  17  26
ATOM     25  N   UNL     1      -2.242  -3.470   6.702  0.00  0.00    +0.000 NA
ATOM     26  C   UNL     1      -2.679  -2.942   5.765  0.00  0.00    +0.000 C 
ENDBRANCH  17  26
ENDBRANCH  16  21
ENDBRANCH   1  16
TORSDOF 6
