REMARK  Name = 
REMARK  4 active torsions:
REMARK  status: ('A' for Active; 'I' for Inactive)
REMARK    1  A    between atoms: C_1  and  C_2
REMARK    2  A    between atoms: C_4  and  C_5
REMARK    3  A    between atoms: N_12  and  C_13
REMARK    4  A    between atoms: C_13  and  C_14
REMARK                            x       y       z     vdW  Elec       q    Type
REMARK                         _______ _______ _______ _____ _____    ______ ____
ROOT
ATOM      1  C   UNL     1       1.122  -0.516  -0.319  0.00  0.00    +0.000 C 
ATOM      2  C   UNL     1       2.596  -0.249  -0.169  0.00  0.00    +0.000 A 
ATOM      3  C   UNL     1       3.437  -1.387  -0.083  0.00  0.00    +0.000 A 
ATOM      4  C   UNL     1       4.826  -1.308   0.032  0.00  0.00    +0.000 A 
ATOM      5  C   UNL     1       5.426  -0.050   0.065  0.00  0.00    +0.000 A 
ATOM      6  C   UNL     1       4.628   1.116   0.010  0.00  0.00    +0.000 A 
ATOM      7  C   UNL     1       4.977   2.492   0.033  0.00  0.00    +0.000 A 
ATOM      8  C   UNL     1       3.814   3.214  -0.012  0.00  0.00    +0.000 A 
ATOM      9  N   UNL     1       2.755   2.331  -0.059  0.00  0.00    +0.000 N 
ATOM     10  C   UNL     1       3.226   1.020  -0.084  0.00  0.00    +0.000 A 
ENDROOT
BRANCH   4  11
ATOM     11  C   UNL     1       5.586  -2.592   0.114  0.00  0.00    +0.000 C 
ATOM     12  N   UNL     1       6.949  -2.549   0.202  0.00  0.00    +0.000 N 
ATOM     13  O   UNL     1       5.017  -3.678   0.103  0.00  0.00    +0.000 OA
ATOM     14  H   UNL     1       7.509  -1.712   0.202  0.00  0.00    +0.000 HD
ATOM     15  H   UNL     1       7.431  -3.437   0.251  0.00  0.00    +0.000 HD
ENDBRANCH   4  11
BRANCH   9  16
ATOM     16  C   UNL     1       1.375   2.808   0.053  0.00  0.00    +0.000 C 
BRANCH  16  17
ATOM     17  C   UNL     1       0.767   3.320  -1.219  0.00  0.00    +0.000 A 
ATOM     18  C   UNL     1       1.312   3.201  -2.484  0.00  0.00    +0.000 A 
ATOM     19  N   UNL     1       0.768   3.729  -3.595  0.00  0.00    +0.000 NA
ATOM     20  C   UNL     1      -0.378   4.402  -3.426  0.00  0.00    +0.000 A 
ATOM     21  N   UNL     1      -1.025   4.564  -2.265  0.00  0.00    +0.000 NA
ATOM     22  C   UNL     1      -0.432   4.011  -1.187  0.00  0.00    +0.000 A 
ENDBRANCH  16  17
ENDBRANCH   9  16
TORSDOF 3
