REMARK  Name = 
REMARK  4 active torsions:
REMARK  status: ('A' for Active; 'I' for Inactive)
REMARK    1  A    between atoms: C_2  and  C_4
REMARK    2  A    between atoms: N_8  and  C_9
REMARK    3  A    between atoms: C_9  and  C_10
REMARK    4  A    between atoms: C_14  and  C_15
REMARK                            x       y       z     vdW  Elec       q    Type
REMARK                         _______ _______ _______ _____ _____    ______ ____
ROOT
ATOM      1  C   UNL     1       4.925   5.123  -2.924  0.00  0.00    +0.000 C 
ENDROOT
BRANCH   1   6
ATOM      2  C   UNL     1       0.524   3.313  -1.340  0.00  0.00    +0.000 A 
ATOM      3  N   UNL     1       1.635   3.532  -0.601  0.00  0.00    +0.000 NA
ATOM      4  C   UNL     1       2.617   4.192  -1.265  0.00  0.00    +0.000 A 
ATOM      5  C   UNL     1       2.546   4.608  -2.589  0.00  0.00    +0.000 A 
ATOM      6  N   UNL     1       3.526   5.336  -3.245  0.00  0.00    +0.000 N 
ATOM      7  N   UNL     1       1.407   4.345  -3.254  0.00  0.00    +0.000 NA
ATOM      8  N   UNL     1       0.371   3.685  -2.626  0.00  0.00    +0.000 NA
ATOM      9  H   UNL     1       3.306   5.388  -4.235  0.00  0.00    +0.000 HD
BRANCH   2  11
ATOM     10  N   UNL     1      -0.427   2.276   0.657  0.00  0.00    +0.000 N 
ATOM     11  C   UNL     1      -0.622   2.612  -0.665  0.00  0.00    +0.000 C 
ATOM     12  O   UNL     1      -1.679   2.341  -1.224  0.00  0.00    +0.000 OA
ATOM     13  H   UNL     1      -1.173   1.817   1.160  0.00  0.00    +0.000 HD
ATOM     14  H   UNL     1       0.438   2.512   1.129  0.00  0.00    +0.000 HD
ENDBRANCH   2  11
ENDBRANCH   1   6
BRANCH   1  15
ATOM     15  C   UNL     1       5.793   6.019  -3.770  0.00  0.00    +0.000 A 
ATOM     16  C   UNL     1       6.812   5.502  -4.572  0.00  0.00    +0.000 A 
ATOM     17  C   UNL     1       7.590   6.386  -5.301  0.00  0.00    +0.000 A 
ATOM     18  N   UNL     1       7.419   7.724  -5.292  0.00  0.00    +0.000 NA
ATOM     19  C   UNL     1       6.434   8.227  -4.508  0.00  0.00    +0.000 A 
ATOM     20  C   UNL     1       5.619   7.409  -3.733  0.00  0.00    +0.000 A 
BRANCH  19  21
ATOM     21  C   UNL     1       6.276   9.694  -4.511  0.00  0.00    +0.000 C 
ATOM     22  C   UNL     1       6.554  10.427  -5.608  0.00  0.00    +0.000 C 
ATOM     23  C   UNL     1       6.402  11.916  -5.673  0.00  0.00    +0.000 C 
ATOM     24  N   UNL     1       5.690  12.499  -4.530  0.00  0.00    +0.000 NA
ATOM     25  C   UNL     1       6.142  11.884  -3.278  0.00  0.00    +0.000 C 
ATOM     26  C   UNL     1       5.828  10.381  -3.245  0.00  0.00    +0.000 C 
ATOM     27  H   UNL     1       4.696  12.306  -4.650  0.00  0.00    +0.000 HD
ENDBRANCH  19  21
ENDBRANCH   1  15
TORSDOF 4
