REMARK  Name = 
REMARK  6 active torsions:
REMARK  status: ('A' for Active; 'I' for Inactive)
REMARK    1  A    between atoms: C_1  and  C_2
REMARK    2  A    between atoms: C_2  and  C_3
REMARK    3  A    between atoms: C_2  and  C_15
REMARK    4  A    between atoms: C_3  and  N_4
REMARK    5  A    between atoms: N_4  and  C_5
REMARK    6  A    between atoms: C_8  and  C_9
REMARK                            x       y       z     vdW  Elec       q    Type
REMARK                         _______ _______ _______ _____ _____    ______ ____
ROOT
ATOM      1  C   UNL     1       3.490  -2.103  -3.008  0.00  0.00    +0.000 A 
ATOM      2  N   UNL     1       4.144  -1.177  -3.749  0.00  0.00    +0.000 NA
ATOM      3  C   UNL     1       4.728  -1.573  -4.907  0.00  0.00    +0.000 A 
ATOM      4  C   UNL     1       4.710  -2.869  -5.387  0.00  0.00    +0.000 A 
ATOM      5  C   UNL     1       4.052  -3.825  -4.615  0.00  0.00    +0.000 A 
ATOM      6  C   UNL     1       3.441  -3.440  -3.424  0.00  0.00    +0.000 A 
ATOM      7  F   UNL     1       2.795  -4.362  -2.694  0.00  0.00    +0.000 F 
ENDROOT
BRANCH   4   8
ATOM      8  C   UNL     1       5.345  -3.267  -6.664  0.00  0.00    +0.000 C 
ATOM      9  N   UNL     1       5.952  -2.310  -7.434  0.00  0.00    +0.000 N 
ATOM     10  O   UNL     1       5.325  -4.431  -7.040  0.00  0.00    +0.000 OA
ATOM     11  H   UNL     1       6.014  -1.324  -7.235  0.00  0.00    +0.000 HD
ATOM     12  H   UNL     1       6.366  -2.633  -8.300  0.00  0.00    +0.000 HD
ENDBRANCH   4   8
BRANCH   1  13
ATOM     13  N   UNL     1       2.888  -1.712  -1.789  0.00  0.00    +0.000 N 
ATOM     14  H   UNL     1       1.933  -2.063  -1.782  0.00  0.00    +0.000 HD
BRANCH  13  15
ATOM     15  C   UNL     1       2.985  -0.278  -1.567  0.00  0.00    +0.000 C 
BRANCH  15  17
ATOM     16  C   UNL     1       0.848  -0.153  -0.123  0.00  0.00    +0.000 C 
ATOM     17  C   UNL     1       2.316   0.133  -0.281  0.00  0.00    +0.000 C 
BRANCH  17  18
ATOM     18  C   UNL     1       2.869   1.419   0.339  0.00  0.00    +0.000 C 
ATOM     19  C   UNL     1       2.659   1.518   1.862  0.00  0.00    +0.000 C 
ATOM     20  C   UNL     1       3.130   2.861   2.424  0.00  0.00    +0.000 C 
ATOM     21  C   UNL     1       2.473   4.029   1.697  0.00  0.00    +0.000 C 
ATOM     22  C   UNL     1       2.766   3.970   0.204  0.00  0.00    +0.000 C 
ATOM     23  C   UNL     1       2.302   2.649  -0.398  0.00  0.00    +0.000 C 
ENDBRANCH  17  18
ENDBRANCH  15  17
ENDBRANCH  13  15
ENDBRANCH   1  13
TORSDOF 5
