REMARK  Name = 
REMARK  5 active torsions:
REMARK  status: ('A' for Active; 'I' for Inactive)
REMARK    1  A    between atoms: C_1  and  C_2
REMARK    2  A    between atoms: C_2  and  O_3
REMARK    3  A    between atoms: C_2  and  C_13
REMARK    4  A    between atoms: O_3  and  C_4
REMARK    5  A    between atoms: C_7  and  C_8
REMARK                            x       y       z     vdW  Elec       q    Type
REMARK                         _______ _______ _______ _____ _____    ______ ____
ROOT
ATOM      1  C   UNL     1       2.382  -2.136   1.157  0.00  0.00    +0.000 A 
ATOM      2  C   UNL     1       2.170  -3.505   1.009  0.00  0.00    +0.000 A 
ATOM      3  C   UNL     1       1.876  -4.293   2.122  0.00  0.00    +0.000 A 
ATOM      4  C   UNL     1       1.820  -3.677   3.364  0.00  0.00    +0.000 A 
ATOM      5  N   UNL     1       2.036  -2.345   3.555  0.00  0.00    +0.000 NA
ATOM      6  C   UNL     1       2.316  -1.614   2.444  0.00  0.00    +0.000 A 
ENDROOT
BRANCH   4   7
ATOM      7  C   UNL     1       1.526  -4.493   4.586  0.00  0.00    +0.000 C 
ATOM      8  N   UNL     1       1.513  -3.805   5.768  0.00  0.00    +0.000 N 
ATOM      9  O   UNL     1       1.317  -5.700   4.541  0.00  0.00    +0.000 OA
ATOM     10  H   UNL     1       1.714  -2.812   5.771  0.00  0.00    +0.000 HD
ATOM     11  H   UNL     1       1.357  -4.302   6.633  0.00  0.00    +0.000 HD
ENDBRANCH   4   7
BRANCH   1  12
ATOM     12  O   UNL     1       2.660  -1.454   0.006  0.00  0.00    +0.000 OA
BRANCH  12  14
ATOM     13  C   UNL     1       0.861   0.195  -0.054  0.00  0.00    +0.000 C 
ATOM     14  C   UNL     1       2.374  -0.046  -0.041  0.00  0.00    +0.000 C 
BRANCH  14  15
ATOM     15  C   UNL     1       2.944   0.578  -1.305  0.00  0.00    +0.000 A 
ATOM     16  C   UNL     1       3.106  -0.149  -2.481  0.00  0.00    +0.000 A 
ATOM     17  N   UNL     1       3.473   0.420  -3.656  0.00  0.00    +0.000 NA
ATOM     18  C   UNL     1       3.672   1.756  -3.617  0.00  0.00    +0.000 A 
ATOM     19  C   UNL     1       3.531   2.489  -2.454  0.00  0.00    +0.000 A 
ATOM     20  N   UNL     1       3.169   1.922  -1.280  0.00  0.00    +0.000 NA
ENDBRANCH  14  15
ENDBRANCH  12  14
ENDBRANCH   1  12
TORSDOF 4
