REMARK  Name = 
REMARK  8 active torsions:
REMARK  status: ('A' for Active; 'I' for Inactive)
REMARK    1  A    between atoms: N_1  and  C_2
REMARK    2  A    between atoms: C_2  and  C_3
REMARK    3  A    between atoms: C_3  and  N_4
REMARK    4  A    between atoms: C_3  and  C_17
REMARK    5  A    between atoms: C_5  and  C_7
REMARK    6  A    between atoms: C_20  and  O_21
REMARK    7  A    between atoms: O_21  and  C_22
REMARK    8  A    between atoms: C_22  and  C_23
REMARK                            x       y       z     vdW  Elec       q    Type
REMARK                         _______ _______ _______ _____ _____    ______ ____
ROOT
ATOM      1  C   UNL     1       2.948   0.581   1.144  0.00  0.00    +0.000 C 
ENDROOT
BRANCH   1   2
ATOM      2  C   UNL     1       4.472   0.584   1.225  0.00  0.00    +0.000 A 
ATOM      3  N   UNL     1       5.142   1.685   0.826  0.00  0.00    +0.000 NA
ATOM      4  C   UNL     1       6.482   1.662   0.988  0.00  0.00    +0.000 A 
ATOM      5  C   UNL     1       7.175   0.606   1.538  0.00  0.00    +0.000 A 
ATOM      6  C   UNL     1       6.404  -0.494   1.841  0.00  0.00    +0.000 A 
ATOM      7  N   UNL     1       5.068  -0.541   1.680  0.00  0.00    +0.000 NA
BRANCH   5   8
ATOM      8  O   UNL     1       8.515   0.742   1.726  0.00  0.00    +0.000 OA
BRANCH   8   9
ATOM      9  C   UNL     1       9.057  -0.097   2.755  0.00  0.00    +0.000 C 
BRANCH   9  10
ATOM     10  C   UNL     1      10.356   0.458   3.288  0.00  0.00    +0.000 A 
ATOM     11  C   UNL     1      11.272   1.096   2.454  0.00  0.00    +0.000 A 
ATOM     12  C   UNL     1      12.458   1.575   3.003  0.00  0.00    +0.000 A 
ATOM     13  C   UNL     1      12.705   1.397   4.358  0.00  0.00    +0.000 A 
ATOM     14  C   UNL     1      11.754   0.736   5.114  0.00  0.00    +0.000 A 
ATOM     15  N   UNL     1      10.595   0.260   4.611  0.00  0.00    +0.000 NA
ENDBRANCH   9  10
ENDBRANCH   8   9
ENDBRANCH   5   8
ENDBRANCH   1   2
BRANCH   1  16
ATOM     16  N   UNL     1       2.399  -0.166   2.284  0.00  0.00    +0.000 N 
ATOM     17  C   UNL     1       1.156   0.049   2.803  0.00  0.00    +0.000 C 
ATOM     18  O   UNL     1       0.350   0.810   2.276  0.00  0.00    +0.000 OA
ATOM     19  H   UNL     1       3.077  -0.737   2.783  0.00  0.00    +0.000 HD
BRANCH  17  20
ATOM     20  C   UNL     1       0.814  -0.708   4.017  0.00  0.00    +0.000 A 
ATOM     21  C   UNL     1      -0.516  -0.963   4.323  0.00  0.00    +0.000 A 
ATOM     22  S   UNL     1      -0.731  -1.813   5.787  0.00  0.00    +0.000 S 
ATOM     23  C   UNL     1       0.943  -1.834   6.085  0.00  0.00    +0.000 A 
ATOM     24  N   UNL     1       1.447  -2.374   7.229  0.00  0.00    +0.000 NA
ATOM     25  C   UNL     1       2.730  -2.289   7.342  0.00  0.00    +0.000 A 
ATOM     26  N   UNL     1       3.561  -1.732   6.405  0.00  0.00    +0.000 N 
ATOM     27  C   UNL     1       3.102  -1.229   5.214  0.00  0.00    +0.000 A 
ATOM     28  O   UNL     1       3.885  -0.833   4.359  0.00  0.00    +0.000 OA
ATOM     29  C   UNL     1       1.660  -1.247   5.059  0.00  0.00    +0.000 A 
ATOM     30  H   UNL     1       4.561  -1.726   6.535  0.00  0.00    +0.000 HD
ENDBRANCH  17  20
ENDBRANCH   1  16
BRANCH   1  31
ATOM     31  C   UNL     1       2.515  -0.049  -0.204  0.00  0.00    +0.000 C 
BRANCH  31  32
ATOM     32  N   UNL     1       2.973   0.659  -1.411  0.00  0.00    +0.000 NA
ATOM     33  H   UNL     1       2.927   0.028  -2.210  0.00  0.00    +0.000 HD
ATOM     34  H   UNL     1       3.957   0.919  -1.307  0.00  0.00    +0.000 HD
ENDBRANCH  31  32
ENDBRANCH   1  31
TORSDOF 8
