REMARK  Name = 
REMARK  9 active torsions:
REMARK  status: ('A' for Active; 'I' for Inactive)
REMARK    1  A    between atoms: C_1  and  C_2
REMARK    2  A    between atoms: C_2  and  C_3
REMARK    3  A    between atoms: C_2  and  C_26
REMARK    4  A    between atoms: C_3  and  C_4
REMARK    5  A    between atoms: C_7  and  C_8
REMARK    6  A    between atoms: C_8  and  O_9
REMARK    7  A    between atoms: C_8  and  C_10
REMARK    8  A    between atoms: C_10  and  N_11
REMARK    9  A    between atoms: C_12  and  C_14
REMARK                            x       y       z     vdW  Elec       q    Type
REMARK                         _______ _______ _______ _____ _____    ______ ____
ROOT
ATOM      1  C   UNL     1      -0.691  -1.788   5.206  0.00  0.00    +0.000 C 
ENDROOT
BRANCH   1   5
ATOM      2  C   UNL     1      -4.307  -4.157   4.851  0.00  0.00    +0.000 A 
ATOM      3  C   UNL     1      -3.927  -3.572   6.059  0.00  0.00    +0.000 A 
ATOM      4  C   UNL     1      -2.772  -2.799   6.126  0.00  0.00    +0.000 A 
ATOM      5  C   UNL     1      -1.888  -2.704   5.042  0.00  0.00    +0.000 A 
ATOM      6  C   UNL     1      -2.189  -3.437   3.882  0.00  0.00    +0.000 A 
ATOM      7  C   UNL     1      -3.400  -4.141   3.782  0.00  0.00    +0.000 A 
BRANCH   2   8
ATOM      8  C   UNL     1      -5.713  -4.691   4.684  0.00  0.00    +0.000 C 
BRANCH   8  10
ATOM      9  C   UNL     1      -6.671  -2.374   4.036  0.00  0.00    +0.000 C 
ATOM     10  C   UNL     1      -6.812  -3.616   4.932  0.00  0.00    +0.000 C 
BRANCH  10  11
ATOM     11  C   UNL     1      -8.187  -4.230   4.757  0.00  0.00    +0.000 A 
ATOM     12  C   UNL     1      -9.130  -4.209   5.777  0.00  0.00    +0.000 A 
ATOM     13  C   UNL     1     -10.360  -4.832   5.575  0.00  0.00    +0.000 A 
ATOM     14  C   UNL     1     -10.583  -5.437   4.353  0.00  0.00    +0.000 A 
ATOM     15  N   UNL     1      -9.669  -5.429   3.366  0.00  0.00    +0.000 NA
ATOM     16  N   UNL     1      -8.464  -4.822   3.569  0.00  0.00    +0.000 NA
ENDBRANCH  10  11
ENDBRANCH   8  10
ENDBRANCH   2   8
ENDBRANCH   1   5
BRANCH   1  17
ATOM     17  O   UNL     1      -1.083  -0.452   4.858  0.00  0.00    +0.000 OA
ATOM     18  H   UNL     1      -1.379  -0.457   3.934  0.00  0.00    +0.000 HD
ENDBRANCH   1  17
BRANCH   1  19
ATOM     19  C   UNL     1       0.569  -2.186   4.422  0.00  0.00    +0.000 C 
BRANCH  19  20
ATOM     20  N   UNL     1       1.720  -1.352   4.752  0.00  0.00    +0.000 N 
ATOM     21  C   UNL     1       2.616  -1.705   5.735  0.00  0.00    +0.000 C 
ATOM     22  O   UNL     1       2.482  -2.733   6.395  0.00  0.00    +0.000 OA
ATOM     23  H   UNL     1       1.656  -0.369   4.498  0.00  0.00    +0.000 HD
BRANCH  21  24
ATOM     24  C   UNL     1       3.792  -0.838   5.904  0.00  0.00    +0.000 A 
ATOM     25  C   UNL     1       4.979  -1.372   6.391  0.00  0.00    +0.000 A 
ATOM     26  S   UNL     1       6.249  -0.237   6.496  0.00  0.00    +0.000 S 
ATOM     27  C   UNL     1       5.250   1.016   5.928  0.00  0.00    +0.000 A 
ATOM     28  N   UNL     1       5.722   2.286   5.794  0.00  0.00    +0.000 NA
ATOM     29  C   UNL     1       4.846   3.137   5.375  0.00  0.00    +0.000 A 
ATOM     30  N   UNL     1       3.539   2.837   5.067  0.00  0.00    +0.000 N 
ATOM     31  C   UNL     1       3.032   1.563   5.174  0.00  0.00    +0.000 A 
ATOM     32  O   UNL     1       1.873   1.315   4.862  0.00  0.00    +0.000 OA
ATOM     33  C   UNL     1       3.971   0.571   5.641  0.00  0.00    +0.000 A 
ATOM     34  H   UNL     1       2.912   3.544   4.734  0.00  0.00    +0.000 HD
ENDBRANCH  21  24
ENDBRANCH  19  20
ENDBRANCH   1  19
TORSDOF 8
