REMARK  Name = 
REMARK  6 active torsions:
REMARK  status: ('A' for Active; 'I' for Inactive)
REMARK    1  A    between atoms: N_1  and  C_2
REMARK    2  A    between atoms: C_2  and  C_3
REMARK    3  A    between atoms: C_3  and  C_4
REMARK    4  A    between atoms: N_7  and  C_8
REMARK    5  A    between atoms: C_8  and  C_9
REMARK    6  A    between atoms: C_14  and  C_15
REMARK                            x       y       z     vdW  Elec       q    Type
REMARK                         _______ _______ _______ _____ _____    ______ ____
ROOT
ATOM      1  C   UNL     1       5.466  -4.525   4.325  0.00  0.00    +0.000 A 
ATOM      2  N   UNL     1       4.567  -5.485   4.554  0.00  0.00    +0.000 NA
ATOM      3  S   UNL     1       5.326  -6.947   4.566  0.00  0.00    +0.000 S 
ATOM      4  C   UNL     1       6.906  -6.348   4.259  0.00  0.00    +0.000 A 
ATOM      5  C   UNL     1       8.103  -7.064   4.064  0.00  0.00    +0.000 A 
ATOM      6  C   UNL     1       9.277  -6.341   3.810  0.00  0.00    +0.000 A 
ATOM      7  C   UNL     1       9.245  -4.943   3.809  0.00  0.00    +0.000 A 
ATOM      8  C   UNL     1       8.047  -4.246   4.005  0.00  0.00    +0.000 A 
ATOM      9  C   UNL     1       6.843  -4.956   4.210  0.00  0.00    +0.000 A 
ENDROOT
BRANCH   6  10
ATOM     10  C   UNL     1      10.581  -7.002   3.509  0.00  0.00    +0.000 C 
ATOM     11  N   UNL     1      10.628  -8.364   3.431  0.00  0.00    +0.000 N 
ATOM     12  O   UNL     1      11.598  -6.346   3.310  0.00  0.00    +0.000 OA
ATOM     13  H   UNL     1       9.843  -8.987   3.525  0.00  0.00    +0.000 HD
ATOM     14  H   UNL     1      11.520  -8.770   3.174  0.00  0.00    +0.000 HD
ENDBRANCH   6  10
BRANCH   1  15
ATOM     15  C   UNL     1       4.965  -3.114   4.151  0.00  0.00    +0.000 C 
BRANCH  15  19
ATOM     16  C   UNL     1       4.501  -1.340   0.227  0.00  0.00    +0.000 C 
ATOM     17  C   UNL     1       4.976  -2.795   0.345  0.00  0.00    +0.000 C 
ATOM     18  C   UNL     1       4.706  -3.383   1.734  0.00  0.00    +0.000 C 
ATOM     19  N   UNL     1       5.304  -2.570   2.810  0.00  0.00    +0.000 NA
ATOM     20  C   UNL     1       4.869  -1.166   2.737  0.00  0.00    +0.000 C 
ATOM     21  C   UNL     1       5.153  -0.546   1.367  0.00  0.00    +0.000 C 
BRANCH  16  22
ATOM     22  C   UNL     1       2.957  -1.271   0.207  0.00  0.00    +0.000 C 
BRANCH  22  23
ATOM     23  C   UNL     1       2.404   0.143   0.025  0.00  0.00    +0.000 C 
BRANCH  23  24
ATOM     24  N   UNL     1       0.945   0.105  -0.003  0.00  0.00    +0.000 NA
ATOM     25  H   UNL     1       0.584   1.054  -0.081  0.00  0.00    +0.000 HD
ATOM     26  H   UNL     1       0.592  -0.264   0.880  0.00  0.00    +0.000 HD
ENDBRANCH  23  24
ENDBRANCH  22  23
ENDBRANCH  16  22
ENDBRANCH  15  19
ENDBRANCH   1  15
TORSDOF 6
