REMARK  Name = 
REMARK  8 active torsions:
REMARK  status: ('A' for Active; 'I' for Inactive)
REMARK    1  A    between atoms: C_1  and  O_2
REMARK    2  A    between atoms: O_2  and  C_3
REMARK    3  A    between atoms: C_6  and  C_7
REMARK    4  A    between atoms: C_7  and  C_8
REMARK    5  A    between atoms: C_8  and  C_9
REMARK    6  A    between atoms: C_11  and  C_12
REMARK    7  A    between atoms: C_12  and  O_13
REMARK    8  A    between atoms: C_15  and  C_16
REMARK                            x       y       z     vdW  Elec       q    Type
REMARK                         _______ _______ _______ _____ _____    ______ ____
ROOT
ATOM      1  C   UNL     1       5.467  -3.165   3.426  0.00  0.00    +0.000 C 
ATOM      2  C   UNL     1       6.008  -4.515   2.961  0.00  0.00    +0.000 C 
ATOM      3  C   UNL     1       4.993  -4.471   4.058  0.00  0.00    +0.000 C 
ENDROOT
BRANCH   1   7
ATOM      4  C   UNL     1       2.945  -1.059   0.526  0.00  0.00    +0.000 A 
ATOM      5  C   UNL     1       4.332  -0.942   0.477  0.00  0.00    +0.000 A 
ATOM      6  C   UNL     1       5.129  -1.629   1.405  0.00  0.00    +0.000 A 
ATOM      7  C   UNL     1       4.574  -2.425   2.423  0.00  0.00    +0.000 A 
ATOM      8  C   UNL     1       3.173  -2.504   2.464  0.00  0.00    +0.000 A 
ATOM      9  C   UNL     1       2.374  -1.846   1.523  0.00  0.00    +0.000 A 
BRANCH   4  11
ATOM     10  C   UNL     1       2.585   0.390  -1.322  0.00  0.00    +0.000 C 
ATOM     11  O   UNL     1       2.053  -0.469  -0.323  0.00  0.00    +0.000 OA
ENDBRANCH   4  11
ENDBRANCH   1   7
BRANCH   1  12
ATOM     12  C   UNL     1       6.399  -2.289   4.267  0.00  0.00    +0.000 C 
BRANCH  12  13
ATOM     13  C   UNL     1       5.725  -1.242   5.105  0.00  0.00    +0.000 A 
ATOM     14  S   UNL     1       4.745  -1.693   6.440  0.00  0.00    +0.000 S 
ATOM     15  C   UNL     1       4.397  -0.044   6.738  0.00  0.00    +0.000 A 
ATOM     16  N   UNL     1       4.990   0.816   5.935  0.00  0.00    +0.000 NA
ATOM     17  C   UNL     1       5.762   0.139   5.001  0.00  0.00    +0.000 A 
ATOM     18  C   UNL     1       6.528   0.949   4.016  0.00  0.00    +0.000 C 
BRANCH  15  19
ATOM     19  C   UNL     1       3.459   0.355   7.832  0.00  0.00    +0.000 C 
BRANCH  19  20
ATOM     20  O   UNL     1       2.414   1.137   7.251  0.00  0.00    +0.000 OA
ATOM     21  H   UNL     1       2.852   1.709   6.592  0.00  0.00    +0.000 HD
ENDBRANCH  19  20
ENDBRANCH  15  19
ENDBRANCH  12  13
ENDBRANCH   1  12
TORSDOF 6
