REMARK  Name = 
REMARK  4 active torsions:
REMARK  status: ('A' for Active; 'I' for Inactive)
REMARK    1  A    between atoms: N_1  and  C_2
REMARK    2  A    between atoms: C_2  and  C_3
REMARK    3  A    between atoms: C_7  and  C_8
REMARK    4  A    between atoms: C_8  and  N_9
REMARK                            x       y       z     vdW  Elec       q    Type
REMARK                         _______ _______ _______ _____ _____    ______ ____
ROOT
ATOM      1  C   UNL     1       2.510  -2.057   2.574  0.00  0.00    +0.000 A 
ATOM      2  C   UNL     1       3.226  -2.094   1.382  0.00  0.00    +0.000 A 
ATOM      3  N   UNL     1       4.279  -1.282   1.136  0.00  0.00    +0.000 NA
ATOM      4  C   UNL     1       4.614  -0.442   2.144  0.00  0.00    +0.000 A 
ATOM      5  C   UNL     1       3.921  -0.389   3.350  0.00  0.00    +0.000 A 
ATOM      6  N   UNL     1       2.853  -1.205   3.581  0.00  0.00    +0.000 NA
ENDROOT
BRANCH   1   7
ATOM      7  C   UNL     1       1.382  -3.028   2.818  0.00  0.00    +0.000 C 
BRANCH   7   8
ATOM      8  N   UNL     1       1.847  -4.251   3.476  0.00  0.00    +0.000 NA
ATOM      9  H   UNL     1       1.041  -4.820   3.729  0.00  0.00    +0.000 HD
ATOM     10  H   UNL     1       2.288  -3.980   4.356  0.00  0.00    +0.000 HD
ENDBRANCH   7   8
ENDBRANCH   1   7
BRANCH   5  11
ATOM     11  C   UNL     1       4.388   0.482   4.483  0.00  0.00    +0.000 C 
BRANCH  11  12
ATOM     12  N   UNL     1       4.443   1.889   4.118  0.00  0.00    +0.000 N 
ATOM     13  N   UNL     1       5.582   2.381   3.573  0.00  0.00    +0.000 NA
ATOM     14  C   UNL     1       5.302   3.671   3.376  0.00  0.00    +0.000 A 
ATOM     15  C   UNL     1       4.006   4.024   3.809  0.00  0.00    +0.000 A 
ATOM     16  C   UNL     1       3.237   5.200   3.831  0.00  0.00    +0.000 A 
ATOM     17  C   UNL     1       1.945   5.154   4.366  0.00  0.00    +0.000 A 
ATOM     18  C   UNL     1       1.430   3.964   4.879  0.00  0.00    +0.000 A 
ATOM     19  C   UNL     1       2.180   2.782   4.865  0.00  0.00    +0.000 A 
ATOM     20  C   UNL     1       3.468   2.841   4.312  0.00  0.00    +0.000 A 
ENDBRANCH  11  12
ENDBRANCH   5  11
TORSDOF 4
