REMARK  Name = 
REMARK  8 active torsions:
REMARK  status: ('A' for Active; 'I' for Inactive)
REMARK    1  A    between atoms: C_1  and  C_2
REMARK    2  A    between atoms: C_9  and  C_10
REMARK    3  A    between atoms: C_10  and  O_11
REMARK    4  A    between atoms: O_11  and  C_12
REMARK    5  A    between atoms: C_15  and  C_16
REMARK    6  A    between atoms: C_16  and  C_17
REMARK    7  A    between atoms: C_16  and  O_18
REMARK    8  A    between atoms: C_23  and  C_24
REMARK                            x       y       z     vdW  Elec       q    Type
REMARK                         _______ _______ _______ _____ _____    ______ ____
ROOT
ATOM      1  C   UNL     1      -2.314  -4.400 -14.877  0.00  0.00    +0.000 C 
ATOM      2  C   UNL     1      -2.580  -4.611 -16.365  0.00  0.00    +0.000 C 
ATOM      3  C   UNL     1      -3.972  -4.124 -16.806  0.00  0.00    +0.000 C 
ATOM      4  N   UNL     1      -5.036  -5.060 -16.437  0.00  0.00    +0.000 N 
ATOM      5  C   UNL     1      -5.978  -4.711 -15.487  0.00  0.00    +0.000 A 
ATOM      6  C   UNL     1      -7.235  -5.286 -15.542  0.00  0.00    +0.000 A 
ATOM      7  C   UNL     1      -8.157  -4.893 -14.606  0.00  0.00    +0.000 A 
ATOM      8  N   UNL     1      -7.894  -3.997 -13.645  0.00  0.00    +0.000 NA
ATOM      9  C   UNL     1      -6.656  -3.469 -13.653  0.00  0.00    +0.000 A 
ATOM     10  N   UNL     1      -5.690  -3.780 -14.555  0.00  0.00    +0.000 NA
ATOM     11  C   UNL     1      -4.761  -6.476 -16.717  0.00  0.00    +0.000 C 
ATOM     12  C   UNL     1      -3.343  -6.880 -16.260  0.00  0.00    +0.000 C 
ATOM     13  C   UNL     1      -2.996  -8.272 -16.779  0.00  0.00    +0.000 C 
ATOM     14  O   UNL     1      -2.342  -5.976 -16.759  0.00  0.00    +0.000 OA
ENDROOT
BRANCH   9  15
ATOM     15  C   UNL     1      -6.354  -2.404 -12.611  0.00  0.00    +0.000 C 
BRANCH  15  16
ATOM     16  O   UNL     1      -5.899  -2.996 -11.384  0.00  0.00    +0.000 OA
BRANCH  16  17
ATOM     17  C   UNL     1      -5.660  -2.139 -10.346  0.00  0.00    +0.000 A 
ATOM     18  C   UNL     1      -5.754  -0.752 -10.380  0.00  0.00    +0.000 A 
ATOM     19  C   UNL     1      -5.471  -0.004  -9.234  0.00  0.00    +0.000 A 
ATOM     20  C   UNL     1      -5.096  -0.665  -8.066  0.00  0.00    +0.000 A 
ATOM     21  N   UNL     1      -5.000  -2.018  -8.001  0.00  0.00    +0.000 NA
ATOM     22  C   UNL     1      -5.281  -2.713  -9.136  0.00  0.00    +0.000 A 
BRANCH  20  23
ATOM     23  C   UNL     1      -4.771   0.122  -6.809  0.00  0.00    +0.000 C 
ATOM     24  C   UNL     1      -3.292   0.473  -6.739  0.00  0.00    +0.000 C 
BRANCH  23  25
ATOM     25  O   UNL     1      -5.098  -0.645  -5.647  0.00  0.00    +0.000 OA
ATOM     26  H   UNL     1      -5.150  -1.571  -5.964  0.00  0.00    +0.000 HD
ENDBRANCH  23  25
ENDBRANCH  20  23
ENDBRANCH  16  17
ENDBRANCH  15  16
ENDBRANCH   9  15
TORSDOF 5
