REMARK  Name = 
REMARK  3 active torsions:
REMARK  status: ('A' for Active; 'I' for Inactive)
REMARK    1  A    between atoms: C_2  and  C_4
REMARK    2  A    between atoms: C_8  and  C_9
REMARK    3  A    between atoms: C_9  and  C_10
REMARK                            x       y       z     vdW  Elec       q    Type
REMARK                         _______ _______ _______ _____ _____    ______ ____
ROOT
ATOM      1  C   UNL     1       3.461  -2.965   3.801  0.00  0.00    +0.000 C 
ATOM      2  C   UNL     1       2.621  -1.835   3.197  0.00  0.00    +0.000 C 
ATOM      3  C   UNL     1       3.960  -2.141   2.613  0.00  0.00    +0.000 C 
ENDROOT
BRANCH   1   4
ATOM      4  C   UNL     1       4.120  -2.669   5.148  0.00  0.00    +0.000 A 
ATOM      5  C   UNL     1       5.493  -2.800   5.354  0.00  0.00    +0.000 A 
ATOM      6  C   UNL     1       6.036  -2.312   6.527  0.00  0.00    +0.000 A 
ATOM      7  N   UNL     1       5.315  -1.719   7.502  0.00  0.00    +0.000 NA
ATOM      8  C   UNL     1       3.976  -1.642   7.358  0.00  0.00    +0.000 A 
ATOM      9  N   UNL     1       3.242  -1.069   8.365  0.00  0.00    +0.000 N 
ATOM     10  C   UNL     1       3.814   0.016   9.167  0.00  0.00    +0.000 C 
ATOM     11  C   UNL     1       3.480  -0.214  10.648  0.00  0.00    +0.000 C 
ATOM     12  O   UNL     1       2.065  -0.389  10.854  0.00  0.00    +0.000 OA
ATOM     13  C   UNL     1       1.590  -1.517  10.100  0.00  0.00    +0.000 C 
ATOM     14  C   UNL     1       1.823  -1.329   8.594  0.00  0.00    +0.000 C 
ATOM     15  C   UNL     1       3.370  -2.129   6.203  0.00  0.00    +0.000 A 
ENDBRANCH   1   4
BRANCH   1  20
ATOM     16  C   UNL     1       1.388  -6.205   3.493  0.00  0.00    +0.000 A 
ATOM     17  C   UNL     1       2.358  -7.030   2.944  0.00  0.00    +0.000 A 
ATOM     18  N   UNL     1       3.617  -6.620   2.664  0.00  0.00    +0.000 NA
ATOM     19  C   UNL     1       3.912  -5.332   2.962  0.00  0.00    +0.000 A 
ATOM     20  C   UNL     1       3.030  -4.403   3.525  0.00  0.00    +0.000 A 
ATOM     21  C   UNL     1       1.735  -4.881   3.798  0.00  0.00    +0.000 A 
BRANCH  16  23
ATOM     22  N   UNL     1      -1.016  -5.917   3.702  0.00  0.00    +0.000 N 
ATOM     23  C   UNL     1       0.046  -6.773   3.732  0.00  0.00    +0.000 C 
ATOM     24  O   UNL     1      -0.124  -7.972   3.900  0.00  0.00    +0.000 OA
ATOM     25  H   UNL     1      -1.932  -6.346   3.735  0.00  0.00    +0.000 HD
ATOM     26  H   UNL     1      -0.956  -4.993   3.293  0.00  0.00    +0.000 HD
ENDBRANCH  16  23
ENDBRANCH   1  20
TORSDOF 3
