REMARK  Name = 
REMARK  7 active torsions:
REMARK  status: ('A' for Active; 'I' for Inactive)
REMARK    1  A    between atoms: C_1  and  N_2
REMARK    2  A    between atoms: C_10  and  C_11
REMARK    3  A    between atoms: C_11  and  C_12
REMARK    4  A    between atoms: C_12  and  N_13
REMARK    5  A    between atoms: N_13  and  C_14
REMARK    6  A    between atoms: CA_17  and  C_18
REMARK    7  A    between atoms: C_18  and  OXT_20
REMARK                            x       y       z     vdW  Elec       q    Type
REMARK                         _______ _______ _______ _____ _____    ______ ____
ROOT
ATOM      1  C   UNL     1      -6.446   1.146   0.111  0.00  0.00    +0.000 C 
ENDROOT
BRANCH   1  11
ATOM      2  C   UNL     1       2.096  -1.054  -0.969  0.00  0.00    +0.000 C 
ATOM      3  N   UNL     1       0.934  -0.226  -0.652  0.00  0.00    +0.000 NA
ATOM      4  C   UNL     1      -0.252  -0.668  -1.433  0.00  0.00    +0.000 C 
ATOM      5  C   UNL     1      -1.557   0.088  -1.054  0.00  0.00    +0.000 C 
ATOM      6  N   UNL     1      -1.758  -0.085   0.383  0.00  0.00    +0.000 N 
ATOM      7  C   UNL     1      -3.032  -0.044   0.919  0.00  0.00    +0.000 A 
ATOM      8  C   UNL     1      -3.270  -0.682   2.144  0.00  0.00    +0.000 A 
ATOM      9  N   UNL     1      -4.470  -0.757   2.752  0.00  0.00    +0.000 NA
ATOM     10  C   UNL     1      -5.466  -0.161   2.076  0.00  0.00    +0.000 A 
ATOM     11  C   UNL     1      -5.296   0.478   0.844  0.00  0.00    +0.000 A 
ATOM     12  N   UNL     1      -4.067   0.526   0.251  0.00  0.00    +0.000 NA
ATOM     13  C   UNL     1      -0.651   0.454   1.187  0.00  0.00    +0.000 C 
ATOM     14  C   UNL     1       0.642  -0.296   0.800  0.00  0.00    +0.000 C 
ENDBRANCH   1  11
BRANCH   1  15
ATOM     15  C   UNL     1      -7.794   0.988   0.826  0.00  0.00    +0.000 C 
BRANCH  15  16
ATOM     16  N   UNL     1      -8.926   1.596   0.119  0.00  0.00    +0.000 N 
ATOM     17  H   UNL     1      -8.958   1.334  -0.866  0.00  0.00    +0.000 HD
BRANCH  16  18
ATOM     18  C   UNL     1     -10.184   1.429   0.741  0.00  0.00    +0.000 A 
ATOM     19  C   UNL     1     -10.346   1.359   2.133  0.00  0.00    +0.000 A 
ATOM     20  C   UNL     1     -11.611   1.239   2.706  0.00  0.00    +0.000 A 
ATOM     21  CA  UNL     1     -12.705   1.226   1.861  0.00  0.00    +0.000 A 
ATOM     22  N   UNL     1     -12.628   1.342   0.505  0.00  0.00    +0.000 NA
ATOM     23  C   UNL     1     -11.369   1.460  -0.003  0.00  0.00    +0.000 A 
BRANCH  21  24
ATOM     24  C   UNL     1     -14.075   1.087   2.427  0.00  0.00    +0.000 C 
ATOM     25  O   UNL     1     -14.334   0.979   3.615  0.00  0.00    +0.000 OA
BRANCH  24  26
ATOM     26  OXT UNL     1     -15.004   1.089   1.441  0.00  0.00    +0.000 OA
ATOM     27  HXT UNL     1     -14.538   1.192   0.578  0.00  0.00    +0.000 HD
ENDBRANCH  24  26
ENDBRANCH  21  24
ENDBRANCH  16  18
ENDBRANCH  15  16
ENDBRANCH   1  15
TORSDOF 6
