REMARK  Name = 
REMARK  9 active torsions:
REMARK  status: ('A' for Active; 'I' for Inactive)
REMARK    1  A    between atoms: C_1  and  C_2
REMARK    2  A    between atoms: C_2  and  C_3
REMARK    3  A    between atoms: C_2  and  N_4
REMARK    4  A    between atoms: N_4  and  C_5
REMARK    5  A    between atoms: C_5  and  C_6
REMARK    6  A    between atoms: C_6  and  C_7
REMARK    7  A    between atoms: C_10  and  C_11
REMARK    8  A    between atoms: C_11  and  N_12
REMARK    9  A    between atoms: C_17  and  C_18
REMARK                            x       y       z     vdW  Elec       q    Type
REMARK                         _______ _______ _______ _____ _____    ______ ____
ROOT
ATOM      1  C   UNL     1      10.865  -1.855   2.250  0.00  0.00    +0.000 C 
ENDROOT
BRANCH   1   2
ATOM      2  N   UNL     1      11.556  -0.618   1.916  0.00  0.00    +0.000 N 
ATOM      3  N   UNL     1      12.848  -0.757   1.533  0.00  0.00    +0.000 NA
ATOM      4  N   UNL     1      13.506   0.322   1.922  0.00  0.00    +0.000 NA
ATOM      5  C   UNL     1      12.603   1.204   2.434  0.00  0.00    +0.000 A 
ATOM      6  C   UNL     1      12.809   2.455   3.005  0.00  0.00    +0.000 A 
ATOM      7  C   UNL     1      11.658   3.138   3.365  0.00  0.00    +0.000 A 
ATOM      8  N   UNL     1      10.386   2.664   3.201  0.00  0.00    +0.000 NA
ATOM      9  C   UNL     1      10.201   1.407   2.708  0.00  0.00    +0.000 A 
ATOM     10  C   UNL     1      11.318   0.672   2.343  0.00  0.00    +0.000 A 
BRANCH   7  11
ATOM     11  C   UNL     1      11.818   4.499   3.978  0.00  0.00    +0.000 C 
ATOM     12  N   UNL     1      10.661   5.180   4.237  0.00  0.00    +0.000 N 
ATOM     13  O   UNL     1      12.909   4.987   4.233  0.00  0.00    +0.000 OA
ATOM     14  H   UNL     1       9.764   4.766   4.012  0.00  0.00    +0.000 HD
ATOM     15  H   UNL     1      10.717   6.103   4.649  0.00  0.00    +0.000 HD
ENDBRANCH   7  11
ENDBRANCH   1   2
BRANCH   1  19
ATOM     16  C   UNL     1       6.629  -2.055   1.871  0.00  0.00    +0.000 A 
ATOM     17  C   UNL     1       7.403  -2.032   0.709  0.00  0.00    +0.000 A 
ATOM     18  C   UNL     1       8.794  -1.940   0.801  0.00  0.00    +0.000 A 
ATOM     19  C   UNL     1       9.381  -1.863   2.061  0.00  0.00    +0.000 A 
ATOM     20  N   UNL     1       8.646  -1.903   3.199  0.00  0.00    +0.000 NA
ATOM     21  C   UNL     1       7.308  -2.021   3.083  0.00  0.00    +0.000 A 
BRANCH  16  22
ATOM     22  C   UNL     1       5.120  -2.089   1.837  0.00  0.00    +0.000 C 
BRANCH  22  23
ATOM     23  C   UNL     1       4.535  -0.844   2.530  0.00  0.00    +0.000 C 
BRANCH  23  24
ATOM     24  N   UNL     1       3.071  -0.861   2.572  0.00  0.00    +0.000 NA
ATOM     25  H   UNL     1       2.706  -0.926   1.622  0.00  0.00    +0.000 HD
BRANCH  24  27
ATOM     26  C   UNL     1       0.987   0.279   3.130  0.00  0.00    +0.000 C 
ATOM     27  C   UNL     1       2.514   0.343   3.217  0.00  0.00    +0.000 C 
ATOM     28  C   UNL     1       2.930   0.484   4.685  0.00  0.00    +0.000 C 
ENDBRANCH  24  27
ENDBRANCH  23  24
ENDBRANCH  22  23
ENDBRANCH  16  22
ENDBRANCH   1  19
TORSDOF 7
