REMARK  Name = 
REMARK  9 active torsions:
REMARK  status: ('A' for Active; 'I' for Inactive)
REMARK    1  A    between atoms: C_1  and  O_2
REMARK    2  A    between atoms: O_2  and  C_3
REMARK    3  A    between atoms: C_10  and  C_11
REMARK    4  A    between atoms: N_13  and  C_14
REMARK    5  A    between atoms: C_14  and  C_15
REMARK    6  A    between atoms: C_18  and  C_19
REMARK    7  A    between atoms: C_19  and  N_20
REMARK    8  A    between atoms: N_20  and  C_21
REMARK    9  A    between atoms: C_21  and  C_22
REMARK                            x       y       z     vdW  Elec       q    Type
REMARK                         _______ _______ _______ _____ _____    ______ ____
ROOT
ATOM      1  C   UNL     1       2.913  -1.292   3.177  0.00  0.00    +0.000 C 
ENDROOT
BRANCH   1   2
ATOM      2  C   UNL     1       1.766  -0.353   3.459  0.00  0.00    +0.000 A 
ATOM      3  C   UNL     1       0.499  -0.849   3.794  0.00  0.00    +0.000 A 
ATOM      4  C   UNL     1      -0.564   0.026   4.045  0.00  0.00    +0.000 A 
ATOM      5  C   UNL     1      -0.386   1.415   3.962  0.00  0.00    +0.000 A 
ATOM      6  C   UNL     1       0.873   1.907   3.595  0.00  0.00    +0.000 A 
ATOM      7  C   UNL     1       1.936   1.033   3.341  0.00  0.00    +0.000 A 
BRANCH   5   8
ATOM      8  C   UNL     1      -1.534   2.357   4.249  0.00  0.00    +0.000 C 
BRANCH   8   9
ATOM      9  N   UNL     1      -2.038   2.180   5.611  0.00  0.00    +0.000 NA
ATOM     10  H   UNL     1      -1.274   2.339   6.268  0.00  0.00    +0.000 HD
BRANCH   9  11
ATOM     11  C   UNL     1      -3.125   3.111   5.909  0.00  0.00    +0.000 C 
BRANCH  11  12
ATOM     12  C   UNL     1      -3.615   2.938   7.327  0.00  0.00    +0.000 A 
ATOM     13  C   UNL     1      -3.562   3.991   8.245  0.00  0.00    +0.000 A 
ATOM     14  C   UNL     1      -4.027   3.776   9.534  0.00  0.00    +0.000 A 
ATOM     15  N   UNL     1      -4.539   2.605   9.965  0.00  0.00    +0.000 NA
ATOM     16  C   UNL     1      -4.585   1.600   9.065  0.00  0.00    +0.000 A 
ATOM     17  C   UNL     1      -4.146   1.716   7.756  0.00  0.00    +0.000 A 
ENDBRANCH  11  12
ENDBRANCH   9  11
ENDBRANCH   8   9
ENDBRANCH   5   8
ENDBRANCH   1   2
BRANCH   1  20
ATOM     18  C   UNL     1       3.874  -2.511   1.266  0.00  0.00    +0.000 C 
ATOM     19  O   UNL     1       4.715  -3.048   1.983  0.00  0.00    +0.000 OA
ATOM     20  N   UNL     1       2.960  -1.635   1.778  0.00  0.00    +0.000 N 
ATOM     21  H   UNL     1       2.308  -1.167   1.165  0.00  0.00    +0.000 HD
BRANCH  18  29
ATOM     22  C   UNL     1       1.749  -1.496  -1.247  0.00  0.00    +0.000 A 
ATOM     23  N   UNL     1       1.082  -1.266  -2.395  0.00  0.00    +0.000 NA
ATOM     24  C   UNL     1       1.522  -1.864  -3.506  0.00  0.00    +0.000 A 
ATOM     25  N   UNL     1       2.566  -2.680  -3.617  0.00  0.00    +0.000 NA
ATOM     26  C   UNL     1       3.205  -2.877  -2.452  0.00  0.00    +0.000 A 
ATOM     27  S   UNL     1       4.565  -3.892  -2.405  0.00  0.00    +0.000 S 
ATOM     28  C   UNL     1       4.759  -3.638  -0.736  0.00  0.00    +0.000 A 
ATOM     29  C   UNL     1       3.809  -2.788  -0.181  0.00  0.00    +0.000 A 
ATOM     30  C   UNL     1       2.880  -2.331  -1.214  0.00  0.00    +0.000 A 
BRANCH  22  32
ATOM     31  C   UNL     1      -0.052  -0.468  -0.157  0.00  0.00    +0.000 C 
ATOM     32  O   UNL     1       1.322  -0.846  -0.109  0.00  0.00    +0.000 OA
ENDBRANCH  22  32
ENDBRANCH  18  29
ENDBRANCH   1  20
TORSDOF 8
