REMARK  Name = 
REMARK  6 active torsions:
REMARK  status: ('A' for Active; 'I' for Inactive)
REMARK    1  A    between atoms: C_1  and  C_2
REMARK    2  A    between atoms: C_2  and  C_3
REMARK    3  A    between atoms: C_2  and  C_17
REMARK    4  A    between atoms: C_3  and  O_4
REMARK    5  A    between atoms: O_4  and  C_5
REMARK    6  A    between atoms: C_9  and  C_10
REMARK                            x       y       z     vdW  Elec       q    Type
REMARK                         _______ _______ _______ _____ _____    ______ ____
ROOT
ATOM      1  C   UNL     1      -0.984   0.896   1.261  0.00  0.00    +0.000 A 
ATOM      2  C   UNL     1      -1.882   0.198   0.463  0.00  0.00    +0.000 A 
ATOM      3  C   UNL     1      -3.238   0.280   0.746  0.00  0.00    +0.000 A 
ATOM      4  C   UNL     1      -3.659   1.049   1.820  0.00  0.00    +0.000 A 
ATOM      5  C   UNL     1      -2.712   1.716   2.598  0.00  0.00    +0.000 A 
ATOM      6  N   UNL     1      -1.385   1.652   2.311  0.00  0.00    +0.000 NA
ENDROOT
BRANCH   5   7
ATOM      7  C   UNL     1      -3.104   2.534   3.766  0.00  0.00    +0.000 A 
ATOM      8  C   UNL     1      -4.227   2.217   4.547  0.00  0.00    +0.000 A 
ATOM      9  C   UNL     1      -4.583   3.040   5.605  0.00  0.00    +0.000 A 
ATOM     10  N   UNL     1      -3.903   4.148   5.949  0.00  0.00    +0.000 NA
ATOM     11  C   UNL     1      -2.812   4.437   5.212  0.00  0.00    +0.000 A 
ATOM     12  C   UNL     1      -2.378   3.674   4.136  0.00  0.00    +0.000 A 
ENDBRANCH   5   7
BRANCH   1  13
ATOM     13  O   UNL     1       0.375   0.903   1.074  0.00  0.00    +0.000 OA
BRANCH  13  14
ATOM     14  C   UNL     1       0.878   0.008   0.078  0.00  0.00    +0.000 C 
BRANCH  14  16
ATOM     15  C   UNL     1       3.020  -0.283   1.408  0.00  0.00    +0.000 C 
ATOM     16  C   UNL     1       2.418   0.042   0.035  0.00  0.00    +0.000 C 
BRANCH  16  17
ATOM     17  C   UNL     1       2.906  -0.866  -1.089  0.00  0.00    +0.000 A 
ATOM     18  C   UNL     1       3.184  -2.229  -0.892  0.00  0.00    +0.000 A 
ATOM     19  C   UNL     1       3.565  -3.046  -1.961  0.00  0.00    +0.000 A 
ATOM     20  C   UNL     1       3.665  -2.519  -3.246  0.00  0.00    +0.000 A 
ATOM     21  C   UNL     1       3.389  -1.171  -3.457  0.00  0.00    +0.000 A 
ATOM     22 CL   UNL     1       3.492  -0.519  -5.047  0.00  0.00    +0.000 Cl
ATOM     23  C   UNL     1       3.014  -0.349  -2.392  0.00  0.00    +0.000 A 
ENDBRANCH  16  17
ENDBRANCH  14  16
ENDBRANCH  13  14
ENDBRANCH   1  13
TORSDOF 5
