MODEL 1
REMARK VINA RESULT:    -7.920      0.000      0.000
REMARK INTER + INTRA:         -11.337
REMARK INTER:                 -10.235
REMARK INTRA:                  -1.101
REMARK UNBOUND:                -1.101
REMARK  Name = 
REMARK  7 active torsions:
REMARK  status: ('A' for Active; 'I' for Inactive)
REMARK    1  A    between atoms: C_1  and  C_2
REMARK    2  A    between atoms: C_2  and  C_3
REMARK    3  A    between atoms: C_2  and  N_16
REMARK    4  A    between atoms: C_3  and  C_4
REMARK    5  A    between atoms: C_8  and  C_9
REMARK    6  A    between atoms: N_16  and  C_17
REMARK    7  A    between atoms: C_21  and  C_22
REMARK                            x       y       z     vdW  Elec       q    Type
REMARK                         _______ _______ _______ _____ _____    ______ ____
ROOT
ATOM      1  C   UNL     1      47.925   8.150  11.506  0.00  0.00    +0.000 C 
ATOM      2  C   UNL     1      47.400   7.085  12.479  0.00  0.00    +0.000 C 
ENDROOT
BRANCH   2   3
ATOM      3  N   UNL     1      48.210   7.061  13.709  0.00  0.00    +0.000 N 
ATOM      4  C   UNL     1      49.297   7.996  13.952  0.00  0.00    +0.000 C 
ATOM      5  C   UNL     1      48.061   6.073  14.683  0.00  0.00    +0.000 A 
ATOM      6  C   UNL     1      47.433   4.852  14.420  0.00  0.00    +0.000 A 
ATOM      7  C   UNL     1      47.259   3.908  15.433  0.00  0.00    +0.000 A 
ATOM      8  C   UNL     1      47.701   4.184  16.723  0.00  0.00    +0.000 A 
ATOM      9  C   UNL     1      48.341   5.394  16.911  0.00  0.00    +0.000 A 
ATOM     10  N   UNL     1      48.533   6.314  15.926  0.00  0.00    +0.000 NA
BRANCH   8  11
ATOM     11  C   UNL     1      47.460   3.185  17.791  0.00  0.00    +0.000 C 
ATOM     12  N   UNL     1      48.307   3.127  18.861  0.00  0.00    +0.000 N 
ATOM     13  O   UNL     1      46.504   2.417  17.732  0.00  0.00    +0.000 OA
ATOM     14  H   UNL     1      49.106   3.725  19.017  0.00  0.00    +0.000 HD
ATOM     15  H   UNL     1      48.080   2.449  19.575  0.00  0.00    +0.000 HD
ENDBRANCH   8  11
ENDBRANCH   2   3
BRANCH   2  16
ATOM     16  C   UNL     1      45.884   7.252  12.769  0.00  0.00    +0.000 C 
BRANCH  16  17
ATOM     17  C   UNL     1      45.013   6.222  12.076  0.00  0.00    +0.000 A 
ATOM     18  C   UNL     1      43.648   6.126  12.358  0.00  0.00    +0.000 A 
ATOM     19  C   UNL     1      42.900   5.078  11.835  0.00  0.00    +0.000 A 
ATOM     20  C   UNL     1      43.490   4.175  10.950  0.00  0.00    +0.000 A 
ATOM     21  C   UNL     1      44.812   4.345  10.503  0.00  0.00    +0.000 A 
ATOM     22  C   UNL     1      45.577   5.344  11.133  0.00  0.00    +0.000 A 
BRANCH  21  23
ATOM     23  C   UNL     1      45.313   3.624   9.308  0.00  0.00    +0.000 A 
ATOM     24  C   UNL     1      45.920   4.355   8.266  0.00  0.00    +0.000 A 
ATOM     25  C   UNL     1      46.564   3.721   7.200  0.00  0.00    +0.000 A 
ATOM     26  C   UNL     1      46.616   2.336   7.148  0.00  0.00    +0.000 A 
ATOM     27  C   UNL     1      45.991   1.588   8.142  0.00  0.00    +0.000 A 
ATOM     28  C   UNL     1      45.339   2.224   9.208  0.00  0.00    +0.000 A 
ENDBRANCH  21  23
ENDBRANCH  16  17
ENDBRANCH   2  16
TORSDOF 5
ENDMDL
MODEL 2
REMARK VINA RESULT:    -6.997      3.765      7.430
REMARK INTER + INTRA:         -10.144
REMARK INTER:                 -10.314
REMARK INTRA:                   0.170
REMARK UNBOUND:                -1.101
REMARK  Name = 
REMARK  7 active torsions:
REMARK  status: ('A' for Active; 'I' for Inactive)
REMARK    1  A    between atoms: C_1  and  C_2
REMARK    2  A    between atoms: C_2  and  C_3
REMARK    3  A    between atoms: C_2  and  N_16
REMARK    4  A    between atoms: C_3  and  C_4
REMARK    5  A    between atoms: C_8  and  C_9
REMARK    6  A    between atoms: N_16  and  C_17
REMARK    7  A    between atoms: C_21  and  C_22
REMARK                            x       y       z     vdW  Elec       q    Type
REMARK                         _______ _______ _______ _____ _____    ______ ____
ROOT
ATOM      1  C   UNL     1      43.471   5.824  10.306  0.00  0.00    +0.000 C 
ATOM      2  C   UNL     1      43.056   4.802  11.374  0.00  0.00    +0.000 C 
ENDROOT
BRANCH   2   3
ATOM      3  N   UNL     1      43.599   3.471  11.057  0.00  0.00    +0.000 N 
ATOM      4  C   UNL     1      43.315   2.294  11.863  0.00  0.00    +0.000 C 
ATOM      5  C   UNL     1      44.510   3.263  10.020  0.00  0.00    +0.000 A 
ATOM      6  C   UNL     1      45.257   4.304   9.460  0.00  0.00    +0.000 A 
ATOM      7  C   UNL     1      46.122   4.065   8.392  0.00  0.00    +0.000 A 
ATOM      8  C   UNL     1      46.238   2.783   7.865  0.00  0.00    +0.000 A 
ATOM      9  C   UNL     1      45.497   1.792   8.482  0.00  0.00    +0.000 A 
ATOM     10  N   UNL     1      44.665   2.010   9.537  0.00  0.00    +0.000 NA
BRANCH   8  11
ATOM     11  C   UNL     1      47.127   2.565   6.699  0.00  0.00    +0.000 C 
ATOM     12  N   UNL     1      47.004   3.369   5.602  0.00  0.00    +0.000 N 
ATOM     13  O   UNL     1      47.976   1.680   6.711  0.00  0.00    +0.000 OA
ATOM     14  H   UNL     1      46.357   4.137   5.499  0.00  0.00    +0.000 HD
ATOM     15  H   UNL     1      47.654   3.198   4.847  0.00  0.00    +0.000 HD
ENDBRANCH   8  11
ENDBRANCH   2   3
BRANCH   2  16
ATOM     16  C   UNL     1      43.426   5.270  12.807  0.00  0.00    +0.000 C 
BRANCH  16  17
ATOM     17  C   UNL     1      44.904   5.551  12.995  0.00  0.00    +0.000 A 
ATOM     18  C   UNL     1      45.765   4.573  13.502  0.00  0.00    +0.000 A 
ATOM     19  C   UNL     1      47.080   4.897  13.815  0.00  0.00    +0.000 A 
ATOM     20  C   UNL     1      47.569   6.172  13.534  0.00  0.00    +0.000 A 
ATOM     21  C   UNL     1      46.786   7.125  12.859  0.00  0.00    +0.000 A 
ATOM     22  C   UNL     1      45.429   6.811  12.656  0.00  0.00    +0.000 A 
BRANCH  21  23
ATOM     23  C   UNL     1      47.404   8.322  12.239  0.00  0.00    +0.000 A 
ATOM     24  C   UNL     1      46.661   9.518  12.157  0.00  0.00    +0.000 A 
ATOM     25  C   UNL     1      47.242  10.720  11.745  0.00  0.00    +0.000 A 
ATOM     26  C   UNL     1      48.586  10.757  11.402  0.00  0.00    +0.000 A 
ATOM     27  C   UNL     1      49.335   9.584  11.436  0.00  0.00    +0.000 A 
ATOM     28  C   UNL     1      48.750   8.376  11.842  0.00  0.00    +0.000 A 
ENDBRANCH  21  23
ENDBRANCH  16  17
ENDBRANCH   2  16
TORSDOF 5
ENDMDL
MODEL 3
REMARK VINA RESULT:    -6.805      3.740      6.726
REMARK INTER + INTRA:          -9.896
REMARK INTER:                  -8.202
REMARK INTRA:                  -1.694
REMARK UNBOUND:                -1.101
REMARK  Name = 
REMARK  7 active torsions:
REMARK  status: ('A' for Active; 'I' for Inactive)
REMARK    1  A    between atoms: C_1  and  C_2
REMARK    2  A    between atoms: C_2  and  C_3
REMARK    3  A    between atoms: C_2  and  N_16
REMARK    4  A    between atoms: C_3  and  C_4
REMARK    5  A    between atoms: C_8  and  C_9
REMARK    6  A    between atoms: N_16  and  C_17
REMARK    7  A    between atoms: C_21  and  C_22
REMARK                            x       y       z     vdW  Elec       q    Type
REMARK                         _______ _______ _______ _____ _____    ______ ____
ROOT
ATOM      1  C   UNL     1      50.397   7.811  11.510  0.00  0.00    +0.000 C 
ATOM      2  C   UNL     1      48.949   8.259  11.759  0.00  0.00    +0.000 C 
ENDROOT
BRANCH   2   3
ATOM      3  N   UNL     1      48.269   7.327  12.674  0.00  0.00    +0.000 N 
ATOM      4  C   UNL     1      48.875   6.853  13.908  0.00  0.00    +0.000 C 
ATOM      5  C   UNL     1      47.034   6.750  12.370  0.00  0.00    +0.000 A 
ATOM      6  C   UNL     1      46.533   6.698  11.066  0.00  0.00    +0.000 A 
ATOM      7  C   UNL     1      45.273   6.157  10.808  0.00  0.00    +0.000 A 
ATOM      8  C   UNL     1      44.497   5.675  11.857  0.00  0.00    +0.000 A 
ATOM      9  C   UNL     1      45.060   5.726  13.118  0.00  0.00    +0.000 A 
ATOM     10  N   UNL     1      46.297   6.234  13.378  0.00  0.00    +0.000 NA
BRANCH   8  11
ATOM     11  C   UNL     1      43.141   5.150  11.562  0.00  0.00    +0.000 C 
ATOM     12  N   UNL     1      42.052   5.946  11.774  0.00  0.00    +0.000 N 
ATOM     13  O   UNL     1      42.988   4.016  11.121  0.00  0.00    +0.000 OA
ATOM     14  H   UNL     1      42.071   6.898  12.111  0.00  0.00    +0.000 HD
ATOM     15  H   UNL     1      41.155   5.552  11.529  0.00  0.00    +0.000 HD
ENDBRANCH   8  11
ENDBRANCH   2   3
BRANCH   2  16
ATOM     16  C   UNL     1      48.866   9.732  12.240  0.00  0.00    +0.000 C 
BRANCH  16  17
ATOM     17  C   UNL     1      47.911  10.586  11.430  0.00  0.00    +0.000 A 
ATOM     18  C   UNL     1      48.381  11.458  10.445  0.00  0.00    +0.000 A 
ATOM     19  C   UNL     1      47.509  12.346   9.825  0.00  0.00    +0.000 A 
ATOM     20  C   UNL     1      46.146  12.300  10.116  0.00  0.00    +0.000 A 
ATOM     21  C   UNL     1      45.611  11.316  10.967  0.00  0.00    +0.000 A 
ATOM     22  C   UNL     1      46.526  10.507  11.665  0.00  0.00    +0.000 A 
BRANCH  21  23
ATOM     23  C   UNL     1      44.155  11.035  10.988  0.00  0.00    +0.000 A 
ATOM     24  C   UNL     1      43.246  12.109  11.084  0.00  0.00    +0.000 A 
ATOM     25  C   UNL     1      41.869  11.925  10.935  0.00  0.00    +0.000 A 
ATOM     26  C   UNL     1      41.363  10.657  10.689  0.00  0.00    +0.000 A 
ATOM     27  C   UNL     1      42.233   9.571  10.629  0.00  0.00    +0.000 A 
ATOM     28  C   UNL     1      43.614   9.755  10.785  0.00  0.00    +0.000 A 
ENDBRANCH  21  23
ENDBRANCH  16  17
ENDBRANCH   2  16
TORSDOF 5
ENDMDL
MODEL 4
REMARK VINA RESULT:    -6.702      1.388      2.406
REMARK INTER + INTRA:          -9.763
REMARK INTER:                  -8.503
REMARK INTRA:                  -1.260
REMARK UNBOUND:                -1.101
REMARK  Name = 
REMARK  7 active torsions:
REMARK  status: ('A' for Active; 'I' for Inactive)
REMARK    1  A    between atoms: C_1  and  C_2
REMARK    2  A    between atoms: C_2  and  C_3
REMARK    3  A    between atoms: C_2  and  N_16
REMARK    4  A    between atoms: C_3  and  C_4
REMARK    5  A    between atoms: C_8  and  C_9
REMARK    6  A    between atoms: N_16  and  C_17
REMARK    7  A    between atoms: C_21  and  C_22
REMARK                            x       y       z     vdW  Elec       q    Type
REMARK                         _______ _______ _______ _____ _____    ______ ____
ROOT
ATOM      1  C   UNL     1      50.095   8.615  11.643  0.00  0.00    +0.000 C 
ATOM      2  C   UNL     1      49.063   8.046  12.628  0.00  0.00    +0.000 C 
ENDROOT
BRANCH   2   3
ATOM      3  N   UNL     1      49.707   7.681  13.900  0.00  0.00    +0.000 N 
ATOM      4  C   UNL     1      51.021   8.170  14.286  0.00  0.00    +0.000 C 
ATOM      5  C   UNL     1      49.147   6.754  14.782  0.00  0.00    +0.000 A 
ATOM      6  C   UNL     1      48.167   5.840  14.384  0.00  0.00    +0.000 A 
ATOM      7  C   UNL     1      47.596   4.962  15.305  0.00  0.00    +0.000 A 
ATOM      8  C   UNL     1      47.991   5.000  16.639  0.00  0.00    +0.000 A 
ATOM      9  C   UNL     1      48.985   5.905  16.963  0.00  0.00    +0.000 A 
ATOM     10  N   UNL     1      49.563   6.753  16.068  0.00  0.00    +0.000 NA
BRANCH   8  11
ATOM     11  C   UNL     1      47.333   4.091  17.608  0.00  0.00    +0.000 C 
ATOM     12  N   UNL     1      47.615   4.209  18.939  0.00  0.00    +0.000 N 
ATOM     13  O   UNL     1      46.532   3.242  17.230  0.00  0.00    +0.000 OA
ATOM     14  H   UNL     1      48.239   4.886  19.354  0.00  0.00    +0.000 HD
ATOM     15  H   UNL     1      47.118   3.586  19.559  0.00  0.00    +0.000 HD
ENDBRANCH   8  11
ENDBRANCH   2   3
BRANCH   2  16
ATOM     16  C   UNL     1      47.854   8.999  12.825  0.00  0.00    +0.000 C 
BRANCH  16  17
ATOM     17  C   UNL     1      46.580   8.515  12.160  0.00  0.00    +0.000 A 
ATOM     18  C   UNL     1      45.538   9.399  11.869  0.00  0.00    +0.000 A 
ATOM     19  C   UNL     1      44.320   8.913  11.407  0.00  0.00    +0.000 A 
ATOM     20  C   UNL     1      44.169   7.552  11.141  0.00  0.00    +0.000 A 
ATOM     21  C   UNL     1      45.250   6.660  11.250  0.00  0.00    +0.000 A 
ATOM     22  C   UNL     1      46.434   7.156  11.826  0.00  0.00    +0.000 A 
BRANCH  21  23
ATOM     23  C   UNL     1      45.196   5.315  10.628  0.00  0.00    +0.000 A 
ATOM     24  C   UNL     1      44.728   4.222  11.387  0.00  0.00    +0.000 A 
ATOM     25  C   UNL     1      44.491   2.972  10.810  0.00  0.00    +0.000 A 
ATOM     26  C   UNL     1      44.718   2.781   9.455  0.00  0.00    +0.000 A 
ATOM     27  C   UNL     1      45.219   3.830   8.689  0.00  0.00    +0.000 A 
ATOM     28  C   UNL     1      45.463   5.083   9.269  0.00  0.00    +0.000 A 
ENDBRANCH  21  23
ENDBRANCH  16  17
ENDBRANCH   2  16
TORSDOF 5
ENDMDL
MODEL 5
REMARK VINA RESULT:    -6.563      3.442      4.540
REMARK INTER + INTRA:          -9.583
REMARK INTER:                  -8.598
REMARK INTRA:                  -0.985
REMARK UNBOUND:                -1.101
REMARK  Name = 
REMARK  7 active torsions:
REMARK  status: ('A' for Active; 'I' for Inactive)
REMARK    1  A    between atoms: C_1  and  C_2
REMARK    2  A    between atoms: C_2  and  C_3
REMARK    3  A    between atoms: C_2  and  N_16
REMARK    4  A    between atoms: C_3  and  C_4
REMARK    5  A    between atoms: C_8  and  C_9
REMARK    6  A    between atoms: N_16  and  C_17
REMARK    7  A    between atoms: C_21  and  C_22
REMARK                            x       y       z     vdW  Elec       q    Type
REMARK                         _______ _______ _______ _____ _____    ______ ____
ROOT
ATOM      1  C   UNL     1      45.651   8.827  12.460  0.00  0.00    +0.000 C 
ATOM      2  C   UNL     1      46.671   7.703  12.693  0.00  0.00    +0.000 C 
ENDROOT
BRANCH   2   3
ATOM      3  N   UNL     1      47.836   8.207  13.440  0.00  0.00    +0.000 N 
ATOM      4  C   UNL     1      47.722   8.820  14.754  0.00  0.00    +0.000 C 
ATOM      5  C   UNL     1      49.121   8.228  12.895  0.00  0.00    +0.000 A 
ATOM      6  C   UNL     1      49.352   8.139  11.519  0.00  0.00    +0.000 A 
ATOM      7  C   UNL     1      50.652   8.114  11.015  0.00  0.00    +0.000 A 
ATOM      8  C   UNL     1      51.736   8.163  11.886  0.00  0.00    +0.000 A 
ATOM      9  C   UNL     1      51.442   8.281  13.231  0.00  0.00    +0.000 A 
ATOM     10  N   UNL     1      50.177   8.326  13.733  0.00  0.00    +0.000 NA
BRANCH   8  11
ATOM     11  C   UNL     1      53.108   8.085  11.329  0.00  0.00    +0.000 C 
ATOM     12  N   UNL     1      53.715   6.868  11.207  0.00  0.00    +0.000 N 
ATOM     13  O   UNL     1      53.698   9.098  10.965  0.00  0.00    +0.000 OA
ATOM     14  H   UNL     1      53.310   5.976  11.454  0.00  0.00    +0.000 HD
ATOM     15  H   UNL     1      54.637   6.867  10.794  0.00  0.00    +0.000 HD
ENDBRANCH   8  11
ENDBRANCH   2   3
BRANCH   2  16
ATOM     16  C   UNL     1      46.029   6.458  13.362  0.00  0.00    +0.000 C 
BRANCH  16  17
ATOM     17  C   UNL     1      45.099   5.686  12.447  0.00  0.00    +0.000 A 
ATOM     18  C   UNL     1      43.712   5.753  12.605  0.00  0.00    +0.000 A 
ATOM     19  C   UNL     1      42.884   4.919  11.864  0.00  0.00    +0.000 A 
ATOM     20  C   UNL     1      43.430   4.081  10.891  0.00  0.00    +0.000 A 
ATOM     21  C   UNL     1      44.801   4.117  10.579  0.00  0.00    +0.000 A 
ATOM     22  C   UNL     1      45.629   4.885  11.419  0.00  0.00    +0.000 A 
BRANCH  21  23
ATOM     23  C   UNL     1      45.315   3.516   9.325  0.00  0.00    +0.000 A 
ATOM     24  C   UNL     1      45.844   4.357   8.323  0.00  0.00    +0.000 A 
ATOM     25  C   UNL     1      46.498   3.844   7.201  0.00  0.00    +0.000 A 
ATOM     26  C   UNL     1      46.639   2.473   7.048  0.00  0.00    +0.000 A 
ATOM     27  C   UNL     1      46.093   1.617   8.001  0.00  0.00    +0.000 A 
ATOM     28  C   UNL     1      45.430   2.131   9.124  0.00  0.00    +0.000 A 
ENDBRANCH  21  23
ENDBRANCH  16  17
ENDBRANCH   2  16
TORSDOF 5
ENDMDL
MODEL 6
REMARK VINA RESULT:    -6.471      3.370      6.650
REMARK INTER + INTRA:          -9.464
REMARK INTER:                  -8.322
REMARK INTRA:                  -1.142
REMARK UNBOUND:                -1.101
REMARK  Name = 
REMARK  7 active torsions:
REMARK  status: ('A' for Active; 'I' for Inactive)
REMARK    1  A    between atoms: C_1  and  C_2
REMARK    2  A    between atoms: C_2  and  C_3
REMARK    3  A    between atoms: C_2  and  N_16
REMARK    4  A    between atoms: C_3  and  C_4
REMARK    5  A    between atoms: C_8  and  C_9
REMARK    6  A    between atoms: N_16  and  C_17
REMARK    7  A    between atoms: C_21  and  C_22
REMARK                            x       y       z     vdW  Elec       q    Type
REMARK                         _______ _______ _______ _____ _____    ______ ____
ROOT
ATOM      1  C   UNL     1      48.166  10.185  12.232  0.00  0.00    +0.000 C 
ATOM      2  C   UNL     1      47.991   9.231  13.423  0.00  0.00    +0.000 C 
ENDROOT
BRANCH   2   3
ATOM      3  N   UNL     1      48.141   7.832  12.992  0.00  0.00    +0.000 N 
ATOM      4  C   UNL     1      49.396   7.292  12.493  0.00  0.00    +0.000 C 
ATOM      5  C   UNL     1      47.061   6.949  12.932  0.00  0.00    +0.000 A 
ATOM      6  C   UNL     1      45.734   7.390  12.902  0.00  0.00    +0.000 A 
ATOM      7  C   UNL     1      44.680   6.477  12.892  0.00  0.00    +0.000 A 
ATOM      8  C   UNL     1      44.944   5.111  12.924  0.00  0.00    +0.000 A 
ATOM      9  C   UNL     1      46.274   4.739  12.921  0.00  0.00    +0.000 A 
ATOM     10  N   UNL     1      47.311   5.621  12.912  0.00  0.00    +0.000 NA
BRANCH   8  11
ATOM     11  C   UNL     1      43.805   4.163  12.962  0.00  0.00    +0.000 C 
ATOM     12  N   UNL     1      43.996   2.866  12.577  0.00  0.00    +0.000 N 
ATOM     13  O   UNL     1      42.697   4.524  13.346  0.00  0.00    +0.000 OA
ATOM     14  H   UNL     1      44.870   2.463  12.268  0.00  0.00    +0.000 HD
ATOM     15  H   UNL     1      43.196   2.254  12.650  0.00  0.00    +0.000 HD
ENDBRANCH   8  11
ENDBRANCH   2   3
BRANCH   2  16
ATOM     16  C   UNL     1      48.929   9.593  14.605  0.00  0.00    +0.000 C 
BRANCH  16  17
ATOM     17  C   UNL     1      48.626   8.830  15.880  0.00  0.00    +0.000 A 
ATOM     18  C   UNL     1      48.034   9.464  16.976  0.00  0.00    +0.000 A 
ATOM     19  C   UNL     1      47.909   8.792  18.187  0.00  0.00    +0.000 A 
ATOM     20  C   UNL     1      48.286   7.453  18.282  0.00  0.00    +0.000 A 
ATOM     21  C   UNL     1      48.716   6.731  17.154  0.00  0.00    +0.000 A 
ATOM     22  C   UNL     1      48.940   7.462  15.973  0.00  0.00    +0.000 A 
BRANCH  21  23
ATOM     23  C   UNL     1      48.761   5.248  17.167  0.00  0.00    +0.000 A 
ATOM     24  C   UNL     1      47.809   4.523  16.421  0.00  0.00    +0.000 A 
ATOM     25  C   UNL     1      47.904   3.139  16.254  0.00  0.00    +0.000 A 
ATOM     26  C   UNL     1      48.955   2.442  16.832  0.00  0.00    +0.000 A 
ATOM     27  C   UNL     1      49.887   3.126  17.608  0.00  0.00    +0.000 A 
ATOM     28  C   UNL     1      49.788   4.514  17.781  0.00  0.00    +0.000 A 
ENDBRANCH  21  23
ENDBRANCH  16  17
ENDBRANCH   2  16
TORSDOF 5
ENDMDL
MODEL 7
REMARK VINA RESULT:    -6.345      4.516      6.884
REMARK INTER + INTRA:          -9.301
REMARK INTER:                  -7.586
REMARK INTRA:                  -1.716
REMARK UNBOUND:                -1.101
REMARK  Name = 
REMARK  7 active torsions:
REMARK  status: ('A' for Active; 'I' for Inactive)
REMARK    1  A    between atoms: C_1  and  C_2
REMARK    2  A    between atoms: C_2  and  C_3
REMARK    3  A    between atoms: C_2  and  N_16
REMARK    4  A    between atoms: C_3  and  C_4
REMARK    5  A    between atoms: C_8  and  C_9
REMARK    6  A    between atoms: N_16  and  C_17
REMARK    7  A    between atoms: C_21  and  C_22
REMARK                            x       y       z     vdW  Elec       q    Type
REMARK                         _______ _______ _______ _____ _____    ______ ____
ROOT
ATOM      1  C   UNL     1      49.514  11.412  12.917  0.00  0.00    +0.000 C 
ATOM      2  C   UNL     1      48.355  10.585  12.343  0.00  0.00    +0.000 C 
ENDROOT
BRANCH   2   3
ATOM      3  N   UNL     1      47.563  11.388  11.396  0.00  0.00    +0.000 N 
ATOM      4  C   UNL     1      48.112  12.532  10.685  0.00  0.00    +0.000 C 
ATOM      5  C   UNL     1      46.199  11.173  11.192  0.00  0.00    +0.000 A 
ATOM      6  C   UNL     1      45.408  10.469  12.105  0.00  0.00    +0.000 A 
ATOM      7  C   UNL     1      44.058  10.232  11.843  0.00  0.00    +0.000 A 
ATOM      8  C   UNL     1      43.490  10.687  10.657  0.00  0.00    +0.000 A 
ATOM      9  C   UNL     1      44.317  11.402   9.811  0.00  0.00    +0.000 A 
ATOM     10  N   UNL     1      45.630  11.656  10.065  0.00  0.00    +0.000 NA
BRANCH   8  11
ATOM     11  C   UNL     1      42.067  10.379  10.380  0.00  0.00    +0.000 C 
ATOM     12  N   UNL     1      41.436   9.407  11.103  0.00  0.00    +0.000 N 
ATOM     13  O   UNL     1      41.446  10.994   9.519  0.00  0.00    +0.000 OA
ATOM     14  H   UNL     1      41.848   8.861  11.846  0.00  0.00    +0.000 HD
ATOM     15  H   UNL     1      40.459   9.258  10.896  0.00  0.00    +0.000 HD
ENDBRANCH   8  11
ENDBRANCH   2   3
BRANCH   2  16
ATOM     16  C   UNL     1      48.841   9.246  11.726  0.00  0.00    +0.000 C 
BRANCH  16  17
ATOM     17  C   UNL     1      48.263   8.018  12.401  0.00  0.00    +0.000 A 
ATOM     18  C   UNL     1      48.758   7.570  13.629  0.00  0.00    +0.000 A 
ATOM     19  C   UNL     1      48.327   6.358  14.154  0.00  0.00    +0.000 A 
ATOM     20  C   UNL     1      47.329   5.632  13.504  0.00  0.00    +0.000 A 
ATOM     21  C   UNL     1      46.681   6.138  12.363  0.00  0.00    +0.000 A 
ATOM     22  C   UNL     1      47.213   7.308  11.791  0.00  0.00    +0.000 A 
BRANCH  21  23
ATOM     23  C   UNL     1      45.398   5.561  11.895  0.00  0.00    +0.000 A 
ATOM     24  C   UNL     1      45.211   4.164  11.942  0.00  0.00    +0.000 A 
ATOM     25  C   UNL     1      43.971   3.577  11.681  0.00  0.00    +0.000 A 
ATOM     26  C   UNL     1      42.882   4.374  11.361  0.00  0.00    +0.000 A 
ATOM     27  C   UNL     1      43.045   5.753  11.268  0.00  0.00    +0.000 A 
ATOM     28  C   UNL     1      44.292   6.342  11.523  0.00  0.00    +0.000 A 
ENDBRANCH  21  23
ENDBRANCH  16  17
ENDBRANCH   2  16
TORSDOF 5
ENDMDL
MODEL 8
REMARK VINA RESULT:    -6.207      4.854      7.175
REMARK INTER + INTRA:          -9.123
REMARK INTER:                  -8.105
REMARK INTRA:                  -1.018
REMARK UNBOUND:                -1.101
REMARK  Name = 
REMARK  7 active torsions:
REMARK  status: ('A' for Active; 'I' for Inactive)
REMARK    1  A    between atoms: C_1  and  C_2
REMARK    2  A    between atoms: C_2  and  C_3
REMARK    3  A    between atoms: C_2  and  N_16
REMARK    4  A    between atoms: C_3  and  C_4
REMARK    5  A    between atoms: C_8  and  C_9
REMARK    6  A    between atoms: N_16  and  C_17
REMARK    7  A    between atoms: C_21  and  C_22
REMARK                            x       y       z     vdW  Elec       q    Type
REMARK                         _______ _______ _______ _____ _____    ______ ____
ROOT
ATOM      1  C   UNL     1      47.152  10.634  11.693  0.00  0.00    +0.000 C 
ATOM      2  C   UNL     1      46.063   9.551  11.716  0.00  0.00    +0.000 C 
ENDROOT
BRANCH   2   3
ATOM      3  N   UNL     1      46.498   8.396  12.519  0.00  0.00    +0.000 N 
ATOM      4  C   UNL     1      47.557   8.483  13.512  0.00  0.00    +0.000 C 
ATOM      5  C   UNL     1      45.996   7.111  12.311  0.00  0.00    +0.000 A 
ATOM      6  C   UNL     1      45.355   6.740  11.125  0.00  0.00    +0.000 A 
ATOM      7  C   UNL     1      44.823   5.459  10.973  0.00  0.00    +0.000 A 
ATOM      8  C   UNL     1      44.916   4.541  12.014  0.00  0.00    +0.000 A 
ATOM      9  C   UNL     1      45.588   4.957  13.147  0.00  0.00    +0.000 A 
ATOM     10  N   UNL     1      46.128   6.198  13.299  0.00  0.00    +0.000 NA
BRANCH   8  11
ATOM     11  C   UNL     1      44.299   3.203  11.845  0.00  0.00    +0.000 C 
ATOM     12  N   UNL     1      44.427   2.549  10.654  0.00  0.00    +0.000 N 
ATOM     13  O   UNL     1      43.685   2.673  12.766  0.00  0.00    +0.000 OA
ATOM     14  H   UNL     1      44.929   2.885   9.844  0.00  0.00    +0.000 HD
ATOM     15  H   UNL     1      44.014   1.628  10.602  0.00  0.00    +0.000 HD
ENDBRANCH   8  11
ENDBRANCH   2   3
BRANCH   2  16
ATOM     16  C   UNL     1      44.690  10.111  12.174  0.00  0.00    +0.000 C 
BRANCH  16  17
ATOM     17  C   UNL     1      43.767  10.475  11.027  0.00  0.00    +0.000 A 
ATOM     18  C   UNL     1      44.261  10.652   9.732  0.00  0.00    +0.000 A 
ATOM     19  C   UNL     1      43.430  11.139   8.729  0.00  0.00    +0.000 A 
ATOM     20  C   UNL     1      42.078  11.359   8.991  0.00  0.00    +0.000 A 
ATOM     21  C   UNL     1      41.507  11.021  10.231  0.00  0.00    +0.000 A 
ATOM     22  C   UNL     1      42.389  10.639  11.259  0.00  0.00    +0.000 A 
BRANCH  21  23
ATOM     23  C   UNL     1      40.037  10.905  10.389  0.00  0.00    +0.000 A 
ATOM     24  C   UNL     1      39.516  10.136  11.450  0.00  0.00    +0.000 A 
ATOM     25  C   UNL     1      38.153  10.129  11.755  0.00  0.00    +0.000 A 
ATOM     26  C   UNL     1      37.272  10.893  11.003  0.00  0.00    +0.000 A 
ATOM     27  C   UNL     1      37.751  11.631   9.925  0.00  0.00    +0.000 A 
ATOM     28  C   UNL     1      39.119  11.632   9.614  0.00  0.00    +0.000 A 
ENDBRANCH  21  23
ENDBRANCH  16  17
ENDBRANCH   2  16
TORSDOF 5
ENDMDL
MODEL 9
REMARK VINA RESULT:    -6.018      4.039      8.986
REMARK INTER + INTRA:          -8.878
REMARK INTER:                  -7.830
REMARK INTRA:                  -1.048
REMARK UNBOUND:                -1.101
REMARK  Name = 
REMARK  7 active torsions:
REMARK  status: ('A' for Active; 'I' for Inactive)
REMARK    1  A    between atoms: C_1  and  C_2
REMARK    2  A    between atoms: C_2  and  C_3
REMARK    3  A    between atoms: C_2  and  N_16
REMARK    4  A    between atoms: C_3  and  C_4
REMARK    5  A    between atoms: C_8  and  C_9
REMARK    6  A    between atoms: N_16  and  C_17
REMARK    7  A    between atoms: C_21  and  C_22
REMARK                            x       y       z     vdW  Elec       q    Type
REMARK                         _______ _______ _______ _____ _____    ______ ____
ROOT
ATOM      1  C   UNL     1      49.664   5.049  17.427  0.00  0.00    +0.000 C 
ATOM      2  C   UNL     1      48.167   5.133  17.097  0.00  0.00    +0.000 C 
ENDROOT
BRANCH   2   3
ATOM      3  N   UNL     1      47.804   4.138  16.075  0.00  0.00    +0.000 N 
ATOM      4  C   UNL     1      48.083   2.718  16.226  0.00  0.00    +0.000 C 
ATOM      5  C   UNL     1      47.261   4.498  14.840  0.00  0.00    +0.000 A 
ATOM      6  C   UNL     1      47.365   5.794  14.326  0.00  0.00    +0.000 A 
ATOM      7  C   UNL     1      46.768   6.128  13.111  0.00  0.00    +0.000 A 
ATOM      8  C   UNL     1      46.048   5.171  12.404  0.00  0.00    +0.000 A 
ATOM      9  C   UNL     1      46.008   3.901  12.949  0.00  0.00    +0.000 A 
ATOM     10  N   UNL     1      46.604   3.559  14.125  0.00  0.00    +0.000 NA
BRANCH   8  11
ATOM     11  C   UNL     1      45.380   5.565  11.140  0.00  0.00    +0.000 C 
ATOM     12  N   UNL     1      44.951   6.851  10.979  0.00  0.00    +0.000 N 
ATOM     13  O   UNL     1      45.219   4.753  10.234  0.00  0.00    +0.000 OA
ATOM     14  H   UNL     1      45.055   7.598  11.651  0.00  0.00    +0.000 HD
ATOM     15  H   UNL     1      44.530   7.074  10.088  0.00  0.00    +0.000 HD
ENDBRANCH   8  11
ENDBRANCH   2   3
BRANCH   2  16
ATOM     16  C   UNL     1      47.281   5.031  18.367  0.00  0.00    +0.000 C 
BRANCH  16  17
ATOM     17  C   UNL     1      47.425   6.212  19.308  0.00  0.00    +0.000 A 
ATOM     18  C   UNL     1      47.678   6.022  20.669  0.00  0.00    +0.000 A 
ATOM     19  C   UNL     1      47.649   7.104  21.542  0.00  0.00    +0.000 A 
ATOM     20  C   UNL     1      47.463   8.394  21.045  0.00  0.00    +0.000 A 
ATOM     21  C   UNL     1      47.385   8.643  19.663  0.00  0.00    +0.000 A 
ATOM     22  C   UNL     1      47.303   7.523  18.814  0.00  0.00    +0.000 A 
BRANCH  21  23
ATOM     23  C   UNL     1      47.557  10.013  19.123  0.00  0.00    +0.000 A 
ATOM     24  C   UNL     1      48.365  10.208  17.983  0.00  0.00    +0.000 A 
ATOM     25  C   UNL     1      48.427  11.440  17.327  0.00  0.00    +0.000 A 
ATOM     26  C   UNL     1      47.683  12.513  17.796  0.00  0.00    +0.000 A 
ATOM     27  C   UNL     1      46.908  12.361  18.942  0.00  0.00    +0.000 A 
ATOM     28  C   UNL     1      46.851  11.126  19.605  0.00  0.00    +0.000 A 
ENDBRANCH  21  23
ENDBRANCH  16  17
ENDBRANCH   2  16
TORSDOF 5
ENDMDL
