MODEL 1
REMARK VINA RESULT:    -8.491      0.000      0.000
REMARK INTER + INTRA:         -12.576
REMARK INTER:                 -11.470
REMARK INTRA:                  -1.106
REMARK UNBOUND:                -1.106
REMARK  Name = 
REMARK  6 active torsions:
REMARK  status: ('A' for Active; 'I' for Inactive)
REMARK    1  A    between atoms: C_2  and  C_19
REMARK    2  A    between atoms: N_3  and  C_4
REMARK    3  A    between atoms: C_4  and  C_5
REMARK    4  A    between atoms: C_8  and  C_9
REMARK    5  A    between atoms: C_9  and  N_10
REMARK    6  A    between atoms: N_10  and  C_11
REMARK                            x       y       z     vdW  Elec       q    Type
REMARK                         _______ _______ _______ _____ _____    ______ ____
ROOT
ATOM      1  C   UNL     1      46.865   7.155  13.031  0.00  0.00    +0.000 C 
ENDROOT
BRANCH   1   2
ATOM      2  C   UNL     1      46.185   6.095  12.203  0.00  0.00    +0.000 A 
ATOM      3  C   UNL     1      45.732   4.909  12.797  0.00  0.00    +0.000 A 
ATOM      4  C   UNL     1      45.072   3.935  12.039  0.00  0.00    +0.000 A 
ATOM      5  C   UNL     1      44.875   4.112  10.665  0.00  0.00    +0.000 A 
ATOM      6  C   UNL     1      45.330   5.298  10.068  0.00  0.00    +0.000 A 
ATOM      7  C   UNL     1      45.990   6.272  10.827  0.00  0.00    +0.000 A 
BRANCH   5   8
ATOM      8  C   UNL     1      44.205   3.038   9.837  0.00  0.00    +0.000 C 
BRANCH   8   9
ATOM      9  N   UNL     1      44.492   3.210   8.420  0.00  0.00    +0.000 N 
ATOM     10  H   UNL     1      44.250   4.123   8.047  0.00  0.00    +0.000 HD
BRANCH   9  11
ATOM     11  C   UNL     1      45.613   2.612   7.838  0.00  0.00    +0.000 A 
ATOM     12  C   UNL     1      46.534   3.302   7.046  0.00  0.00    +0.000 A 
ATOM     13  C   UNL     1      47.675   2.648   6.595  0.00  0.00    +0.000 A 
ATOM     14  N   UNL     1      47.975   1.368   6.886  0.00  0.00    +0.000 NA
ATOM     15  C   UNL     1      47.093   0.720   7.673  0.00  0.00    +0.000 A 
ATOM     16  C   UNL     1      45.927   1.290   8.166  0.00  0.00    +0.000 A 
ENDBRANCH   9  11
ENDBRANCH   8   9
ENDBRANCH   5   8
ENDBRANCH   1   2
BRANCH   1  19
ATOM     17  O   UNL     1      49.467   6.875  13.909  0.00  0.00    +0.000 OA
ATOM     18  C   UNL     1      48.562   6.643  14.708  0.00  0.00    +0.000 C 
ATOM     19  N   UNL     1      47.238   6.676  14.339  0.00  0.00    +0.000 N 
ATOM     20  H   UNL     1      46.524   6.699  15.060  0.00  0.00    +0.000 HD
BRANCH  18  21
ATOM     21  C   UNL     1      48.852   6.275  16.097  0.00  0.00    +0.000 A 
ATOM     22  C   UNL     1      49.481   7.183  16.937  0.00  0.00    +0.000 A 
ATOM     23  S   UNL     1      49.753   6.581  18.511  0.00  0.00    +0.000 S 
ATOM     24  C   UNL     1      48.988   5.110  18.138  0.00  0.00    +0.000 A 
ATOM     25  N   UNL     1      48.845   4.136  19.079  0.00  0.00    +0.000 NA
ATOM     26  C   UNL     1      48.201   3.093  18.674  0.00  0.00    +0.000 A 
ATOM     27  N   UNL     1      47.700   2.927  17.409  0.00  0.00    +0.000 N 
ATOM     28  C   UNL     1      47.861   3.860  16.413  0.00  0.00    +0.000 A 
ATOM     29  O   UNL     1      47.462   3.650  15.272  0.00  0.00    +0.000 OA
ATOM     30  C   UNL     1      48.557   5.066  16.826  0.00  0.00    +0.000 A 
ATOM     31  H   UNL     1      47.216   2.080  17.151  0.00  0.00    +0.000 HD
ENDBRANCH  18  21
ENDBRANCH   1  19
TORSDOF 6
ENDMDL
MODEL 2
REMARK VINA RESULT:    -7.830      1.864      2.578
REMARK INTER + INTRA:         -11.682
REMARK INTER:                 -10.739
REMARK INTRA:                  -0.942
REMARK UNBOUND:                -1.106
REMARK  Name = 
REMARK  6 active torsions:
REMARK  status: ('A' for Active; 'I' for Inactive)
REMARK    1  A    between atoms: C_2  and  C_19
REMARK    2  A    between atoms: N_3  and  C_4
REMARK    3  A    between atoms: C_4  and  C_5
REMARK    4  A    between atoms: C_8  and  C_9
REMARK    5  A    between atoms: C_9  and  N_10
REMARK    6  A    between atoms: N_10  and  C_11
REMARK                            x       y       z     vdW  Elec       q    Type
REMARK                         _______ _______ _______ _____ _____    ______ ____
ROOT
ATOM      1  C   UNL     1      47.822   6.636  13.732  0.00  0.00    +0.000 C 
ENDROOT
BRANCH   1   2
ATOM      2  C   UNL     1      46.825   5.990  12.805  0.00  0.00    +0.000 A 
ATOM      3  C   UNL     1      46.540   6.560  11.557  0.00  0.00    +0.000 A 
ATOM      4  C   UNL     1      45.639   5.948  10.679  0.00  0.00    +0.000 A 
ATOM      5  C   UNL     1      44.981   4.765  11.040  0.00  0.00    +0.000 A 
ATOM      6  C   UNL     1      45.264   4.195  12.291  0.00  0.00    +0.000 A 
ATOM      7  C   UNL     1      46.167   4.808  13.168  0.00  0.00    +0.000 A 
BRANCH   5   8
ATOM      8  C   UNL     1      43.971   4.130  10.112  0.00  0.00    +0.000 C 
BRANCH   8   9
ATOM      9  N   UNL     1      44.379   4.259   8.721  0.00  0.00    +0.000 N 
ATOM     10  H   UNL     1      44.427   5.215   8.381  0.00  0.00    +0.000 HD
BRANCH   9  11
ATOM     11  C   UNL     1      45.319   3.388   8.165  0.00  0.00    +0.000 A 
ATOM     12  C   UNL     1      46.346   3.798   7.313  0.00  0.00    +0.000 A 
ATOM     13  C   UNL     1      47.298   2.877   6.892  0.00  0.00    +0.000 A 
ATOM     14  N   UNL     1      47.313   1.584   7.269  0.00  0.00    +0.000 NA
ATOM     15  C   UNL     1      46.333   1.204   8.113  0.00  0.00    +0.000 A 
ATOM     16  C   UNL     1      45.340   2.054   8.582  0.00  0.00    +0.000 A 
ENDBRANCH   9  11
ENDBRANCH   8   9
ENDBRANCH   5   8
ENDBRANCH   1   2
BRANCH   1  19
ATOM     17  O   UNL     1      49.937   6.605  15.506  0.00  0.00    +0.000 OA
ATOM     18  C   UNL     1      48.847   6.199  15.903  0.00  0.00    +0.000 C 
ATOM     19  N   UNL     1      47.758   6.101  15.070  0.00  0.00    +0.000 N 
ATOM     20  H   UNL     1      46.835   5.977  15.474  0.00  0.00    +0.000 HD
BRANCH  18  21
ATOM     21  C   UNL     1      48.661   5.757  17.288  0.00  0.00    +0.000 A 
ATOM     22  C   UNL     1      48.924   4.440  17.637  0.00  0.00    +0.000 A 
ATOM     23  S   UNL     1      48.638   4.100  19.284  0.00  0.00    +0.000 S 
ATOM     24  C   UNL     1      48.208   5.714  19.598  0.00  0.00    +0.000 A 
ATOM     25  N   UNL     1      47.877   6.119  20.855  0.00  0.00    +0.000 NA
ATOM     26  C   UNL     1      47.621   7.381  20.959  0.00  0.00    +0.000 A 
ATOM     27  N   UNL     1      47.651   8.272  19.918  0.00  0.00    +0.000 N 
ATOM     28  C   UNL     1      47.932   7.902  18.624  0.00  0.00    +0.000 A 
ATOM     29  O   UNL     1      47.881   8.710  17.704  0.00  0.00    +0.000 OA
ATOM     30  C   UNL     1      48.253   6.495  18.459  0.00  0.00    +0.000 A 
ATOM     31  H   UNL     1      47.428   9.245  20.063  0.00  0.00    +0.000 HD
ENDBRANCH  18  21
ENDBRANCH   1  19
TORSDOF 6
ENDMDL
MODEL 3
REMARK VINA RESULT:    -7.792      1.573      1.928
REMARK INTER + INTRA:         -11.631
REMARK INTER:                 -10.717
REMARK INTRA:                  -0.913
REMARK UNBOUND:                -1.106
REMARK  Name = 
REMARK  6 active torsions:
REMARK  status: ('A' for Active; 'I' for Inactive)
REMARK    1  A    between atoms: C_2  and  C_19
REMARK    2  A    between atoms: N_3  and  C_4
REMARK    3  A    between atoms: C_4  and  C_5
REMARK    4  A    between atoms: C_8  and  C_9
REMARK    5  A    between atoms: C_9  and  N_10
REMARK    6  A    between atoms: N_10  and  C_11
REMARK                            x       y       z     vdW  Elec       q    Type
REMARK                         _______ _______ _______ _____ _____    ______ ____
ROOT
ATOM      1  C   UNL     1      48.461   6.716  13.846  0.00  0.00    +0.000 C 
ENDROOT
BRANCH   1   2
ATOM      2  C   UNL     1      47.329   6.141  13.034  0.00  0.00    +0.000 A 
ATOM      3  C   UNL     1      46.609   5.033  13.501  0.00  0.00    +0.000 A 
ATOM      4  C   UNL     1      45.537   4.514  12.767  0.00  0.00    +0.000 A 
ATOM      5  C   UNL     1      45.177   5.074  11.535  0.00  0.00    +0.000 A 
ATOM      6  C   UNL     1      45.899   6.182  11.065  0.00  0.00    +0.000 A 
ATOM      7  C   UNL     1      46.971   6.701  11.801  0.00  0.00    +0.000 A 
BRANCH   5   8
ATOM      8  C   UNL     1      44.050   4.483  10.718  0.00  0.00    +0.000 C 
BRANCH   8   9
ATOM      9  N   UNL     1      44.317   4.600   9.292  0.00  0.00    +0.000 N 
ATOM     10  H   UNL     1      44.416   5.553   8.956  0.00  0.00    +0.000 HD
BRANCH   9  11
ATOM     11  C   UNL     1      45.106   3.656   8.630  0.00  0.00    +0.000 A 
ATOM     12  C   UNL     1      46.110   3.990   7.718  0.00  0.00    +0.000 A 
ATOM     13  C   UNL     1      46.914   2.988   7.188  0.00  0.00    +0.000 A 
ATOM     14  N   UNL     1      46.806   1.685   7.508  0.00  0.00    +0.000 NA
ATOM     15  C   UNL     1      45.852   1.377   8.409  0.00  0.00    +0.000 A 
ATOM     16  C   UNL     1      45.001   2.309   8.988  0.00  0.00    +0.000 A 
ENDBRANCH   9  11
ENDBRANCH   8   9
ENDBRANCH   5   8
ENDBRANCH   1   2
BRANCH   1  19
ATOM     17  O   UNL     1      50.259   6.212  15.879  0.00  0.00    +0.000 OA
ATOM     18  C   UNL     1      49.133   6.595  16.189  0.00  0.00    +0.000 C 
ATOM     19  N   UNL     1      48.147   6.792  15.251  0.00  0.00    +0.000 N 
ATOM     20  H   UNL     1      47.314   7.312  15.511  0.00  0.00    +0.000 HD
BRANCH  18  21
ATOM     21  C   UNL     1      48.768   6.824  17.590  0.00  0.00    +0.000 A 
ATOM     22  C   UNL     1      48.369   8.086  18.005  0.00  0.00    +0.000 A 
ATOM     23  S   UNL     1      47.999   8.173  19.669  0.00  0.00    +0.000 S 
ATOM     24  C   UNL     1      48.303   6.514  19.877  0.00  0.00    +0.000 A 
ATOM     25  N   UNL     1      48.136   5.917  21.090  0.00  0.00    +0.000 NA
ATOM     26  C   UNL     1      48.354   4.644  21.092  0.00  0.00    +0.000 A 
ATOM     27  N   UNL     1      48.739   3.915  19.998  0.00  0.00    +0.000 N 
ATOM     28  C   UNL     1      48.967   4.480  18.766  0.00  0.00    +0.000 A 
ATOM     29  O   UNL     1      49.379   3.812  17.824  0.00  0.00    +0.000 OA
ATOM     30  C   UNL     1      48.710   5.908  18.703  0.00  0.00    +0.000 A 
ATOM     31  H   UNL     1      48.906   2.923  20.070  0.00  0.00    +0.000 HD
ENDBRANCH  18  21
ENDBRANCH   1  19
TORSDOF 6
ENDMDL
MODEL 4
REMARK VINA RESULT:    -7.681      1.752      3.408
REMARK INTER + INTRA:         -11.481
REMARK INTER:                 -10.311
REMARK INTRA:                  -1.170
REMARK UNBOUND:                -1.106
REMARK  Name = 
REMARK  6 active torsions:
REMARK  status: ('A' for Active; 'I' for Inactive)
REMARK    1  A    between atoms: C_2  and  C_19
REMARK    2  A    between atoms: N_3  and  C_4
REMARK    3  A    between atoms: C_4  and  C_5
REMARK    4  A    between atoms: C_8  and  C_9
REMARK    5  A    between atoms: C_9  and  N_10
REMARK    6  A    between atoms: N_10  and  C_11
REMARK                            x       y       z     vdW  Elec       q    Type
REMARK                         _______ _______ _______ _____ _____    ______ ____
ROOT
ATOM      1  C   UNL     1      46.573   4.186  14.367  0.00  0.00    +0.000 C 
ENDROOT
BRANCH   1   2
ATOM      2  C   UNL     1      46.019   4.255  12.967  0.00  0.00    +0.000 A 
ATOM      3  C   UNL     1      45.281   3.187  12.440  0.00  0.00    +0.000 A 
ATOM      4  C   UNL     1      44.738   3.258  11.152  0.00  0.00    +0.000 A 
ATOM      5  C   UNL     1      44.943   4.389  10.352  0.00  0.00    +0.000 A 
ATOM      6  C   UNL     1      45.684   5.458  10.878  0.00  0.00    +0.000 A 
ATOM      7  C   UNL     1      46.227   5.386  12.167  0.00  0.00    +0.000 A 
BRANCH   5   8
ATOM      8  C   UNL     1      44.397   4.447   8.943  0.00  0.00    +0.000 C 
BRANCH   8   9
ATOM      9  N   UNL     1      44.450   3.140   8.304  0.00  0.00    +0.000 N 
ATOM     10  H   UNL     1      43.657   2.928   7.707  0.00  0.00    +0.000 HD
BRANCH   9  11
ATOM     11  C   UNL     1      45.667   2.595   7.886  0.00  0.00    +0.000 A 
ATOM     12  C   UNL     1      46.032   1.264   8.097  0.00  0.00    +0.000 A 
ATOM     13  C   UNL     1      47.217   0.783   7.553  0.00  0.00    +0.000 A 
ATOM     14  N   UNL     1      48.056   1.522   6.804  0.00  0.00    +0.000 NA
ATOM     15  C   UNL     1      47.682   2.798   6.583  0.00  0.00    +0.000 A 
ATOM     16  C   UNL     1      46.519   3.364   7.089  0.00  0.00    +0.000 A 
ENDBRANCH   9  11
ENDBRANCH   8   9
ENDBRANCH   5   8
ENDBRANCH   1   2
BRANCH   1  19
ATOM     17  O   UNL     1      48.507   4.403  16.324  0.00  0.00    +0.000 OA
ATOM     18  C   UNL     1      48.188   5.422  15.715  0.00  0.00    +0.000 C 
ATOM     19  N   UNL     1      47.179   5.427  14.782  0.00  0.00    +0.000 N 
ATOM     20  H   UNL     1      47.094   6.217  14.150  0.00  0.00    +0.000 HD
BRANCH  18  21
ATOM     21  C   UNL     1      48.846   6.704  15.984  0.00  0.00    +0.000 A 
ATOM     22  C   UNL     1      48.924   7.185  17.283  0.00  0.00    +0.000 A 
ATOM     23  S   UNL     1      49.708   8.695  17.407  0.00  0.00    +0.000 S 
ATOM     24  C   UNL     1      50.021   8.729  15.736  0.00  0.00    +0.000 A 
ATOM     25  N   UNL     1      50.709   9.761  15.173  0.00  0.00    +0.000 NA
ATOM     26  C   UNL     1      50.918   9.633  13.905  0.00  0.00    +0.000 A 
ATOM     27  N   UNL     1      50.489   8.576  13.146  0.00  0.00    +0.000 N 
ATOM     28  C   UNL     1      49.750   7.537  13.659  0.00  0.00    +0.000 A 
ATOM     29  O   UNL     1      49.320   6.643  12.938  0.00  0.00    +0.000 OA
ATOM     30  C   UNL     1      49.510   7.621  15.089  0.00  0.00    +0.000 A 
ATOM     31  H   UNL     1      50.674   8.543  12.154  0.00  0.00    +0.000 HD
ENDBRANCH  18  21
ENDBRANCH   1  19
TORSDOF 6
ENDMDL
MODEL 5
REMARK VINA RESULT:    -6.844      3.568      7.783
REMARK INTER + INTRA:         -10.351
REMARK INTER:                  -8.800
REMARK INTRA:                  -1.551
REMARK UNBOUND:                -1.106
REMARK  Name = 
REMARK  6 active torsions:
REMARK  status: ('A' for Active; 'I' for Inactive)
REMARK    1  A    between atoms: C_2  and  C_19
REMARK    2  A    between atoms: N_3  and  C_4
REMARK    3  A    between atoms: C_4  and  C_5
REMARK    4  A    between atoms: C_8  and  C_9
REMARK    5  A    between atoms: C_9  and  N_10
REMARK    6  A    between atoms: N_10  and  C_11
REMARK                            x       y       z     vdW  Elec       q    Type
REMARK                         _______ _______ _______ _____ _____    ______ ____
ROOT
ATOM      1  C   UNL     1      48.432   9.257  15.446  0.00  0.00    +0.000 C 
ENDROOT
BRANCH   1   2
ATOM      2  C   UNL     1      49.047   8.302  16.435  0.00  0.00    +0.000 A 
ATOM      3  C   UNL     1      48.470   8.117  17.699  0.00  0.00    +0.000 A 
ATOM      4  C   UNL     1      49.019   7.208  18.611  0.00  0.00    +0.000 A 
ATOM      5  C   UNL     1      50.173   6.482  18.290  0.00  0.00    +0.000 A 
ATOM      6  C   UNL     1      50.753   6.669  17.025  0.00  0.00    +0.000 A 
ATOM      7  C   UNL     1      50.203   7.578  16.114  0.00  0.00    +0.000 A 
BRANCH   5   8
ATOM      8  C   UNL     1      50.794   5.536  19.292  0.00  0.00    +0.000 C 
BRANCH   8   9
ATOM      9  N   UNL     1      49.960   4.360  19.492  0.00  0.00    +0.000 N 
ATOM     10  H   UNL     1      49.195   4.489  20.146  0.00  0.00    +0.000 HD
BRANCH   9  11
ATOM     11  C   UNL     1      49.694   3.482  18.437  0.00  0.00    +0.000 A 
ATOM     12  C   UNL     1      48.457   3.400  17.793  0.00  0.00    +0.000 A 
ATOM     13  C   UNL     1      48.315   2.573  16.686  0.00  0.00    +0.000 A 
ATOM     14  N   UNL     1      49.313   1.836  16.163  0.00  0.00    +0.000 NA
ATOM     15  C   UNL     1      50.509   1.943  16.775  0.00  0.00    +0.000 A 
ATOM     16  C   UNL     1      50.743   2.740  17.888  0.00  0.00    +0.000 A 
ENDBRANCH   9  11
ENDBRANCH   8   9
ENDBRANCH   5   8
ENDBRANCH   1   2
BRANCH   1  19
ATOM     17  O   UNL     1      48.708   8.125  12.944  0.00  0.00    +0.000 OA
ATOM     18  C   UNL     1      47.609   8.054  13.490  0.00  0.00    +0.000 C 
ATOM     19  N   UNL     1      47.355   8.658  14.698  0.00  0.00    +0.000 N 
ATOM     20  H   UNL     1      46.522   8.396  15.216  0.00  0.00    +0.000 HD
BRANCH  18  21
ATOM     21  C   UNL     1      46.492   7.348  12.855  0.00  0.00    +0.000 A 
ATOM     22  C   UNL     1      45.596   8.045  12.056  0.00  0.00    +0.000 A 
ATOM     23  S   UNL     1      44.352   7.069  11.415  0.00  0.00    +0.000 S 
ATOM     24  C   UNL     1      45.002   5.674  12.135  0.00  0.00    +0.000 A 
ATOM     25  N   UNL     1      44.423   4.455  11.950  0.00  0.00    +0.000 NA
ATOM     26  C   UNL     1      45.050   3.476  12.513  0.00  0.00    +0.000 A 
ATOM     27  N   UNL     1      46.193   3.606  13.258  0.00  0.00    +0.000 N 
ATOM     28  C   UNL     1      46.786   4.819  13.513  0.00  0.00    +0.000 A 
ATOM     29  O   UNL     1      47.768   4.909  14.242  0.00  0.00    +0.000 OA
ATOM     30  C   UNL     1      46.133   5.951  12.879  0.00  0.00    +0.000 A 
ATOM     31  H   UNL     1      46.628   2.801  13.683  0.00  0.00    +0.000 HD
ENDBRANCH  18  21
ENDBRANCH   1  19
TORSDOF 6
ENDMDL
MODEL 6
REMARK VINA RESULT:    -6.785      2.728      4.024
REMARK INTER + INTRA:         -10.270
REMARK INTER:                  -9.236
REMARK INTRA:                  -1.035
REMARK UNBOUND:                -1.106
REMARK  Name = 
REMARK  6 active torsions:
REMARK  status: ('A' for Active; 'I' for Inactive)
REMARK    1  A    between atoms: C_2  and  C_19
REMARK    2  A    between atoms: N_3  and  C_4
REMARK    3  A    between atoms: C_4  and  C_5
REMARK    4  A    between atoms: C_8  and  C_9
REMARK    5  A    between atoms: C_9  and  N_10
REMARK    6  A    between atoms: N_10  and  C_11
REMARK                            x       y       z     vdW  Elec       q    Type
REMARK                         _______ _______ _______ _____ _____    ______ ____
ROOT
ATOM      1  C   UNL     1      47.798   4.511  15.936  0.00  0.00    +0.000 C 
ENDROOT
BRANCH   1   2
ATOM      2  C   UNL     1      47.198   4.945  14.624  0.00  0.00    +0.000 A 
ATOM      3  C   UNL     1      47.746   6.020  13.911  0.00  0.00    +0.000 A 
ATOM      4  C   UNL     1      47.212   6.408  12.677  0.00  0.00    +0.000 A 
ATOM      5  C   UNL     1      46.101   5.746  12.140  0.00  0.00    +0.000 A 
ATOM      6  C   UNL     1      45.549   4.672  12.854  0.00  0.00    +0.000 A 
ATOM      7  C   UNL     1      46.085   4.284  14.088  0.00  0.00    +0.000 A 
BRANCH   5   8
ATOM      8  C   UNL     1      45.494   6.196  10.830  0.00  0.00    +0.000 C 
BRANCH   8   9
ATOM      9  N   UNL     1      44.614   5.176  10.280  0.00  0.00    +0.000 N 
ATOM     10  H   UNL     1      43.660   5.483  10.115  0.00  0.00    +0.000 HD
BRANCH   9  11
ATOM     11  C   UNL     1      45.094   4.228   9.372  0.00  0.00    +0.000 A 
ATOM     12  C   UNL     1      45.902   4.545   8.277  0.00  0.00    +0.000 A 
ATOM     13  C   UNL     1      46.418   3.525   7.488  0.00  0.00    +0.000 A 
ATOM     14  N   UNL     1      46.205   2.215   7.716  0.00  0.00    +0.000 NA
ATOM     15  C   UNL     1      45.447   1.919   8.790  0.00  0.00    +0.000 A 
ATOM     16  C   UNL     1      44.887   2.871   9.631  0.00  0.00    +0.000 A 
ENDBRANCH   9  11
ENDBRANCH   8   9
ENDBRANCH   5   8
ENDBRANCH   1   2
BRANCH   1  19
ATOM     17  O   UNL     1      49.698   6.101  17.153  0.00  0.00    +0.000 OA
ATOM     18  C   UNL     1      48.525   6.244  17.493  0.00  0.00    +0.000 C 
ATOM     19  N   UNL     1      47.522   5.442  17.002  0.00  0.00    +0.000 N 
ATOM     20  H   UNL     1      46.556   5.726  17.130  0.00  0.00    +0.000 HD
BRANCH  18  21
ATOM     21  C   UNL     1      48.139   7.258  18.477  0.00  0.00    +0.000 A 
ATOM     22  C   UNL     1      48.008   6.911  19.815  0.00  0.00    +0.000 A 
ATOM     23  S   UNL     1      47.536   8.212  20.814  0.00  0.00    +0.000 S 
ATOM     24  C   UNL     1      47.548   9.293  19.503  0.00  0.00    +0.000 A 
ATOM     25  N   UNL     1      47.263  10.613  19.681  0.00  0.00    +0.000 NA
ATOM     26  C   UNL     1      47.358  11.328  18.610  0.00  0.00    +0.000 A 
ATOM     27  N   UNL     1      47.697  10.842  17.374  0.00  0.00    +0.000 N 
ATOM     28  C   UNL     1      47.946   9.511  17.136  0.00  0.00    +0.000 A 
ATOM     29  O   UNL     1      48.177   9.098  16.005  0.00  0.00    +0.000 OA
ATOM     30  C   UNL     1      47.877   8.668  18.316  0.00  0.00    +0.000 A 
ATOM     31  H   UNL     1      47.741  11.453  16.572  0.00  0.00    +0.000 HD
ENDBRANCH  18  21
ENDBRANCH   1  19
TORSDOF 6
ENDMDL
MODEL 7
REMARK VINA RESULT:    -6.668      2.603      3.557
REMARK INTER + INTRA:         -10.113
REMARK INTER:                  -8.715
REMARK INTRA:                  -1.397
REMARK UNBOUND:                -1.106
REMARK  Name = 
REMARK  6 active torsions:
REMARK  status: ('A' for Active; 'I' for Inactive)
REMARK    1  A    between atoms: C_2  and  C_19
REMARK    2  A    between atoms: N_3  and  C_4
REMARK    3  A    between atoms: C_4  and  C_5
REMARK    4  A    between atoms: C_8  and  C_9
REMARK    5  A    between atoms: C_9  and  N_10
REMARK    6  A    between atoms: N_10  and  C_11
REMARK                            x       y       z     vdW  Elec       q    Type
REMARK                         _______ _______ _______ _____ _____    ______ ____
ROOT
ATOM      1  C   UNL     1      49.256   7.967  13.586  0.00  0.00    +0.000 C 
ENDROOT
BRANCH   1   2
ATOM      2  C   UNL     1      47.896   7.893  12.940  0.00  0.00    +0.000 A 
ATOM      3  C   UNL     1      46.863   8.743  13.359  0.00  0.00    +0.000 A 
ATOM      4  C   UNL     1      45.607   8.701  12.741  0.00  0.00    +0.000 A 
ATOM      5  C   UNL     1      45.348   7.790  11.710  0.00  0.00    +0.000 A 
ATOM      6  C   UNL     1      46.382   6.937  11.292  0.00  0.00    +0.000 A 
ATOM      7  C   UNL     1      47.638   6.980  11.910  0.00  0.00    +0.000 A 
BRANCH   5   8
ATOM      8  C   UNL     1      43.978   7.711  11.076  0.00  0.00    +0.000 C 
BRANCH   8   9
ATOM      9  N   UNL     1      43.129   6.757  11.775  0.00  0.00    +0.000 N 
ATOM     10  H   UNL     1      42.168   7.060  11.901  0.00  0.00    +0.000 HD
BRANCH   9  11
ATOM     11  C   UNL     1      43.296   5.382  11.596  0.00  0.00    +0.000 A 
ATOM     12  C   UNL     1      43.636   4.797  10.374  0.00  0.00    +0.000 A 
ATOM     13  C   UNL     1      43.884   3.430  10.314  0.00  0.00    +0.000 A 
ATOM     14  N   UNL     1      43.835   2.608  11.379  0.00  0.00    +0.000 NA
ATOM     15  C   UNL     1      43.533   3.187  12.558  0.00  0.00    +0.000 A 
ATOM     16  C   UNL     1      43.266   4.541  12.712  0.00  0.00    +0.000 A 
ENDBRANCH   9  11
ENDBRANCH   8   9
ENDBRANCH   5   8
ENDBRANCH   1   2
BRANCH   1  19
ATOM     17  O   UNL     1      49.265   8.548  16.285  0.00  0.00    +0.000 OA
ATOM     18  C   UNL     1      49.338   7.367  15.950  0.00  0.00    +0.000 C 
ATOM     19  N   UNL     1      49.422   6.988  14.632  0.00  0.00    +0.000 N 
ATOM     20  H   UNL     1      49.259   6.017  14.385  0.00  0.00    +0.000 HD
BRANCH  18  21
ATOM     21  C   UNL     1      49.380   6.297  16.950  0.00  0.00    +0.000 A 
ATOM     22  C   UNL     1      50.215   6.410  18.053  0.00  0.00    +0.000 A 
ATOM     23  S   UNL     1      50.148   5.066  19.102  0.00  0.00    +0.000 S 
ATOM     24  C   UNL     1      48.958   4.315  18.148  0.00  0.00    +0.000 A 
ATOM     25  N   UNL     1      48.423   3.116  18.512  0.00  0.00    +0.000 NA
ATOM     26  C   UNL     1      47.495   2.686  17.724  0.00  0.00    +0.000 A 
ATOM     27  N   UNL     1      47.064   3.336  16.597  0.00  0.00    +0.000 N 
ATOM     28  C   UNL     1      47.607   4.522  16.163  0.00  0.00    +0.000 A 
ATOM     29  O   UNL     1      47.248   5.041  15.112  0.00  0.00    +0.000 OA
ATOM     30  C   UNL     1      48.638   5.062  17.031  0.00  0.00    +0.000 A 
ATOM     31  H   UNL     1      46.342   2.938  16.014  0.00  0.00    +0.000 HD
ENDBRANCH  18  21
ENDBRANCH   1  19
TORSDOF 6
ENDMDL
MODEL 8
REMARK VINA RESULT:    -6.653      3.333      8.011
REMARK INTER + INTRA:         -10.093
REMARK INTER:                  -8.872
REMARK INTRA:                  -1.221
REMARK UNBOUND:                -1.106
REMARK  Name = 
REMARK  6 active torsions:
REMARK  status: ('A' for Active; 'I' for Inactive)
REMARK    1  A    between atoms: C_2  and  C_19
REMARK    2  A    between atoms: N_3  and  C_4
REMARK    3  A    between atoms: C_4  and  C_5
REMARK    4  A    between atoms: C_8  and  C_9
REMARK    5  A    between atoms: C_9  and  N_10
REMARK    6  A    between atoms: N_10  and  C_11
REMARK                            x       y       z     vdW  Elec       q    Type
REMARK                         _______ _______ _______ _____ _____    ______ ____
ROOT
ATOM      1  C   UNL     1      48.156   8.160  11.999  0.00  0.00    +0.000 C 
ENDROOT
BRANCH   1   2
ATOM      2  C   UNL     1      48.527   8.050  13.456  0.00  0.00    +0.000 A 
ATOM      3  C   UNL     1      49.580   7.218  13.861  0.00  0.00    +0.000 A 
ATOM      4  C   UNL     1      49.949   7.135  15.208  0.00  0.00    +0.000 A 
ATOM      5  C   UNL     1      49.256   7.860  16.185  0.00  0.00    +0.000 A 
ATOM      6  C   UNL     1      48.199   8.691  15.781  0.00  0.00    +0.000 A 
ATOM      7  C   UNL     1      47.831   8.774  14.432  0.00  0.00    +0.000 A 
BRANCH   5   8
ATOM      8  C   UNL     1      49.623   7.733  17.646  0.00  0.00    +0.000 C 
BRANCH   8   9
ATOM      9  N   UNL     1      48.809   6.725  18.308  0.00  0.00    +0.000 N 
ATOM     10  H   UNL     1      47.893   7.047  18.603  0.00  0.00    +0.000 HD
BRANCH   9  11
ATOM     11  C   UNL     1      48.864   5.386  17.912  0.00  0.00    +0.000 A 
ATOM     12  C   UNL     1      47.802   4.715  17.302  0.00  0.00    +0.000 A 
ATOM     13  C   UNL     1      47.983   3.414  16.847  0.00  0.00    +0.000 A 
ATOM     14  N   UNL     1      49.144   2.739  16.939  0.00  0.00    +0.000 NA
ATOM     15  C   UNL     1      50.170   3.404  17.505  0.00  0.00    +0.000 A 
ATOM     16  C   UNL     1      50.080   4.702  17.991  0.00  0.00    +0.000 A 
ENDBRANCH   9  11
ENDBRANCH   8   9
ENDBRANCH   5   8
ENDBRANCH   1   2
BRANCH   1  19
ATOM     17  O   UNL     1      45.422   7.818  11.844  0.00  0.00    +0.000 OA
ATOM     18  C   UNL     1      46.139   6.926  11.397  0.00  0.00    +0.000 C 
ATOM     19  N   UNL     1      47.509   6.971  11.504  0.00  0.00    +0.000 N 
ATOM     20  H   UNL     1      48.070   6.341  10.938  0.00  0.00    +0.000 HD
BRANCH  18  21
ATOM     21  C   UNL     1      45.565   5.738  10.758  0.00  0.00    +0.000 A 
ATOM     22  C   UNL     1      45.795   5.496   9.411  0.00  0.00    +0.000 A 
ATOM     23  S   UNL     1      45.038   4.080   8.833  0.00  0.00    +0.000 S 
ATOM     24  C   UNL     1      44.426   3.714  10.376  0.00  0.00    +0.000 A 
ATOM     25  N   UNL     1      43.696   2.584  10.590  0.00  0.00    +0.000 NA
ATOM     26  C   UNL     1      43.338   2.406  11.818  0.00  0.00    +0.000 A 
ATOM     27  N   UNL     1      43.628   3.261  12.848  0.00  0.00    +0.000 N 
ATOM     28  C   UNL     1      44.318   4.437  12.673  0.00  0.00    +0.000 A 
ATOM     29  O   UNL     1      44.500   5.215  13.603  0.00  0.00    +0.000 OA
ATOM     30  C   UNL     1      44.768   4.671  11.312  0.00  0.00    +0.000 A 
ATOM     31  H   UNL     1      43.306   3.070  13.785  0.00  0.00    +0.000 HD
ENDBRANCH  18  21
ENDBRANCH   1  19
TORSDOF 6
ENDMDL
MODEL 9
REMARK VINA RESULT:    -6.519      4.100      6.125
REMARK INTER + INTRA:          -9.911
REMARK INTER:                  -9.165
REMARK INTRA:                  -0.746
REMARK UNBOUND:                -1.106
REMARK  Name = 
REMARK  6 active torsions:
REMARK  status: ('A' for Active; 'I' for Inactive)
REMARK    1  A    between atoms: C_2  and  C_19
REMARK    2  A    between atoms: N_3  and  C_4
REMARK    3  A    between atoms: C_4  and  C_5
REMARK    4  A    between atoms: C_8  and  C_9
REMARK    5  A    between atoms: C_9  and  N_10
REMARK    6  A    between atoms: N_10  and  C_11
REMARK                            x       y       z     vdW  Elec       q    Type
REMARK                         _______ _______ _______ _____ _____    ______ ____
ROOT
ATOM      1  C   UNL     1      46.388   4.519  14.106  0.00  0.00    +0.000 C 
ENDROOT
BRANCH   1   2
ATOM      2  C   UNL     1      45.905   5.713  13.324  0.00  0.00    +0.000 A 
ATOM      3  C   UNL     1      44.606   5.741  12.799  0.00  0.00    +0.000 A 
ATOM      4  C   UNL     1      44.141   6.860  12.098  0.00  0.00    +0.000 A 
ATOM      5  C   UNL     1      44.974   7.965  11.883  0.00  0.00    +0.000 A 
ATOM      6  C   UNL     1      46.276   7.936  12.405  0.00  0.00    +0.000 A 
ATOM      7  C   UNL     1      46.740   6.816  13.107  0.00  0.00    +0.000 A 
BRANCH   5   8
ATOM      8  C   UNL     1      44.488   9.153  11.084  0.00  0.00    +0.000 C 
BRANCH   8   9
ATOM      9  N   UNL     1      43.093   8.996  10.701  0.00  0.00    +0.000 N 
ATOM     10  H   UNL     1      42.674   8.114  10.982  0.00  0.00    +0.000 HD
BRANCH   9  11
ATOM     11  C   UNL     1      42.222  10.088  10.699  0.00  0.00    +0.000 A 
ATOM     12  C   UNL     1      40.862   9.995  11.001  0.00  0.00    +0.000 A 
ATOM     13  C   UNL     1      40.095  11.151  11.075  0.00  0.00    +0.000 A 
ATOM     14  N   UNL     1      40.583  12.392  10.888  0.00  0.00    +0.000 NA
ATOM     15  C   UNL     1      41.902  12.474  10.623  0.00  0.00    +0.000 A 
ATOM     16  C   UNL     1      42.744  11.374  10.526  0.00  0.00    +0.000 A 
ENDBRANCH   9  11
ENDBRANCH   8   9
ENDBRANCH   5   8
ENDBRANCH   1   2
BRANCH   1  19
ATOM     17  O   UNL     1      46.579   3.424  16.633  0.00  0.00    +0.000 OA
ATOM     18  C   UNL     1      47.455   4.210  16.278  0.00  0.00    +0.000 C 
ATOM     19  N   UNL     1      47.401   4.866  15.072  0.00  0.00    +0.000 N 
ATOM     20  H   UNL     1      48.235   5.327  14.722  0.00  0.00    +0.000 HD
BRANCH  18  21
ATOM     21  C   UNL     1      48.593   4.521  17.149  0.00  0.00    +0.000 A 
ATOM     22  C   UNL     1      48.595   5.692  17.895  0.00  0.00    +0.000 A 
ATOM     23  S   UNL     1      50.003   5.899  18.837  0.00  0.00    +0.000 S 
ATOM     24  C   UNL     1      50.629   4.404  18.325  0.00  0.00    +0.000 A 
ATOM     25  N   UNL     1      51.822   3.945  18.796  0.00  0.00    +0.000 NA
ATOM     26  C   UNL     1      52.152   2.775  18.363  0.00  0.00    +0.000 A 
ATOM     27  N   UNL     1      51.406   2.026  17.489  0.00  0.00    +0.000 N 
ATOM     28  C   UNL     1      50.222   2.467  16.949  0.00  0.00    +0.000 A 
ATOM     29  O   UNL     1      49.615   1.803  16.116  0.00  0.00    +0.000 OA
ATOM     30  C   UNL     1      49.793   3.769  17.427  0.00  0.00    +0.000 A 
ATOM     31  H   UNL     1      51.728   1.122  17.178  0.00  0.00    +0.000 HD
ENDBRANCH  18  21
ENDBRANCH   1  19
TORSDOF 6
ENDMDL
