MODEL 1
REMARK VINA RESULT:    -8.151      0.000      0.000
REMARK INTER + INTRA:         -14.180
REMARK INTER:                 -12.677
REMARK INTRA:                  -1.503
REMARK UNBOUND:                -1.503
REMARK  Name = 
REMARK  10 active torsions:
REMARK  status: ('A' for Active; 'I' for Inactive)
REMARK    1  A    between atoms: C_2  and  C_23
REMARK    2  A    between atoms: N_3  and  C_4
REMARK    3  A    between atoms: C_4  and  C_5
REMARK    4  A    between atoms: C_8  and  C_9
REMARK    5  A    between atoms: C_9  and  N_10
REMARK    6  A    between atoms: N_10  and  C_11
REMARK    7  A    between atoms: N_10  and  C_14
REMARK    8  A    between atoms: C_11  and  C_12
REMARK    9  A    between atoms: C_12  and  O_13
REMARK   10  A    between atoms: C_14  and  C_15
REMARK                            x       y       z     vdW  Elec       q    Type
REMARK                         _______ _______ _______ _____ _____    ______ ____
ROOT
ATOM      1  C   UNL     1      46.781   7.762  12.755  0.00  0.00    +0.000 A 
ATOM      2  C   UNL     1      47.204   6.629  12.047  0.00  0.00    +0.000 A 
ATOM      3  C   UNL     1      46.314   5.935  11.226  0.00  0.00    +0.000 A 
ATOM      4  C   UNL     1      44.985   6.361  11.104  0.00  0.00    +0.000 A 
ATOM      5  C   UNL     1      44.597   7.560  11.718  0.00  0.00    +0.000 A 
ATOM      6  C   UNL     1      45.490   8.257  12.534  0.00  0.00    +0.000 A 
ENDROOT
BRANCH   1   7
ATOM      7  C   UNL     1      47.690   8.414  13.760  0.00  0.00    +0.000 C 
BRANCH   7  10
ATOM      8  O   UNL     1      50.040   7.094  14.342  0.00  0.00    +0.000 OA
ATOM      9  C   UNL     1      49.125   7.036  15.160  0.00  0.00    +0.000 C 
ATOM     10  N   UNL     1      47.894   7.592  14.920  0.00  0.00    +0.000 N 
ATOM     11  H   UNL     1      47.244   7.718  15.689  0.00  0.00    +0.000 HD
BRANCH   9  12
ATOM     12  C   UNL     1      49.283   6.327  16.433  0.00  0.00    +0.000 A 
ATOM     13  C   UNL     1      50.082   6.868  17.430  0.00  0.00    +0.000 A 
ATOM     14  S   UNL     1      50.160   5.904  18.836  0.00  0.00    +0.000 S 
ATOM     15  C   UNL     1      49.085   4.761  18.179  0.00  0.00    +0.000 A 
ATOM     16  N   UNL     1      48.690   3.675  18.896  0.00  0.00    +0.000 NA
ATOM     17  C   UNL     1      47.845   2.911  18.288  0.00  0.00    +0.000 A 
ATOM     18  N   UNL     1      47.362   3.131  17.025  0.00  0.00    +0.000 N 
ATOM     19  C   UNL     1      47.760   4.192  16.252  0.00  0.00    +0.000 A 
ATOM     20  O   UNL     1      47.357   4.325  15.099  0.00  0.00    +0.000 OA
ATOM     21  C   UNL     1      48.696   5.094  16.895  0.00  0.00    +0.000 A 
ATOM     22  H   UNL     1      46.713   2.487  16.598  0.00  0.00    +0.000 HD
ENDBRANCH   9  12
ENDBRANCH   7  10
ENDBRANCH   1   7
BRANCH   4  23
ATOM     23  C   UNL     1      43.973   5.515  10.360  0.00  0.00    +0.000 C 
BRANCH  23  24
ATOM     24  N   UNL     1      44.434   4.124  10.095  0.00  0.00    +0.000 NA
BRANCH  24  25
ATOM     25  C   UNL     1      43.635   3.149  10.880  0.00  0.00    +0.000 C 
BRANCH  25  26
ATOM     26  C   UNL     1      43.987   3.061  12.378  0.00  0.00    +0.000 C 
BRANCH  26  27
ATOM     27  O   UNL     1      45.366   2.737  12.552  0.00  0.00    +0.000 OA
ATOM     28  H   UNL     1      45.500   2.543  13.496  0.00  0.00    +0.000 HD
ENDBRANCH  26  27
ENDBRANCH  25  26
ENDBRANCH  24  25
BRANCH  24  29
ATOM     29  C   UNL     1      44.326   3.827   8.651  0.00  0.00    +0.000 C 
BRANCH  29  30
ATOM     30  C   UNL     1      45.450   2.990   8.099  0.00  0.00    +0.000 A 
ATOM     31  C   UNL     1      46.423   3.527   7.251  0.00  0.00    +0.000 A 
ATOM     32  C   UNL     1      47.467   2.723   6.804  0.00  0.00    +0.000 A 
ATOM     33  C   UNL     1      47.501   1.403   7.220  0.00  0.00    +0.000 A 
ATOM     34  N   UNL     1      46.576   0.844   8.031  0.00  0.00    +0.000 NA
ATOM     35  C   UNL     1      45.577   1.648   8.453  0.00  0.00    +0.000 A 
ENDBRANCH  29  30
ENDBRANCH  24  29
ENDBRANCH  23  24
ENDBRANCH   4  23
TORSDOF 10
ENDMDL
MODEL 2
REMARK VINA RESULT:    -7.902      2.581      3.186
REMARK INTER + INTRA:         -13.793
REMARK INTER:                 -12.580
REMARK INTRA:                  -1.214
REMARK UNBOUND:                -1.503
REMARK  Name = 
REMARK  10 active torsions:
REMARK  status: ('A' for Active; 'I' for Inactive)
REMARK    1  A    between atoms: C_2  and  C_23
REMARK    2  A    between atoms: N_3  and  C_4
REMARK    3  A    between atoms: C_4  and  C_5
REMARK    4  A    between atoms: C_8  and  C_9
REMARK    5  A    between atoms: C_9  and  N_10
REMARK    6  A    between atoms: N_10  and  C_11
REMARK    7  A    between atoms: N_10  and  C_14
REMARK    8  A    between atoms: C_11  and  C_12
REMARK    9  A    between atoms: C_12  and  O_13
REMARK   10  A    between atoms: C_14  and  C_15
REMARK                            x       y       z     vdW  Elec       q    Type
REMARK                         _______ _______ _______ _____ _____    ______ ____
ROOT
ATOM      1  C   UNL     1      47.034   4.644  14.747  0.00  0.00    +0.000 A 
ATOM      2  C   UNL     1      46.578   3.589  13.945  0.00  0.00    +0.000 A 
ATOM      3  C   UNL     1      46.193   3.820  12.624  0.00  0.00    +0.000 A 
ATOM      4  C   UNL     1      46.255   5.111  12.084  0.00  0.00    +0.000 A 
ATOM      5  C   UNL     1      46.822   6.140  12.848  0.00  0.00    +0.000 A 
ATOM      6  C   UNL     1      47.213   5.907  14.168  0.00  0.00    +0.000 A 
ENDROOT
BRANCH   1   7
ATOM      7  C   UNL     1      47.295   4.429  16.212  0.00  0.00    +0.000 C 
BRANCH   7  10
ATOM      8  O   UNL     1      48.598   5.352  18.460  0.00  0.00    +0.000 OA
ATOM      9  C   UNL     1      49.227   4.651  17.672  0.00  0.00    +0.000 C 
ATOM     10  N   UNL     1      48.688   4.215  16.489  0.00  0.00    +0.000 N 
ATOM     11  H   UNL     1      49.146   3.469  15.975  0.00  0.00    +0.000 HD
BRANCH   9  12
ATOM     12  C   UNL     1      50.620   4.272  17.933  0.00  0.00    +0.000 A 
ATOM     13  C   UNL     1      51.491   5.190  18.500  0.00  0.00    +0.000 A 
ATOM     14  S   UNL     1      53.070   4.582  18.720  0.00  0.00    +0.000 S 
ATOM     15  C   UNL     1      52.626   3.055  18.116  0.00  0.00    +0.000 A 
ATOM     16  N   UNL     1      53.521   2.033  18.065  0.00  0.00    +0.000 NA
ATOM     17  C   UNL     1      53.039   0.921  17.619  0.00  0.00    +0.000 A 
ATOM     18  N   UNL     1      51.742   0.739  17.214  0.00  0.00    +0.000 N 
ATOM     19  C   UNL     1      50.815   1.751  17.214  0.00  0.00    +0.000 A 
ATOM     20  O   UNL     1      49.679   1.571  16.784  0.00  0.00    +0.000 OA
ATOM     21  C   UNL     1      51.300   3.019  17.725  0.00  0.00    +0.000 A 
ATOM     22  H   UNL     1      51.429  -0.152  16.859  0.00  0.00    +0.000 HD
ENDBRANCH   9  12
ENDBRANCH   7  10
ENDBRANCH   1   7
BRANCH   4  23
ATOM     23  C   UNL     1      45.675   5.400  10.716  0.00  0.00    +0.000 C 
BRANCH  23  24
ATOM     24  N   UNL     1      44.453   4.608  10.403  0.00  0.00    +0.000 NA
BRANCH  24  25
ATOM     25  C   UNL     1      43.241   5.286  10.927  0.00  0.00    +0.000 C 
BRANCH  25  26
ATOM     26  C   UNL     1      42.742   4.782  12.297  0.00  0.00    +0.000 C 
BRANCH  26  27
ATOM     27  O   UNL     1      42.932   5.781  13.299  0.00  0.00    +0.000 OA
ATOM     28  H   UNL     1      42.443   6.572  13.013  0.00  0.00    +0.000 HD
ENDBRANCH  26  27
ENDBRANCH  25  26
ENDBRANCH  24  25
BRANCH  24  29
ATOM     29  C   UNL     1      44.340   4.416   8.942  0.00  0.00    +0.000 C 
BRANCH  29  30
ATOM     30  C   UNL     1      45.273   3.379   8.372  0.00  0.00    +0.000 A 
ATOM     31  C   UNL     1      46.199   3.690   7.373  0.00  0.00    +0.000 A 
ATOM     32  C   UNL     1      47.070   2.708   6.911  0.00  0.00    +0.000 A 
ATOM     33  C   UNL     1      46.983   1.443   7.466  0.00  0.00    +0.000 A 
ATOM     34  N   UNL     1      46.097   1.100   8.427  0.00  0.00    +0.000 NA
ATOM     35  C   UNL     1      45.267   2.074   8.859  0.00  0.00    +0.000 A 
ENDBRANCH  29  30
ENDBRANCH  24  29
ENDBRANCH  23  24
ENDBRANCH   4  23
TORSDOF 10
ENDMDL
MODEL 3
REMARK VINA RESULT:    -7.800      2.291      2.845
REMARK INTER + INTRA:         -13.635
REMARK INTER:                 -12.408
REMARK INTRA:                  -1.226
REMARK UNBOUND:                -1.503
REMARK  Name = 
REMARK  10 active torsions:
REMARK  status: ('A' for Active; 'I' for Inactive)
REMARK    1  A    between atoms: C_2  and  C_23
REMARK    2  A    between atoms: N_3  and  C_4
REMARK    3  A    between atoms: C_4  and  C_5
REMARK    4  A    between atoms: C_8  and  C_9
REMARK    5  A    between atoms: C_9  and  N_10
REMARK    6  A    between atoms: N_10  and  C_11
REMARK    7  A    between atoms: N_10  and  C_14
REMARK    8  A    between atoms: C_11  and  C_12
REMARK    9  A    between atoms: C_12  and  O_13
REMARK   10  A    between atoms: C_14  and  C_15
REMARK                            x       y       z     vdW  Elec       q    Type
REMARK                         _______ _______ _______ _____ _____    ______ ____
ROOT
ATOM      1  C   UNL     1      48.129   6.580  13.626  0.00  0.00    +0.000 A 
ATOM      2  C   UNL     1      47.157   5.614  13.922  0.00  0.00    +0.000 A 
ATOM      3  C   UNL     1      46.135   5.338  13.013  0.00  0.00    +0.000 A 
ATOM      4  C   UNL     1      46.067   6.025  11.794  0.00  0.00    +0.000 A 
ATOM      5  C   UNL     1      47.104   6.902  11.451  0.00  0.00    +0.000 A 
ATOM      6  C   UNL     1      48.130   7.174  12.358  0.00  0.00    +0.000 A 
ENDROOT
BRANCH   1   7
ATOM      7  C   UNL     1      49.133   6.993  14.666  0.00  0.00    +0.000 C 
BRANCH   7  10
ATOM      8  O   UNL     1      50.724   5.753  16.546  0.00  0.00    +0.000 OA
ATOM      9  C   UNL     1      49.597   6.105  16.883  0.00  0.00    +0.000 C 
ATOM     10  N   UNL     1      48.707   6.655  15.995  0.00  0.00    +0.000 N 
ATOM     11  H   UNL     1      47.881   7.130  16.345  0.00  0.00    +0.000 HD
BRANCH   9  12
ATOM     12  C   UNL     1      49.117   5.918  18.256  0.00  0.00    +0.000 A 
ATOM     13  C   UNL     1      49.296   4.697  18.890  0.00  0.00    +0.000 A 
ATOM     14  S   UNL     1      48.666   4.656  20.475  0.00  0.00    +0.000 S 
ATOM     15  C   UNL     1      48.185   6.285  20.385  0.00  0.00    +0.000 A 
ATOM     16  N   UNL     1      47.601   6.904  21.446  0.00  0.00    +0.000 NA
ATOM     17  C   UNL     1      47.320   8.149  21.251  0.00  0.00    +0.000 A 
ATOM     18  N   UNL     1      47.567   8.832  20.089  0.00  0.00    +0.000 N 
ATOM     19  C   UNL     1      48.121   8.240  18.982  0.00  0.00    +0.000 A 
ATOM     20  O   UNL     1      48.269   8.864  17.935  0.00  0.00    +0.000 OA
ATOM     21  C   UNL     1      48.473   6.843  19.154  0.00  0.00    +0.000 A 
ATOM     22  H   UNL     1      47.309   9.803  19.993  0.00  0.00    +0.000 HD
ENDBRANCH   9  12
ENDBRANCH   7  10
ENDBRANCH   1   7
BRANCH   4  23
ATOM     23  C   UNL     1      44.867   5.859  10.886  0.00  0.00    +0.000 C 
BRANCH  23  24
ATOM     24  N   UNL     1      44.499   4.439  10.632  0.00  0.00    +0.000 NA
BRANCH  24  25
ATOM     25  C   UNL     1      43.295   4.061  11.416  0.00  0.00    +0.000 C 
BRANCH  25  26
ATOM     26  C   UNL     1      42.454   5.241  11.942  0.00  0.00    +0.000 C 
BRANCH  26  27
ATOM     27  O   UNL     1      42.553   5.335  13.363  0.00  0.00    +0.000 OA
ATOM     28  H   UNL     1      42.050   6.121  13.636  0.00  0.00    +0.000 HD
ENDBRANCH  26  27
ENDBRANCH  25  26
ENDBRANCH  24  25
BRANCH  24  29
ATOM     29  C   UNL     1      44.253   4.235   9.189  0.00  0.00    +0.000 C 
BRANCH  29  30
ATOM     30  C   UNL     1      45.215   3.290   8.517  0.00  0.00    +0.000 A 
ATOM     31  C   UNL     1      46.133   3.729   7.559  0.00  0.00    +0.000 A 
ATOM     32  C   UNL     1      47.031   2.826   7.001  0.00  0.00    +0.000 A 
ATOM     33  C   UNL     1      46.980   1.507   7.420  0.00  0.00    +0.000 A 
ATOM     34  N   UNL     1      46.103   1.042   8.337  0.00  0.00    +0.000 NA
ATOM     35  C   UNL     1      45.246   1.941   8.865  0.00  0.00    +0.000 A 
ENDBRANCH  29  30
ENDBRANCH  24  29
ENDBRANCH  23  24
ENDBRANCH   4  23
TORSDOF 10
ENDMDL
MODEL 4
REMARK VINA RESULT:    -7.593      1.964      2.353
REMARK INTER + INTRA:         -13.313
REMARK INTER:                 -12.407
REMARK INTRA:                  -0.906
REMARK UNBOUND:                -1.503
REMARK  Name = 
REMARK  10 active torsions:
REMARK  status: ('A' for Active; 'I' for Inactive)
REMARK    1  A    between atoms: C_2  and  C_23
REMARK    2  A    between atoms: N_3  and  C_4
REMARK    3  A    between atoms: C_4  and  C_5
REMARK    4  A    between atoms: C_8  and  C_9
REMARK    5  A    between atoms: C_9  and  N_10
REMARK    6  A    between atoms: N_10  and  C_11
REMARK    7  A    between atoms: N_10  and  C_14
REMARK    8  A    between atoms: C_11  and  C_12
REMARK    9  A    between atoms: C_12  and  O_13
REMARK   10  A    between atoms: C_14  and  C_15
REMARK                            x       y       z     vdW  Elec       q    Type
REMARK                         _______ _______ _______ _____ _____    ______ ____
ROOT
ATOM      1  C   UNL     1      48.131   6.549  13.525  0.00  0.00    +0.000 A 
ATOM      2  C   UNL     1      47.248   5.500  13.815  0.00  0.00    +0.000 A 
ATOM      3  C   UNL     1      46.204   5.192  12.942  0.00  0.00    +0.000 A 
ATOM      4  C   UNL     1      46.025   5.931  11.766  0.00  0.00    +0.000 A 
ATOM      5  C   UNL     1      46.978   6.899  11.420  0.00  0.00    +0.000 A 
ATOM      6  C   UNL     1      48.025   7.203  12.291  0.00  0.00    +0.000 A 
ENDROOT
BRANCH   1   7
ATOM      7  C   UNL     1      49.154   6.985  14.537  0.00  0.00    +0.000 C 
BRANCH   7  10
ATOM      8  O   UNL     1      50.592   6.552  16.849  0.00  0.00    +0.000 OA
ATOM      9  C   UNL     1      49.421   6.906  16.954  0.00  0.00    +0.000 C 
ATOM     10  N   UNL     1      48.606   7.066  15.862  0.00  0.00    +0.000 N 
ATOM     11  H   UNL     1      47.727   7.564  15.963  0.00  0.00    +0.000 HD
BRANCH   9  12
ATOM     12  C   UNL     1      48.808   7.140  18.265  0.00  0.00    +0.000 A 
ATOM     13  C   UNL     1      48.251   8.377  18.556  0.00  0.00    +0.000 A 
ATOM     14  S   UNL     1      47.595   8.473  20.128  0.00  0.00    +0.000 S 
ATOM     15  C   UNL     1      47.984   6.849  20.450  0.00  0.00    +0.000 A 
ATOM     16  N   UNL     1      47.654   6.270  21.636  0.00  0.00    +0.000 NA
ATOM     17  C   UNL     1      47.977   5.024  21.730  0.00  0.00    +0.000 A 
ATOM     18  N   UNL     1      48.605   4.303  20.748  0.00  0.00    +0.000 N 
ATOM     19  C   UNL     1      48.988   4.854  19.552  0.00  0.00    +0.000 A 
ATOM     20  O   UNL     1      49.606   4.197  18.718  0.00  0.00    +0.000 OA
ATOM     21  C   UNL     1      48.631   6.251  19.385  0.00  0.00    +0.000 A 
ATOM     22  H   UNL     1      48.845   3.333  20.889  0.00  0.00    +0.000 HD
ENDBRANCH   9  12
ENDBRANCH   7  10
ENDBRANCH   1   7
BRANCH   4  23
ATOM     23  C   UNL     1      44.796   5.720  10.906  0.00  0.00    +0.000 C 
BRANCH  23  24
ATOM     24  N   UNL     1      44.652   4.328  10.397  0.00  0.00    +0.000 NA
BRANCH  24  25
ATOM     25  C   UNL     1      43.399   3.713  10.901  0.00  0.00    +0.000 C 
BRANCH  25  26
ATOM     26  C   UNL     1      43.540   2.897  12.202  0.00  0.00    +0.000 C 
BRANCH  26  27
ATOM     27  O   UNL     1      43.153   1.540  11.989  0.00  0.00    +0.000 OA
ATOM     28  H   UNL     1      42.272   1.427  12.386  0.00  0.00    +0.000 HD
ENDBRANCH  26  27
ENDBRANCH  25  26
ENDBRANCH  24  25
BRANCH  24  29
ATOM     29  C   UNL     1      44.660   4.332   8.919  0.00  0.00    +0.000 C 
BRANCH  29  30
ATOM     30  C   UNL     1      45.554   3.292   8.295  0.00  0.00    +0.000 A 
ATOM     31  C   UNL     1      46.480   3.616   7.299  0.00  0.00    +0.000 A 
ATOM     32  C   UNL     1      47.314   2.627   6.787  0.00  0.00    +0.000 A 
ATOM     33  C   UNL     1      47.192   1.343   7.288  0.00  0.00    +0.000 A 
ATOM     34  N   UNL     1      46.305   0.988   8.244  0.00  0.00    +0.000 NA
ATOM     35  C   UNL     1      45.511   1.968   8.726  0.00  0.00    +0.000 A 
ENDBRANCH  29  30
ENDBRANCH  24  29
ENDBRANCH  23  24
ENDBRANCH   4  23
TORSDOF 10
ENDMDL
MODEL 5
REMARK VINA RESULT:    -6.959      4.103      5.333
REMARK INTER + INTRA:         -12.327
REMARK INTER:                 -11.216
REMARK INTRA:                  -1.111
REMARK UNBOUND:                -1.503
REMARK  Name = 
REMARK  10 active torsions:
REMARK  status: ('A' for Active; 'I' for Inactive)
REMARK    1  A    between atoms: C_2  and  C_23
REMARK    2  A    between atoms: N_3  and  C_4
REMARK    3  A    between atoms: C_4  and  C_5
REMARK    4  A    between atoms: C_8  and  C_9
REMARK    5  A    between atoms: C_9  and  N_10
REMARK    6  A    between atoms: N_10  and  C_11
REMARK    7  A    between atoms: N_10  and  C_14
REMARK    8  A    between atoms: C_11  and  C_12
REMARK    9  A    between atoms: C_12  and  O_13
REMARK   10  A    between atoms: C_14  and  C_15
REMARK                            x       y       z     vdW  Elec       q    Type
REMARK                         _______ _______ _______ _____ _____    ______ ____
ROOT
ATOM      1  C   UNL     1      47.000   8.689  12.373  0.00  0.00    +0.000 A 
ATOM      2  C   UNL     1      47.518   7.449  11.978  0.00  0.00    +0.000 A 
ATOM      3  C   UNL     1      46.675   6.458  11.473  0.00  0.00    +0.000 A 
ATOM      4  C   UNL     1      45.298   6.691  11.360  0.00  0.00    +0.000 A 
ATOM      5  C   UNL     1      44.800   7.970  11.644  0.00  0.00    +0.000 A 
ATOM      6  C   UNL     1      45.645   8.963  12.143  0.00  0.00    +0.000 A 
ENDROOT
BRANCH   1   7
ATOM      7  C   UNL     1      47.878   9.695  13.064  0.00  0.00    +0.000 C 
BRANCH   7  10
ATOM      8  O   UNL     1      48.751  11.003  10.799  0.00  0.00    +0.000 OA
ATOM      9  C   UNL     1      49.581  10.407  11.480  0.00  0.00    +0.000 C 
ATOM     10  N   UNL     1      49.228   9.662  12.577  0.00  0.00    +0.000 N 
ATOM     11  H   UNL     1      49.944   9.371  13.235  0.00  0.00    +0.000 HD
BRANCH   9  12
ATOM     12  C   UNL     1      51.006  10.422  11.133  0.00  0.00    +0.000 A 
ATOM     13  C   UNL     1      51.686  11.629  11.065  0.00  0.00    +0.000 A 
ATOM     14  S   UNL     1      53.329  11.459  10.638  0.00  0.00    +0.000 S 
ATOM     15  C   UNL     1      53.197   9.764  10.584  0.00  0.00    +0.000 A 
ATOM     16  N   UNL     1      54.276   8.984  10.307  0.00  0.00    +0.000 NA
ATOM     17  C   UNL     1      54.040   7.715  10.335  0.00  0.00    +0.000 A 
ATOM     18  N   UNL     1      52.820   7.153  10.611  0.00  0.00    +0.000 N 
ATOM     19  C   UNL     1      51.697   7.901  10.860  0.00  0.00    +0.000 A 
ATOM     20  O   UNL     1      50.606   7.367  11.038  0.00  0.00    +0.000 OA
ATOM     21  C   UNL     1      51.911   9.336  10.859  0.00  0.00    +0.000 A 
ATOM     22  H   UNL     1      52.696   6.152  10.602  0.00  0.00    +0.000 HD
ENDBRANCH   9  12
ENDBRANCH   7  10
ENDBRANCH   1   7
BRANCH   4  23
ATOM     23  C   UNL     1      44.358   5.566  10.984  0.00  0.00    +0.000 C 
BRANCH  23  24
ATOM     24  N   UNL     1      45.053   4.307  10.597  0.00  0.00    +0.000 NA
BRANCH  24  25
ATOM     25  C   UNL     1      44.910   3.281  11.661  0.00  0.00    +0.000 C 
BRANCH  25  26
ATOM     26  C   UNL     1      43.480   3.088  12.204  0.00  0.00    +0.000 C 
BRANCH  26  27
ATOM     27  O   UNL     1      42.865   1.949  11.603  0.00  0.00    +0.000 OA
ATOM     28  H   UNL     1      42.016   1.807  12.058  0.00  0.00    +0.000 HD
ENDBRANCH  26  27
ENDBRANCH  25  26
ENDBRANCH  24  25
BRANCH  24  29
ATOM     29  C   UNL     1      44.501   3.801   9.322  0.00  0.00    +0.000 C 
BRANCH  29  30
ATOM     30  C   UNL     1      45.480   3.023   8.482  0.00  0.00    +0.000 A 
ATOM     31  C   UNL     1      46.302   3.647   7.539  0.00  0.00    +0.000 A 
ATOM     32  C   UNL     1      47.221   2.891   6.819  0.00  0.00    +0.000 A 
ATOM     33  C   UNL     1      47.288   1.530   7.067  0.00  0.00    +0.000 A 
ATOM     34  N   UNL     1      46.506   0.888   7.963  0.00  0.00    +0.000 NA
ATOM     35  C   UNL     1      45.626   1.648   8.651  0.00  0.00    +0.000 A 
ENDBRANCH  29  30
ENDBRANCH  24  29
ENDBRANCH  23  24
ENDBRANCH   4  23
TORSDOF 10
ENDMDL
MODEL 6
REMARK VINA RESULT:    -6.506      4.194      9.568
REMARK INTER + INTRA:         -11.622
REMARK INTER:                 -10.213
REMARK INTRA:                  -1.408
REMARK UNBOUND:                -1.503
REMARK  Name = 
REMARK  10 active torsions:
REMARK  status: ('A' for Active; 'I' for Inactive)
REMARK    1  A    between atoms: C_2  and  C_23
REMARK    2  A    between atoms: N_3  and  C_4
REMARK    3  A    between atoms: C_4  and  C_5
REMARK    4  A    between atoms: C_8  and  C_9
REMARK    5  A    between atoms: C_9  and  N_10
REMARK    6  A    between atoms: N_10  and  C_11
REMARK    7  A    between atoms: N_10  and  C_14
REMARK    8  A    between atoms: C_11  and  C_12
REMARK    9  A    between atoms: C_12  and  O_13
REMARK   10  A    between atoms: C_14  and  C_15
REMARK                            x       y       z     vdW  Elec       q    Type
REMARK                         _______ _______ _______ _____ _____    ______ ____
ROOT
ATOM      1  C   UNL     1      48.832   3.613  16.977  0.00  0.00    +0.000 A 
ATOM      2  C   UNL     1      49.349   4.890  17.234  0.00  0.00    +0.000 A 
ATOM      3  C   UNL     1      50.661   5.045  17.682  0.00  0.00    +0.000 A 
ATOM      4  C   UNL     1      51.477   3.924  17.885  0.00  0.00    +0.000 A 
ATOM      5  C   UNL     1      50.997   2.660  17.515  0.00  0.00    +0.000 A 
ATOM      6  C   UNL     1      49.687   2.506  17.061  0.00  0.00    +0.000 A 
ENDROOT
BRANCH   1   7
ATOM      7  C   UNL     1      47.376   3.433  16.650  0.00  0.00    +0.000 C 
BRANCH   7  10
ATOM      8  O   UNL     1      47.221   3.141  13.913  0.00  0.00    +0.000 OA
ATOM      9  C   UNL     1      46.785   4.175  14.410  0.00  0.00    +0.000 C 
ATOM     10  N   UNL     1      46.893   4.443  15.751  0.00  0.00    +0.000 N 
ATOM     11  H   UNL     1      46.337   5.189  16.158  0.00  0.00    +0.000 HD
BRANCH   9  12
ATOM     12  C   UNL     1      46.156   5.213  13.586  0.00  0.00    +0.000 A 
ATOM     13  C   UNL     1      46.815   6.414  13.368  0.00  0.00    +0.000 A 
ATOM     14  S   UNL     1      45.932   7.506  12.399  0.00  0.00    +0.000 S 
ATOM     15  C   UNL     1      44.667   6.387  12.194  0.00  0.00    +0.000 A 
ATOM     16  N   UNL     1      43.588   6.683  11.421  0.00  0.00    +0.000 NA
ATOM     17  C   UNL     1      42.723   5.729  11.324  0.00  0.00    +0.000 A 
ATOM     18  N   UNL     1      42.836   4.507  11.934  0.00  0.00    +0.000 N 
ATOM     19  C   UNL     1      43.889   4.179  12.750  0.00  0.00    +0.000 A 
ATOM     20  O   UNL     1      43.928   3.098  13.333  0.00  0.00    +0.000 OA
ATOM     21  C   UNL     1      44.901   5.210  12.879  0.00  0.00    +0.000 A 
ATOM     22  H   UNL     1      42.117   3.807  11.832  0.00  0.00    +0.000 HD
ENDBRANCH   9  12
ENDBRANCH   7  10
ENDBRANCH   1   7
BRANCH   4  23
ATOM     23  C   UNL     1      52.835   4.071  18.538  0.00  0.00    +0.000 C 
BRANCH  23  24
ATOM     24  N   UNL     1      53.961   4.154  17.567  0.00  0.00    +0.000 NA
BRANCH  24  25
ATOM     25  C   UNL     1      54.382   5.564  17.371  0.00  0.00    +0.000 C 
BRANCH  25  26
ATOM     26  C   UNL     1      54.425   6.044  15.906  0.00  0.00    +0.000 C 
BRANCH  26  27
ATOM     27  O   UNL     1      53.161   6.579  15.515  0.00  0.00    +0.000 OA
ATOM     28  H   UNL     1      52.539   6.408  16.243  0.00  0.00    +0.000 HD
ENDBRANCH  26  27
ENDBRANCH  25  26
ENDBRANCH  24  25
BRANCH  24  29
ATOM     29  C   UNL     1      55.099   3.343  18.048  0.00  0.00    +0.000 C 
BRANCH  29  30
ATOM     30  C   UNL     1      54.811   1.870  18.172  0.00  0.00    +0.000 A 
ATOM     31  C   UNL     1      54.427   1.098  17.072  0.00  0.00    +0.000 A 
ATOM     32  C   UNL     1      54.215  -0.268  17.229  0.00  0.00    +0.000 A 
ATOM     33  C   UNL     1      54.393  -0.818  18.487  0.00  0.00    +0.000 A 
ATOM     34  N   UNL     1      54.755  -0.105  19.577  0.00  0.00    +0.000 NA
ATOM     35  C   UNL     1      54.958   1.217  19.394  0.00  0.00    +0.000 A 
ENDBRANCH  29  30
ENDBRANCH  24  29
ENDBRANCH  23  24
ENDBRANCH   4  23
TORSDOF 10
ENDMDL
MODEL 7
REMARK VINA RESULT:    -6.387      2.935      8.489
REMARK INTER + INTRA:         -11.437
REMARK INTER:                  -9.717
REMARK INTRA:                  -1.720
REMARK UNBOUND:                -1.503
REMARK  Name = 
REMARK  10 active torsions:
REMARK  status: ('A' for Active; 'I' for Inactive)
REMARK    1  A    between atoms: C_2  and  C_23
REMARK    2  A    between atoms: N_3  and  C_4
REMARK    3  A    between atoms: C_4  and  C_5
REMARK    4  A    between atoms: C_8  and  C_9
REMARK    5  A    between atoms: C_9  and  N_10
REMARK    6  A    between atoms: N_10  and  C_11
REMARK    7  A    between atoms: N_10  and  C_14
REMARK    8  A    between atoms: C_11  and  C_12
REMARK    9  A    between atoms: C_12  and  O_13
REMARK   10  A    between atoms: C_14  and  C_15
REMARK                            x       y       z     vdW  Elec       q    Type
REMARK                         _______ _______ _______ _____ _____    ______ ____
ROOT
ATOM      1  C   UNL     1      48.125   7.946  13.338  0.00  0.00    +0.000 A 
ATOM      2  C   UNL     1      47.808   9.094  14.077  0.00  0.00    +0.000 A 
ATOM      3  C   UNL     1      48.224   9.219  15.403  0.00  0.00    +0.000 A 
ATOM      4  C   UNL     1      48.961   8.195  16.013  0.00  0.00    +0.000 A 
ATOM      5  C   UNL     1      49.377   7.104  15.238  0.00  0.00    +0.000 A 
ATOM      6  C   UNL     1      48.966   6.982  13.910  0.00  0.00    +0.000 A 
ENDROOT
BRANCH   1   7
ATOM      7  C   UNL     1      47.544   7.738  11.967  0.00  0.00    +0.000 C 
BRANCH   7  10
ATOM      8  O   UNL     1      44.816   7.361  12.111  0.00  0.00    +0.000 OA
ATOM      9  C   UNL     1      45.522   6.390  11.854  0.00  0.00    +0.000 C 
ATOM     10  N   UNL     1      46.892   6.465  11.841  0.00  0.00    +0.000 N 
ATOM     11  H   UNL     1      47.430   5.717  11.415  0.00  0.00    +0.000 HD
BRANCH   9  12
ATOM     12  C   UNL     1      44.939   5.072  11.582  0.00  0.00    +0.000 A 
ATOM     13  C   UNL     1      44.205   4.427  12.567  0.00  0.00    +0.000 A 
ATOM     14  S   UNL     1      43.613   2.901  12.082  0.00  0.00    +0.000 S 
ATOM     15  C   UNL     1      44.272   3.079  10.524  0.00  0.00    +0.000 A 
ATOM     16  N   UNL     1      44.093   2.123   9.573  0.00  0.00    +0.000 NA
ATOM     17  C   UNL     1      44.616   2.406   8.427  0.00  0.00    +0.000 A 
ATOM     18  N   UNL     1      45.306   3.556   8.145  0.00  0.00    +0.000 N 
ATOM     19  C   UNL     1      45.541   4.530   9.082  0.00  0.00    +0.000 A 
ATOM     20  O   UNL     1      46.219   5.518   8.814  0.00  0.00    +0.000 OA
ATOM     21  C   UNL     1      44.958   4.271  10.385  0.00  0.00    +0.000 A 
ATOM     22  H   UNL     1      45.705   3.711   7.231  0.00  0.00    +0.000 HD
ENDBRANCH   9  12
ENDBRANCH   7  10
ENDBRANCH   1   7
BRANCH   4  23
ATOM     23  C   UNL     1      49.261   8.244  17.496  0.00  0.00    +0.000 C 
BRANCH  23  24
ATOM     24  N   UNL     1      50.068   7.092  17.984  0.00  0.00    +0.000 NA
BRANCH  24  25
ATOM     25  C   UNL     1      51.181   7.560  18.847  0.00  0.00    +0.000 C 
BRANCH  25  26
ATOM     26  C   UNL     1      50.907   7.510  20.364  0.00  0.00    +0.000 C 
BRANCH  26  27
ATOM     27  O   UNL     1      50.304   8.726  20.805  0.00  0.00    +0.000 OA
ATOM     28  H   UNL     1      50.359   9.358  20.068  0.00  0.00    +0.000 HD
ENDBRANCH  26  27
ENDBRANCH  25  26
ENDBRANCH  24  25
BRANCH  24  29
ATOM     29  C   UNL     1      49.203   6.154  18.729  0.00  0.00    +0.000 C 
BRANCH  29  30
ATOM     30  C   UNL     1      48.953   4.843  18.031  0.00  0.00    +0.000 A 
ATOM     31  C   UNL     1      47.660   4.395  17.743  0.00  0.00    +0.000 A 
ATOM     32  C   UNL     1      47.483   3.198  17.056  0.00  0.00    +0.000 A 
ATOM     33  C   UNL     1      48.609   2.486  16.679  0.00  0.00    +0.000 A 
ATOM     34  N   UNL     1      49.874   2.881  16.945  0.00  0.00    +0.000 NA
ATOM     35  C   UNL     1      50.016   4.048  17.610  0.00  0.00    +0.000 A 
ENDBRANCH  29  30
ENDBRANCH  24  29
ENDBRANCH  23  24
ENDBRANCH   4  23
TORSDOF 10
ENDMDL
MODEL 8
REMARK VINA RESULT:    -6.331      1.990      2.389
REMARK INTER + INTRA:         -11.351
REMARK INTER:                 -10.138
REMARK INTRA:                  -1.213
REMARK UNBOUND:                -1.503
REMARK  Name = 
REMARK  10 active torsions:
REMARK  status: ('A' for Active; 'I' for Inactive)
REMARK    1  A    between atoms: C_2  and  C_23
REMARK    2  A    between atoms: N_3  and  C_4
REMARK    3  A    between atoms: C_4  and  C_5
REMARK    4  A    between atoms: C_8  and  C_9
REMARK    5  A    between atoms: C_9  and  N_10
REMARK    6  A    between atoms: N_10  and  C_11
REMARK    7  A    between atoms: N_10  and  C_14
REMARK    8  A    between atoms: C_11  and  C_12
REMARK    9  A    between atoms: C_12  and  O_13
REMARK   10  A    between atoms: C_14  and  C_15
REMARK                            x       y       z     vdW  Elec       q    Type
REMARK                         _______ _______ _______ _____ _____    ______ ____
ROOT
ATOM      1  C   UNL     1      49.155   7.337  13.245  0.00  0.00    +0.000 A 
ATOM      2  C   UNL     1      48.273   6.529  13.975  0.00  0.00    +0.000 A 
ATOM      3  C   UNL     1      47.072   6.101  13.408  0.00  0.00    +0.000 A 
ATOM      4  C   UNL     1      46.732   6.479  12.102  0.00  0.00    +0.000 A 
ATOM      5  C   UNL     1      47.668   7.187  11.335  0.00  0.00    +0.000 A 
ATOM      6  C   UNL     1      48.872   7.609  11.900  0.00  0.00    +0.000 A 
ENDROOT
BRANCH   1   7
ATOM      7  C   UNL     1      50.369   7.929  13.907  0.00  0.00    +0.000 C 
BRANCH   7  10
ATOM      8  O   UNL     1      50.460   8.939  16.471  0.00  0.00    +0.000 OA
ATOM      9  C   UNL     1      50.719   7.750  16.307  0.00  0.00    +0.000 C 
ATOM     10  N   UNL     1      50.777   7.179  15.061  0.00  0.00    +0.000 N 
ATOM     11  H   UNL     1      50.773   6.168  14.973  0.00  0.00    +0.000 HD
BRANCH   9  12
ATOM     12  C   UNL     1      51.023   6.871  17.442  0.00  0.00    +0.000 A 
ATOM     13  C   UNL     1      52.343   6.642  17.802  0.00  0.00    +0.000 A 
ATOM     14  S   UNL     1      52.510   5.588  19.133  0.00  0.00    +0.000 S 
ATOM     15  C   UNL     1      50.824   5.448  19.305  0.00  0.00    +0.000 A 
ATOM     16  N   UNL     1      50.280   4.703  20.304  0.00  0.00    +0.000 NA
ATOM     17  C   UNL     1      48.989   4.715  20.337  0.00  0.00    +0.000 A 
ATOM     18  N   UNL     1      48.191   5.401  19.459  0.00  0.00    +0.000 N 
ATOM     19  C   UNL     1      48.695   6.135  18.415  0.00  0.00    +0.000 A 
ATOM     20  O   UNL     1      47.951   6.685  17.608  0.00  0.00    +0.000 OA
ATOM     21  C   UNL     1      50.144   6.171  18.343  0.00  0.00    +0.000 A 
ATOM     22  H   UNL     1      47.185   5.357  19.528  0.00  0.00    +0.000 HD
ENDBRANCH   9  12
ENDBRANCH   7  10
ENDBRANCH   1   7
BRANCH   4  23
ATOM     23  C   UNL     1      45.358   6.170  11.546  0.00  0.00    +0.000 C 
BRANCH  23  24
ATOM     24  N   UNL     1      45.143   4.726  11.248  0.00  0.00    +0.000 NA
BRANCH  24  25
ATOM     25  C   UNL     1      44.256   4.108  12.265  0.00  0.00    +0.000 C 
BRANCH  25  26
ATOM     26  C   UNL     1      43.230   5.059  12.913  0.00  0.00    +0.000 C 
BRANCH  26  27
ATOM     27  O   UNL     1      42.044   5.132  12.122  0.00  0.00    +0.000 OA
ATOM     28  H   UNL     1      41.641   6.002  12.287  0.00  0.00    +0.000 HD
ENDBRANCH  26  27
ENDBRANCH  25  26
ENDBRANCH  24  25
BRANCH  24  29
ATOM     29  C   UNL     1      44.557   4.575   9.900  0.00  0.00    +0.000 C 
BRANCH  29  30
ATOM     30  C   UNL     1      45.319   3.652   8.986  0.00  0.00    +0.000 A 
ATOM     31  C   UNL     1      46.080   4.134   7.917  0.00  0.00    +0.000 A 
ATOM     32  C   UNL     1      46.803   3.244   7.129  0.00  0.00    +0.000 A 
ATOM     33  C   UNL     1      46.738   1.896   7.436  0.00  0.00    +0.000 A 
ATOM     34  N   UNL     1      46.008   1.389   8.454  0.00  0.00    +0.000 NA
ATOM     35  C   UNL     1      45.320   2.276   9.205  0.00  0.00    +0.000 A 
ENDBRANCH  29  30
ENDBRANCH  24  29
ENDBRANCH  23  24
ENDBRANCH   4  23
TORSDOF 10
ENDMDL
MODEL 9
REMARK VINA RESULT:    -6.316      3.766      9.169
REMARK INTER + INTRA:         -11.327
REMARK INTER:                  -9.889
REMARK INTRA:                  -1.438
REMARK UNBOUND:                -1.503
REMARK  Name = 
REMARK  10 active torsions:
REMARK  status: ('A' for Active; 'I' for Inactive)
REMARK    1  A    between atoms: C_2  and  C_23
REMARK    2  A    between atoms: N_3  and  C_4
REMARK    3  A    between atoms: C_4  and  C_5
REMARK    4  A    between atoms: C_8  and  C_9
REMARK    5  A    between atoms: C_9  and  N_10
REMARK    6  A    between atoms: N_10  and  C_11
REMARK    7  A    between atoms: N_10  and  C_14
REMARK    8  A    between atoms: C_11  and  C_12
REMARK    9  A    between atoms: C_12  and  O_13
REMARK   10  A    between atoms: C_14  and  C_15
REMARK                            x       y       z     vdW  Elec       q    Type
REMARK                         _______ _______ _______ _____ _____    ______ ____
ROOT
ATOM      1  C   UNL     1      48.686   3.357  17.309  0.00  0.00    +0.000 A 
ATOM      2  C   UNL     1      49.397   2.190  16.999  0.00  0.00    +0.000 A 
ATOM      3  C   UNL     1      50.775   2.125  17.210  0.00  0.00    +0.000 A 
ATOM      4  C   UNL     1      51.464   3.228  17.730  0.00  0.00    +0.000 A 
ATOM      5  C   UNL     1      50.734   4.349  18.150  0.00  0.00    +0.000 A 
ATOM      6  C   UNL     1      49.355   4.411  17.945  0.00  0.00    +0.000 A 
ENDROOT
BRANCH   1   7
ATOM      7  C   UNL     1      47.235   3.486  16.935  0.00  0.00    +0.000 C 
BRANCH   7  10
ATOM      8  O   UNL     1      47.344   3.115  14.205  0.00  0.00    +0.000 OA
ATOM      9  C   UNL     1      47.018   4.221  14.627  0.00  0.00    +0.000 C 
ATOM     10  N   UNL     1      47.015   4.522  15.966  0.00  0.00    +0.000 N 
ATOM     11  H   UNL     1      46.537   5.356  16.290  0.00  0.00    +0.000 HD
BRANCH   9  12
ATOM     12  C   UNL     1      46.650   5.309  13.714  0.00  0.00    +0.000 A 
ATOM     13  C   UNL     1      47.573   6.300  13.415  0.00  0.00    +0.000 A 
ATOM     14  S   UNL     1      46.970   7.489  12.349  0.00  0.00    +0.000 S 
ATOM     15  C   UNL     1      45.477   6.686  12.209  0.00  0.00    +0.000 A 
ATOM     16  N   UNL     1      44.496   7.164  11.398  0.00  0.00    +0.000 NA
ATOM     17  C   UNL     1      43.431   6.436  11.361  0.00  0.00    +0.000 A 
ATOM     18  N   UNL     1      43.254   5.274  12.065  0.00  0.00    +0.000 N 
ATOM     19  C   UNL     1      44.201   4.773  12.922  0.00  0.00    +0.000 A 
ATOM     20  O   UNL     1      43.985   3.764  13.588  0.00  0.00    +0.000 OA
ATOM     21  C   UNL     1      45.428   5.544  12.988  0.00  0.00    +0.000 A 
ATOM     22  H   UNL     1      42.390   4.756  12.005  0.00  0.00    +0.000 HD
ENDBRANCH   9  12
ENDBRANCH   7  10
ENDBRANCH   1   7
BRANCH   4  23
ATOM     23  C   UNL     1      52.977   3.228  17.794  0.00  0.00    +0.000 C 
BRANCH  23  24
ATOM     24  N   UNL     1      53.564   4.558  18.119  0.00  0.00    +0.000 NA
BRANCH  24  25
ATOM     25  C   UNL     1      54.273   4.513  19.422  0.00  0.00    +0.000 C 
BRANCH  25  26
ATOM     26  C   UNL     1      53.541   3.753  20.547  0.00  0.00    +0.000 C 
BRANCH  26  27
ATOM     27  O   UNL     1      54.240   2.554  20.880  0.00  0.00    +0.000 OA
ATOM     28  H   UNL     1      54.099   2.394  21.830  0.00  0.00    +0.000 HD
ENDBRANCH  26  27
ENDBRANCH  25  26
ENDBRANCH  24  25
BRANCH  24  29
ATOM     29  C   UNL     1      54.493   4.971  17.046  0.00  0.00    +0.000 C 
BRANCH  29  30
ATOM     30  C   UNL     1      53.954   6.038  16.129  0.00  0.00    +0.000 A 
ATOM     31  C   UNL     1      52.699   6.620  16.331  0.00  0.00    +0.000 A 
ATOM     32  C   UNL     1      52.265   7.633  15.483  0.00  0.00    +0.000 A 
ATOM     33  C   UNL     1      53.103   8.031  14.455  0.00  0.00    +0.000 A 
ATOM     34  N   UNL     1      54.318   7.488  14.220  0.00  0.00    +0.000 NA
ATOM     35  C   UNL     1      54.716   6.509  15.062  0.00  0.00    +0.000 A 
ENDBRANCH  29  30
ENDBRANCH  24  29
ENDBRANCH  23  24
ENDBRANCH   4  23
TORSDOF 10
ENDMDL
