MODEL 1
REMARK VINA RESULT:    -8.427      0.000      0.000
REMARK INTER + INTRA:         -12.787
REMARK INTER:                 -11.875
REMARK INTRA:                  -0.912
REMARK UNBOUND:                -0.912
REMARK  Name = 
REMARK  9 active torsions:
REMARK  status: ('A' for Active; 'I' for Inactive)
REMARK    1  A    between atoms: C_1  and  O_2
REMARK    2  A    between atoms: O_2  and  C_3
REMARK    3  A    between atoms: C_5  and  C_6
REMARK    4  A    between atoms: C_6  and  C_7
REMARK    5  A    between atoms: C_7  and  N_8
REMARK    6  A    between atoms: C_12  and  C_13
REMARK    7  A    between atoms: C_19  and  C_20
REMARK    8  A    between atoms: C_25  and  O_26
REMARK    9  A    between atoms: O_26  and  C_27
REMARK                            x       y       z     vdW  Elec       q    Type
REMARK                         _______ _______ _______ _____ _____    ______ ____
ROOT
ATOM      1  C   UNL     1      46.724   4.640  13.957  0.00  0.00    +0.000 A 
ATOM      2  C   UNL     1      45.437   4.507  13.439  0.00  0.00    +0.000 A 
ATOM      3  C   UNL     1      44.953   5.441  12.517  0.00  0.00    +0.000 A 
ATOM      4  C   UNL     1      45.811   6.464  12.072  0.00  0.00    +0.000 A 
ATOM      5  C   UNL     1      47.110   6.652  12.596  0.00  0.00    +0.000 A 
ATOM      6  C   UNL     1      47.531   5.711  13.550  0.00  0.00    +0.000 A 
ENDROOT
BRANCH   5   7
ATOM      7  C   UNL     1      47.935   7.853  12.237  0.00  0.00    +0.000 A 
ATOM      8  C   UNL     1      49.280   7.650  11.841  0.00  0.00    +0.000 A 
ATOM      9  C   UNL     1      50.109   8.691  11.421  0.00  0.00    +0.000 A 
ATOM     10  C   UNL     1      49.620   9.983  11.377  0.00  0.00    +0.000 A 
ATOM     11  C   UNL     1      48.310  10.235  11.771  0.00  0.00    +0.000 A 
ATOM     12  C   UNL     1      47.458   9.191  12.187  0.00  0.00    +0.000 A 
BRANCH  12  13
ATOM     13  O   UNL     1      46.168   9.451  12.590  0.00  0.00    +0.000 OA
ATOM     14  C   UNL     1      45.432  10.371  11.787  0.00  0.00    +0.000 C 
ENDBRANCH  12  13
ENDBRANCH   5   7
BRANCH   1  16
ATOM     15  C   UNL     1      47.437   4.344  16.207  0.00  0.00    +0.000 C 
ATOM     16  O   UNL     1      47.305   3.826  14.892  0.00  0.00    +0.000 OA
ENDBRANCH   1  16
BRANCH   3  17
ATOM     17  C   UNL     1      43.521   5.377  12.030  0.00  0.00    +0.000 C 
BRANCH  17  18
ATOM     18  C   UNL     1      43.413   4.921  10.575  0.00  0.00    +0.000 C 
BRANCH  18  19
ATOM     19  N   UNL     1      43.712   3.484  10.449  0.00  0.00    +0.000 N 
ATOM     20  C   UNL     1      44.669   3.225   9.445  0.00  0.00    +0.000 A 
ATOM     21  C   UNL     1      45.087   1.914   9.171  0.00  0.00    +0.000 A 
ATOM     22  N   UNL     1      46.006   1.585   8.217  0.00  0.00    +0.000 NA
ATOM     23  C   UNL     1      46.516   2.650   7.541  0.00  0.00    +0.000 A 
ATOM     24  C   UNL     1      46.131   3.951   7.809  0.00  0.00    +0.000 A 
ATOM     25  N   UNL     1      45.211   4.253   8.761  0.00  0.00    +0.000 NA
ATOM     26  H   UNL     1      42.877   2.934  10.253  0.00  0.00    +0.000 HD
BRANCH  23  27
ATOM     27  C   UNL     1      47.519   2.402   6.471  0.00  0.00    +0.000 C 
ATOM     28  N   UNL     1      47.342   3.086   5.300  0.00  0.00    +0.000 N 
ATOM     29  O   UNL     1      48.461   1.630   6.620  0.00  0.00    +0.000 OA
ATOM     30  H   UNL     1      46.560   3.719   5.194  0.00  0.00    +0.000 HD
ATOM     31  H   UNL     1      48.004   2.953   4.550  0.00  0.00    +0.000 HD
ENDBRANCH  23  27
ENDBRANCH  18  19
ENDBRANCH  17  18
ENDBRANCH   3  17
TORSDOF 7
ENDMDL
MODEL 2
REMARK VINA RESULT:    -7.773      1.544      4.054
REMARK INTER + INTRA:         -11.865
REMARK INTER:                 -10.888
REMARK INTRA:                  -0.977
REMARK UNBOUND:                -0.912
REMARK  Name = 
REMARK  9 active torsions:
REMARK  status: ('A' for Active; 'I' for Inactive)
REMARK    1  A    between atoms: C_1  and  O_2
REMARK    2  A    between atoms: O_2  and  C_3
REMARK    3  A    between atoms: C_5  and  C_6
REMARK    4  A    between atoms: C_6  and  C_7
REMARK    5  A    between atoms: C_7  and  N_8
REMARK    6  A    between atoms: C_12  and  C_13
REMARK    7  A    between atoms: C_19  and  C_20
REMARK    8  A    between atoms: C_25  and  O_26
REMARK    9  A    between atoms: O_26  and  C_27
REMARK                            x       y       z     vdW  Elec       q    Type
REMARK                         _______ _______ _______ _____ _____    ______ ____
ROOT
ATOM      1  C   UNL     1      47.273   6.656  12.099  0.00  0.00    +0.000 A 
ATOM      2  C   UNL     1      45.947   6.366  11.779  0.00  0.00    +0.000 A 
ATOM      3  C   UNL     1      45.175   5.577  12.639  0.00  0.00    +0.000 A 
ATOM      4  C   UNL     1      45.736   5.151  13.858  0.00  0.00    +0.000 A 
ATOM      5  C   UNL     1      47.084   5.396  14.204  0.00  0.00    +0.000 A 
ATOM      6  C   UNL     1      47.827   6.156  13.286  0.00  0.00    +0.000 A 
ENDROOT
BRANCH   5   7
ATOM      7  C   UNL     1      47.706   4.779  15.422  0.00  0.00    +0.000 A 
ATOM      8  C   UNL     1      47.622   3.374  15.581  0.00  0.00    +0.000 A 
ATOM      9  C   UNL     1      48.226   2.695  16.639  0.00  0.00    +0.000 A 
ATOM     10  C   UNL     1      48.946   3.401  17.585  0.00  0.00    +0.000 A 
ATOM     11  C   UNL     1      49.044   4.784  17.481  0.00  0.00    +0.000 A 
ATOM     12  C   UNL     1      48.447   5.481  16.410  0.00  0.00    +0.000 A 
BRANCH  12  13
ATOM     13  O   UNL     1      48.537   6.852  16.324  0.00  0.00    +0.000 OA
ATOM     14  C   UNL     1      49.818   7.417  16.594  0.00  0.00    +0.000 C 
ENDBRANCH  12  13
ENDBRANCH   5   7
BRANCH   1  16
ATOM     15  C   UNL     1      49.440   7.609  11.874  0.00  0.00    +0.000 C 
ATOM     16  O   UNL     1      48.148   7.376  11.333  0.00  0.00    +0.000 OA
ENDBRANCH   1  16
BRANCH   3  17
ATOM     17  C   UNL     1      43.771   5.159  12.255  0.00  0.00    +0.000 C 
BRANCH  17  18
ATOM     18  C   UNL     1      43.641   4.829  10.769  0.00  0.00    +0.000 C 
BRANCH  18  19
ATOM     19  N   UNL     1      43.852   3.392  10.526  0.00  0.00    +0.000 N 
ATOM     20  C   UNL     1      44.771   3.157   9.481  0.00  0.00    +0.000 A 
ATOM     21  C   UNL     1      45.106   1.849   9.098  0.00  0.00    +0.000 A 
ATOM     22  N   UNL     1      45.984   1.543   8.098  0.00  0.00    +0.000 NA
ATOM     23  C   UNL     1      46.541   2.627   7.493  0.00  0.00    +0.000 A 
ATOM     24  C   UNL     1      46.239   3.923   7.869  0.00  0.00    +0.000 A 
ATOM     25  N   UNL     1      45.359   4.203   8.864  0.00  0.00    +0.000 NA
ATOM     26  H   UNL     1      42.983   2.907  10.310  0.00  0.00    +0.000 HD
BRANCH  23  27
ATOM     27  C   UNL     1      47.505   2.406   6.382  0.00  0.00    +0.000 C 
ATOM     28  N   UNL     1      47.323   3.163   5.258  0.00  0.00    +0.000 N 
ATOM     29  O   UNL     1      48.420   1.592   6.459  0.00  0.00    +0.000 OA
ATOM     30  H   UNL     1      46.563   3.830   5.211  0.00  0.00    +0.000 HD
ATOM     31  H   UNL     1      47.959   3.050   4.482  0.00  0.00    +0.000 HD
ENDBRANCH  23  27
ENDBRANCH  18  19
ENDBRANCH  17  18
ENDBRANCH   3  17
TORSDOF 7
ENDMDL
MODEL 3
REMARK VINA RESULT:    -7.329      1.221      2.325
REMARK INTER + INTRA:         -11.239
REMARK INTER:                 -11.177
REMARK INTRA:                  -0.062
REMARK UNBOUND:                -0.912
REMARK  Name = 
REMARK  9 active torsions:
REMARK  status: ('A' for Active; 'I' for Inactive)
REMARK    1  A    between atoms: C_1  and  O_2
REMARK    2  A    between atoms: O_2  and  C_3
REMARK    3  A    between atoms: C_5  and  C_6
REMARK    4  A    between atoms: C_6  and  C_7
REMARK    5  A    between atoms: C_7  and  N_8
REMARK    6  A    between atoms: C_12  and  C_13
REMARK    7  A    between atoms: C_19  and  C_20
REMARK    8  A    between atoms: C_25  and  O_26
REMARK    9  A    between atoms: O_26  and  C_27
REMARK                            x       y       z     vdW  Elec       q    Type
REMARK                         _______ _______ _______ _____ _____    ______ ____
ROOT
ATOM      1  C   UNL     1      46.860   5.479  13.792  0.00  0.00    +0.000 A 
ATOM      2  C   UNL     1      45.758   4.677  13.498  0.00  0.00    +0.000 A 
ATOM      3  C   UNL     1      44.687   5.200  12.765  0.00  0.00    +0.000 A 
ATOM      4  C   UNL     1      44.778   6.515  12.272  0.00  0.00    +0.000 A 
ATOM      5  C   UNL     1      45.863   7.369  12.575  0.00  0.00    +0.000 A 
ATOM      6  C   UNL     1      46.891   6.808  13.350  0.00  0.00    +0.000 A 
ENDROOT
BRANCH   5   7
ATOM      7  C   UNL     1      45.851   8.819  12.188  0.00  0.00    +0.000 A 
ATOM      8  C   UNL     1      44.613   9.410  11.834  0.00  0.00    +0.000 A 
ATOM      9  C   UNL     1      44.483  10.765  11.527  0.00  0.00    +0.000 A 
ATOM     10  C   UNL     1      45.593  11.587  11.567  0.00  0.00    +0.000 A 
ATOM     11  C   UNL     1      46.834  11.051  11.894  0.00  0.00    +0.000 A 
ATOM     12  C   UNL     1      46.978   9.685  12.217  0.00  0.00    +0.000 A 
BRANCH  12  13
ATOM     13  O   UNL     1      48.211   9.160  12.524  0.00  0.00    +0.000 OA
ATOM     14  C   UNL     1      49.180   9.170  11.477  0.00  0.00    +0.000 C 
ENDBRANCH  12  13
ENDBRANCH   5   7
BRANCH   1  16
ATOM     15  C   UNL     1      48.448   6.055  15.466  0.00  0.00    +0.000 C 
ATOM     16  O   UNL     1      47.951   5.110  14.531  0.00  0.00    +0.000 OA
ENDBRANCH   1  16
BRANCH   3  17
ATOM     17  C   UNL     1      43.435   4.381  12.533  0.00  0.00    +0.000 C 
BRANCH  17  18
ATOM     18  C   UNL     1      43.329   3.860  11.100  0.00  0.00    +0.000 C 
BRANCH  18  19
ATOM     19  N   UNL     1      44.020   4.758  10.159  0.00  0.00    +0.000 N 
ATOM     20  C   UNL     1      44.900   4.060   9.304  0.00  0.00    +0.000 A 
ATOM     21  C   UNL     1      45.653   4.740   8.335  0.00  0.00    +0.000 A 
ATOM     22  N   UNL     1      46.523   4.135   7.474  0.00  0.00    +0.000 NA
ATOM     23  C   UNL     1      46.598   2.784   7.615  0.00  0.00    +0.000 A 
ATOM     24  C   UNL     1      45.850   2.092   8.551  0.00  0.00    +0.000 A 
ATOM     25  N   UNL     1      44.994   2.717   9.399  0.00  0.00    +0.000 NA
ATOM     26  H   UNL     1      44.544   5.487  10.639  0.00  0.00    +0.000 HD
BRANCH  23  27
ATOM     27  C   UNL     1      47.526   2.026   6.733  0.00  0.00    +0.000 C 
ATOM     28  N   UNL     1      48.051   2.708   5.671  0.00  0.00    +0.000 N 
ATOM     29  O   UNL     1      47.814   0.851   6.939  0.00  0.00    +0.000 OA
ATOM     30  H   UNL     1      47.803   3.676   5.515  0.00  0.00    +0.000 HD
ATOM     31  H   UNL     1      48.690   2.232   5.051  0.00  0.00    +0.000 HD
ENDBRANCH  23  27
ENDBRANCH  18  19
ENDBRANCH  17  18
ENDBRANCH   3  17
TORSDOF 7
ENDMDL
MODEL 4
REMARK VINA RESULT:    -7.258      3.630      7.748
REMARK INTER + INTRA:         -11.141
REMARK INTER:                  -9.938
REMARK INTRA:                  -1.203
REMARK UNBOUND:                -0.912
REMARK  Name = 
REMARK  9 active torsions:
REMARK  status: ('A' for Active; 'I' for Inactive)
REMARK    1  A    between atoms: C_1  and  O_2
REMARK    2  A    between atoms: O_2  and  C_3
REMARK    3  A    between atoms: C_5  and  C_6
REMARK    4  A    between atoms: C_6  and  C_7
REMARK    5  A    between atoms: C_7  and  N_8
REMARK    6  A    between atoms: C_12  and  C_13
REMARK    7  A    between atoms: C_19  and  C_20
REMARK    8  A    between atoms: C_25  and  O_26
REMARK    9  A    between atoms: O_26  and  C_27
REMARK                            x       y       z     vdW  Elec       q    Type
REMARK                         _______ _______ _______ _____ _____    ______ ____
ROOT
ATOM      1  C   UNL     1      45.242   9.455  12.052  0.00  0.00    +0.000 A 
ATOM      2  C   UNL     1      46.628   9.597  12.098  0.00  0.00    +0.000 A 
ATOM      3  C   UNL     1      47.451   8.470  12.014  0.00  0.00    +0.000 A 
ATOM      4  C   UNL     1      46.860   7.210  11.809  0.00  0.00    +0.000 A 
ATOM      5  C   UNL     1      45.459   7.019  11.789  0.00  0.00    +0.000 A 
ATOM      6  C   UNL     1      44.678   8.178  11.920  0.00  0.00    +0.000 A 
ENDROOT
BRANCH   5   7
ATOM      7  C   UNL     1      44.855   5.646  11.749  0.00  0.00    +0.000 A 
ATOM      8  C   UNL     1      44.183   5.173  12.903  0.00  0.00    +0.000 A 
ATOM      9  C   UNL     1      43.528   3.942  12.945  0.00  0.00    +0.000 A 
ATOM     10  C   UNL     1      43.518   3.131  11.826  0.00  0.00    +0.000 A 
ATOM     11  C   UNL     1      44.178   3.545  10.673  0.00  0.00    +0.000 A 
ATOM     12  C   UNL     1      44.834   4.791  10.613  0.00  0.00    +0.000 A 
BRANCH  12  13
ATOM     13  O   UNL     1      45.497   5.185   9.473  0.00  0.00    +0.000 OA
ATOM     14  C   UNL     1      45.579   4.219   8.427  0.00  0.00    +0.000 C 
ENDBRANCH  12  13
ENDBRANCH   5   7
BRANCH   1  16
ATOM     15  C   UNL     1      43.315  10.532  11.166  0.00  0.00    +0.000 C 
ATOM     16  O   UNL     1      44.323  10.463  12.164  0.00  0.00    +0.000 OA
ENDBRANCH   1  16
BRANCH   3  17
ATOM     17  C   UNL     1      48.952   8.594  12.175  0.00  0.00    +0.000 C 
BRANCH  17  18
ATOM     18  C   UNL     1      49.593   7.321  12.725  0.00  0.00    +0.000 C 
BRANCH  18  19
ATOM     19  N   UNL     1      50.038   7.512  14.117  0.00  0.00    +0.000 N 
ATOM     20  C   UNL     1      49.356   6.664  15.016  0.00  0.00    +0.000 A 
ATOM     21  C   UNL     1      49.638   6.696  16.390  0.00  0.00    +0.000 A 
ATOM     22  N   UNL     1      49.021   5.909  17.319  0.00  0.00    +0.000 NA
ATOM     23  C   UNL     1      48.098   5.054  16.802  0.00  0.00    +0.000 A 
ATOM     24  C   UNL     1      47.818   4.994  15.449  0.00  0.00    +0.000 A 
ATOM     25  N   UNL     1      48.443   5.790  14.544  0.00  0.00    +0.000 NA
ATOM     26  H   UNL     1      49.924   8.475  14.427  0.00  0.00    +0.000 HD
BRANCH  23  27
ATOM     27  C   UNL     1      47.357   4.158  17.730  0.00  0.00    +0.000 C 
ATOM     28  N   UNL     1      47.675   4.256  19.056  0.00  0.00    +0.000 N 
ATOM     29  O   UNL     1      46.502   3.369  17.338  0.00  0.00    +0.000 OA
ATOM     30  H   UNL     1      48.383   4.911  19.362  0.00  0.00    +0.000 HD
ATOM     31  H   UNL     1      47.192   3.670  19.721  0.00  0.00    +0.000 HD
ENDBRANCH  23  27
ENDBRANCH  18  19
ENDBRANCH  17  18
ENDBRANCH   3  17
TORSDOF 7
ENDMDL
MODEL 5
REMARK VINA RESULT:    -7.016      4.303      8.467
REMARK INTER + INTRA:         -10.799
REMARK INTER:                  -9.878
REMARK INTRA:                  -0.921
REMARK UNBOUND:                -0.912
REMARK  Name = 
REMARK  9 active torsions:
REMARK  status: ('A' for Active; 'I' for Inactive)
REMARK    1  A    between atoms: C_1  and  O_2
REMARK    2  A    between atoms: O_2  and  C_3
REMARK    3  A    between atoms: C_5  and  C_6
REMARK    4  A    between atoms: C_6  and  C_7
REMARK    5  A    between atoms: C_7  and  N_8
REMARK    6  A    between atoms: C_12  and  C_13
REMARK    7  A    between atoms: C_19  and  C_20
REMARK    8  A    between atoms: C_25  and  O_26
REMARK    9  A    between atoms: O_26  and  C_27
REMARK                            x       y       z     vdW  Elec       q    Type
REMARK                         _______ _______ _______ _____ _____    ______ ____
ROOT
ATOM      1  C   UNL     1      45.590   8.754  12.215  0.00  0.00    +0.000 A 
ATOM      2  C   UNL     1      46.865   8.715  12.777  0.00  0.00    +0.000 A 
ATOM      3  C   UNL     1      47.651   7.565  12.650  0.00  0.00    +0.000 A 
ATOM      4  C   UNL     1      47.163   6.488  11.887  0.00  0.00    +0.000 A 
ATOM      5  C   UNL     1      45.864   6.476  11.329  0.00  0.00    +0.000 A 
ATOM      6  C   UNL     1      45.100   7.639  11.523  0.00  0.00    +0.000 A 
ENDROOT
BRANCH   5   7
ATOM      7  C   UNL     1      45.302   5.248  10.675  0.00  0.00    +0.000 A 
ATOM      8  C   UNL     1      45.545   5.051   9.294  0.00  0.00    +0.000 A 
ATOM      9  C   UNL     1      45.127   3.909   8.608  0.00  0.00    +0.000 A 
ATOM     10  C   UNL     1      44.448   2.913   9.284  0.00  0.00    +0.000 A 
ATOM     11  C   UNL     1      44.171   3.068  10.638  0.00  0.00    +0.000 A 
ATOM     12  C   UNL     1      44.597   4.211  11.345  0.00  0.00    +0.000 A 
BRANCH  12  13
ATOM     13  O   UNL     1      44.305   4.363  12.682  0.00  0.00    +0.000 OA
ATOM     14  C   UNL     1      43.018   4.895  12.989  0.00  0.00    +0.000 C 
ENDBRANCH  12  13
ENDBRANCH   5   7
BRANCH   1  16
ATOM     15  C   UNL     1      45.087  11.020  11.695  0.00  0.00    +0.000 C 
ATOM     16  O   UNL     1      44.704   9.794  12.299  0.00  0.00    +0.000 OA
ENDBRANCH   1  16
BRANCH   3  17
ATOM     17  C   UNL     1      48.992   7.462  13.347  0.00  0.00    +0.000 C 
BRANCH  17  18
ATOM     18  C   UNL     1      48.860   7.382  14.867  0.00  0.00    +0.000 C 
BRANCH  18  19
ATOM     19  N   UNL     1      48.115   6.176  15.270  0.00  0.00    +0.000 N 
ATOM     20  C   UNL     1      48.399   5.792  16.598  0.00  0.00    +0.000 A 
ATOM     21  C   UNL     1      47.788   4.665  17.168  0.00  0.00    +0.000 A 
ATOM     22  N   UNL     1      48.013   4.232  18.443  0.00  0.00    +0.000 NA
ATOM     23  C   UNL     1      48.884   5.002  19.149  0.00  0.00    +0.000 A 
ATOM     24  C   UNL     1      49.483   6.128  18.611  0.00  0.00    +0.000 A 
ATOM     25  N   UNL     1      49.246   6.537  17.339  0.00  0.00    +0.000 NA
ATOM     26  H   UNL     1      48.303   5.386  14.656  0.00  0.00    +0.000 HD
BRANCH  23  27
ATOM     27  C   UNL     1      49.209   4.613  20.547  0.00  0.00    +0.000 C 
ATOM     28  N   UNL     1      50.533   4.608  20.886  0.00  0.00    +0.000 N 
ATOM     29  O   UNL     1      48.342   4.314  21.363  0.00  0.00    +0.000 OA
ATOM     30  H   UNL     1      51.235   4.858  20.202  0.00  0.00    +0.000 HD
ATOM     31  H   UNL     1      50.797   4.356  21.828  0.00  0.00    +0.000 HD
ENDBRANCH  23  27
ENDBRANCH  18  19
ENDBRANCH  17  18
ENDBRANCH   3  17
TORSDOF 7
ENDMDL
MODEL 6
REMARK VINA RESULT:    -6.313      4.006      7.308
REMARK INTER + INTRA:          -9.809
REMARK INTER:                  -8.646
REMARK INTRA:                  -1.163
REMARK UNBOUND:                -0.912
REMARK  Name = 
REMARK  9 active torsions:
REMARK  status: ('A' for Active; 'I' for Inactive)
REMARK    1  A    between atoms: C_1  and  O_2
REMARK    2  A    between atoms: O_2  and  C_3
REMARK    3  A    between atoms: C_5  and  C_6
REMARK    4  A    between atoms: C_6  and  C_7
REMARK    5  A    between atoms: C_7  and  N_8
REMARK    6  A    between atoms: C_12  and  C_13
REMARK    7  A    between atoms: C_19  and  C_20
REMARK    8  A    between atoms: C_25  and  O_26
REMARK    9  A    between atoms: O_26  and  C_27
REMARK                            x       y       z     vdW  Elec       q    Type
REMARK                         _______ _______ _______ _____ _____    ______ ____
ROOT
ATOM      1  C   UNL     1      48.490   7.152  18.790  0.00  0.00    +0.000 A 
ATOM      2  C   UNL     1      48.561   8.017  17.700  0.00  0.00    +0.000 A 
ATOM      3  C   UNL     1      49.230   7.623  16.535  0.00  0.00    +0.000 A 
ATOM      4  C   UNL     1      49.758   6.321  16.462  0.00  0.00    +0.000 A 
ATOM      5  C   UNL     1      49.735   5.426  17.556  0.00  0.00    +0.000 A 
ATOM      6  C   UNL     1      49.089   5.887  18.715  0.00  0.00    +0.000 A 
ENDROOT
BRANCH   5   7
ATOM      7  C   UNL     1      50.462   4.114  17.511  0.00  0.00    +0.000 A 
ATOM      8  C   UNL     1      51.768   4.050  18.055  0.00  0.00    +0.000 A 
ATOM      9  C   UNL     1      52.501   2.865  18.126  0.00  0.00    +0.000 A 
ATOM     10  C   UNL     1      51.949   1.688  17.655  0.00  0.00    +0.000 A 
ATOM     11  C   UNL     1      50.674   1.703  17.098  0.00  0.00    +0.000 A 
ATOM     12  C   UNL     1      49.920   2.892  17.030  0.00  0.00    +0.000 A 
BRANCH  12  13
ATOM     13  O   UNL     1      48.666   2.899  16.462  0.00  0.00    +0.000 OA
ATOM     14  C   UNL     1      47.566   2.797  17.364  0.00  0.00    +0.000 C 
ENDBRANCH  12  13
ENDBRANCH   5   7
BRANCH   1  16
ATOM     15  C   UNL     1      47.489   6.312  20.778  0.00  0.00    +0.000 C 
ATOM     16  O   UNL     1      47.907   7.423  19.998  0.00  0.00    +0.000 OA
ENDBRANCH   1  16
BRANCH   3  17
ATOM     17  C   UNL     1      49.414   8.590  15.384  0.00  0.00    +0.000 C 
BRANCH  17  18
ATOM     18  C   UNL     1      49.249   7.920  14.021  0.00  0.00    +0.000 C 
BRANCH  18  19
ATOM     19  N   UNL     1      47.980   8.318  13.386  0.00  0.00    +0.000 N 
ATOM     20  C   UNL     1      47.074   7.241  13.285  0.00  0.00    +0.000 A 
ATOM     21  C   UNL     1      45.808   7.419  12.708  0.00  0.00    +0.000 A 
ATOM     22  N   UNL     1      44.879   6.427  12.575  0.00  0.00    +0.000 NA
ATOM     23  C   UNL     1      45.273   5.223  13.070  0.00  0.00    +0.000 A 
ATOM     24  C   UNL     1      46.510   5.032  13.660  0.00  0.00    +0.000 A 
ATOM     25  N   UNL     1      47.419   6.034  13.777  0.00  0.00    +0.000 NA
ATOM     26  H   UNL     1      48.123   8.713  12.459  0.00  0.00    +0.000 HD
BRANCH  23  27
ATOM     27  C   UNL     1      44.340   4.069  12.966  0.00  0.00    +0.000 C 
ATOM     28  N   UNL     1      44.874   2.892  12.520  0.00  0.00    +0.000 N 
ATOM     29  O   UNL     1      43.153   4.156  13.265  0.00  0.00    +0.000 OA
ATOM     30  H   UNL     1      45.855   2.837  12.278  0.00  0.00    +0.000 HD
ATOM     31  H   UNL     1      44.277   2.081  12.441  0.00  0.00    +0.000 HD
ENDBRANCH  23  27
ENDBRANCH  18  19
ENDBRANCH  17  18
ENDBRANCH   3  17
TORSDOF 7
ENDMDL
MODEL 7
REMARK VINA RESULT:    -6.233      4.624      8.172
REMARK INTER + INTRA:          -9.696
REMARK INTER:                  -8.767
REMARK INTRA:                  -0.929
REMARK UNBOUND:                -0.912
REMARK  Name = 
REMARK  9 active torsions:
REMARK  status: ('A' for Active; 'I' for Inactive)
REMARK    1  A    between atoms: C_1  and  O_2
REMARK    2  A    between atoms: O_2  and  C_3
REMARK    3  A    between atoms: C_5  and  C_6
REMARK    4  A    between atoms: C_6  and  C_7
REMARK    5  A    between atoms: C_7  and  N_8
REMARK    6  A    between atoms: C_12  and  C_13
REMARK    7  A    between atoms: C_19  and  C_20
REMARK    8  A    between atoms: C_25  and  O_26
REMARK    9  A    between atoms: O_26  and  C_27
REMARK                            x       y       z     vdW  Elec       q    Type
REMARK                         _______ _______ _______ _____ _____    ______ ____
ROOT
ATOM      1  C   UNL     1      48.157   8.035  12.223  0.00  0.00    +0.000 A 
ATOM      2  C   UNL     1      47.621   9.317  12.120  0.00  0.00    +0.000 A 
ATOM      3  C   UNL     1      46.243   9.489  11.946  0.00  0.00    +0.000 A 
ATOM      4  C   UNL     1      45.411   8.354  11.953  0.00  0.00    +0.000 A 
ATOM      5  C   UNL     1      45.918   7.037  12.023  0.00  0.00    +0.000 A 
ATOM      6  C   UNL     1      47.311   6.919  12.154  0.00  0.00    +0.000 A 
ENDROOT
BRANCH   5   7
ATOM      7  C   UNL     1      45.026   5.842  11.848  0.00  0.00    +0.000 A 
ATOM      8  C   UNL     1      44.149   5.498  12.906  0.00  0.00    +0.000 A 
ATOM      9  C   UNL     1      43.232   4.450  12.816  0.00  0.00    +0.000 A 
ATOM     10  C   UNL     1      43.154   3.704  11.655  0.00  0.00    +0.000 A 
ATOM     11  C   UNL     1      44.006   3.993  10.594  0.00  0.00    +0.000 A 
ATOM     12  C   UNL     1      44.930   5.056  10.668  0.00  0.00    +0.000 A 
BRANCH  12  13
ATOM     13  O   UNL     1      45.779   5.326   9.619  0.00  0.00    +0.000 OA
ATOM     14  C   UNL     1      45.603   4.534   8.446  0.00  0.00    +0.000 C 
ENDBRANCH  12  13
ENDBRANCH   5   7
BRANCH   1  16
ATOM     15  C   UNL     1      50.371   8.253  11.380  0.00  0.00    +0.000 C 
ATOM     16  O   UNL     1      49.483   7.723  12.354  0.00  0.00    +0.000 OA
ENDBRANCH   1  16
BRANCH   3  17
ATOM     17  C   UNL     1      45.657  10.866  11.719  0.00  0.00    +0.000 C 
BRANCH  17  18
ATOM     18  C   UNL     1      44.267  10.819  11.088  0.00  0.00    +0.000 C 
BRANCH  18  19
ATOM     19  N   UNL     1      43.379  11.830  11.688  0.00  0.00    +0.000 N 
ATOM     20  C   UNL     1      42.031  11.414  11.703  0.00  0.00    +0.000 A 
ATOM     21  C   UNL     1      41.029  12.240  12.235  0.00  0.00    +0.000 A 
ATOM     22  N   UNL     1      39.705  11.907  12.284  0.00  0.00    +0.000 NA
ATOM     23  C   UNL     1      39.420  10.676  11.781  0.00  0.00    +0.000 A 
ATOM     24  C   UNL     1      40.396   9.839  11.269  0.00  0.00    +0.000 A 
ATOM     25  N   UNL     1      41.705  10.194  11.228  0.00  0.00    +0.000 NA
ATOM     26  H   UNL     1      43.438  12.726  11.208  0.00  0.00    +0.000 HD
BRANCH  23  27
ATOM     27  C   UNL     1      38.005  10.218  11.775  0.00  0.00    +0.000 C 
ATOM     28  N   UNL     1      37.050  11.186  11.917  0.00  0.00    +0.000 N 
ATOM     29  O   UNL     1      37.698   9.037  11.648  0.00  0.00    +0.000 OA
ATOM     30  H   UNL     1      37.321  12.156  12.020  0.00  0.00    +0.000 HD
ATOM     31  H   UNL     1      36.076  10.920  11.912  0.00  0.00    +0.000 HD
ENDBRANCH  23  27
ENDBRANCH  18  19
ENDBRANCH  17  18
ENDBRANCH   3  17
TORSDOF 7
ENDMDL
MODEL 8
REMARK VINA RESULT:    -6.212      4.914      7.302
REMARK INTER + INTRA:          -9.667
REMARK INTER:                  -8.804
REMARK INTRA:                  -0.862
REMARK UNBOUND:                -0.912
REMARK  Name = 
REMARK  9 active torsions:
REMARK  status: ('A' for Active; 'I' for Inactive)
REMARK    1  A    between atoms: C_1  and  O_2
REMARK    2  A    between atoms: O_2  and  C_3
REMARK    3  A    between atoms: C_5  and  C_6
REMARK    4  A    between atoms: C_6  and  C_7
REMARK    5  A    between atoms: C_7  and  N_8
REMARK    6  A    between atoms: C_12  and  C_13
REMARK    7  A    between atoms: C_19  and  C_20
REMARK    8  A    between atoms: C_25  and  O_26
REMARK    9  A    between atoms: O_26  and  C_27
REMARK                            x       y       z     vdW  Elec       q    Type
REMARK                         _______ _______ _______ _____ _____    ______ ____
ROOT
ATOM      1  C   UNL     1      50.914   2.185  17.342  0.00  0.00    +0.000 A 
ATOM      2  C   UNL     1      49.573   2.527  17.176  0.00  0.00    +0.000 A 
ATOM      3  C   UNL     1      49.157   3.849  17.369  0.00  0.00    +0.000 A 
ATOM      4  C   UNL     1      50.124   4.830  17.657  0.00  0.00    +0.000 A 
ATOM      5  C   UNL     1      51.487   4.520  17.865  0.00  0.00    +0.000 A 
ATOM      6  C   UNL     1      51.844   3.171  17.701  0.00  0.00    +0.000 A 
ENDROOT
BRANCH   5   7
ATOM      7  C   UNL     1      52.462   5.553  18.347  0.00  0.00    +0.000 A 
ATOM      8  C   UNL     1      53.015   6.450  17.400  0.00  0.00    +0.000 A 
ATOM      9  C   UNL     1      53.875   7.490  17.754  0.00  0.00    +0.000 A 
ATOM     10  C   UNL     1      54.215   7.675  19.081  0.00  0.00    +0.000 A 
ATOM     11  C   UNL     1      53.711   6.811  20.047  0.00  0.00    +0.000 A 
ATOM     12  C   UNL     1      52.832   5.763  19.703  0.00  0.00    +0.000 A 
BRANCH  12  13
ATOM     13  O   UNL     1      52.351   4.903  20.663  0.00  0.00    +0.000 OA
ATOM     14  C   UNL     1      53.303   4.018  21.251  0.00  0.00    +0.000 C 
ENDBRANCH  12  13
ENDBRANCH   5   7
BRANCH   1  16
ATOM     15  C   UNL     1      52.759   0.736  17.732  0.00  0.00    +0.000 C 
ATOM     16  O   UNL     1      51.448   0.930  17.225  0.00  0.00    +0.000 OA
ENDBRANCH   1  16
BRANCH   3  17
ATOM     17  C   UNL     1      47.690   4.216  17.303  0.00  0.00    +0.000 C 
BRANCH  17  18
ATOM     18  C   UNL     1      47.092   4.010  15.912  0.00  0.00    +0.000 C 
BRANCH  18  19
ATOM     19  N   UNL     1      47.330   5.185  15.056  0.00  0.00    +0.000 N 
ATOM     20  C   UNL     1      46.640   5.098  13.828  0.00  0.00    +0.000 A 
ATOM     21  C   UNL     1      46.739   6.121  12.873  0.00  0.00    +0.000 A 
ATOM     22  N   UNL     1      46.103   6.109  11.665  0.00  0.00    +0.000 NA
ATOM     23  C   UNL     1      45.330   5.009  11.452  0.00  0.00    +0.000 A 
ATOM     24  C   UNL     1      45.204   3.999  12.389  0.00  0.00    +0.000 A 
ATOM     25  N   UNL     1      45.851   4.032  13.582  0.00  0.00    +0.000 NA
ATOM     26  H   UNL     1      48.320   5.325  14.864  0.00  0.00    +0.000 HD
BRANCH  23  27
ATOM     27  C   UNL     1      44.601   4.889  10.162  0.00  0.00    +0.000 C 
ATOM     28  N   UNL     1      45.364   4.890   9.028  0.00  0.00    +0.000 N 
ATOM     29  O   UNL     1      43.379   4.790  10.105  0.00  0.00    +0.000 OA
ATOM     30  H   UNL     1      46.371   4.972   9.092  0.00  0.00    +0.000 HD
ATOM     31  H   UNL     1      44.909   4.804   8.130  0.00  0.00    +0.000 HD
ENDBRANCH  23  27
ENDBRANCH  18  19
ENDBRANCH  17  18
ENDBRANCH   3  17
TORSDOF 7
ENDMDL
MODEL 9
REMARK VINA RESULT:    -6.205      4.538      6.762
REMARK INTER + INTRA:          -9.656
REMARK INTER:                  -8.774
REMARK INTRA:                  -0.882
REMARK UNBOUND:                -0.912
REMARK  Name = 
REMARK  9 active torsions:
REMARK  status: ('A' for Active; 'I' for Inactive)
REMARK    1  A    between atoms: C_1  and  O_2
REMARK    2  A    between atoms: O_2  and  C_3
REMARK    3  A    between atoms: C_5  and  C_6
REMARK    4  A    between atoms: C_6  and  C_7
REMARK    5  A    between atoms: C_7  and  N_8
REMARK    6  A    between atoms: C_12  and  C_13
REMARK    7  A    between atoms: C_19  and  C_20
REMARK    8  A    between atoms: C_25  and  O_26
REMARK    9  A    between atoms: O_26  and  C_27
REMARK                            x       y       z     vdW  Elec       q    Type
REMARK                         _______ _______ _______ _____ _____    ______ ____
ROOT
ATOM      1  C   UNL     1      50.393   5.584  18.403  0.00  0.00    +0.000 A 
ATOM      2  C   UNL     1      49.603   4.658  17.723  0.00  0.00    +0.000 A 
ATOM      3  C   UNL     1      48.208   4.763  17.765  0.00  0.00    +0.000 A 
ATOM      4  C   UNL     1      47.629   5.854  18.438  0.00  0.00    +0.000 A 
ATOM      5  C   UNL     1      48.393   6.795  19.165  0.00  0.00    +0.000 A 
ATOM      6  C   UNL     1      49.786   6.620  19.125  0.00  0.00    +0.000 A 
ENDROOT
BRANCH   5   7
ATOM      7  C   UNL     1      47.741   7.843  20.019  0.00  0.00    +0.000 A 
ATOM      8  C   UNL     1      47.532   7.557  21.391  0.00  0.00    +0.000 A 
ATOM      9  C   UNL     1      47.000   8.486  22.285  0.00  0.00    +0.000 A 
ATOM     10  C   UNL     1      46.655   9.748  21.838  0.00  0.00    +0.000 A 
ATOM     11  C   UNL     1      46.827  10.072  20.496  0.00  0.00    +0.000 A 
ATOM     12  C   UNL     1      47.374   9.145  19.585  0.00  0.00    +0.000 A 
BRANCH  12  13
ATOM     13  O   UNL     1      47.525   9.468  18.256  0.00  0.00    +0.000 OA
ATOM     14  C   UNL     1      47.858  10.826  17.972  0.00  0.00    +0.000 C 
ENDBRANCH  12  13
ENDBRANCH   5   7
BRANCH   1  16
ATOM     15  C   UNL     1      52.371   4.400  18.989  0.00  0.00    +0.000 C 
ATOM     16  O   UNL     1      51.760   5.576  18.479  0.00  0.00    +0.000 OA
ENDBRANCH   1  16
BRANCH   3  17
ATOM     17  C   UNL     1      47.333   3.704  17.128  0.00  0.00    +0.000 C 
BRANCH  17  18
ATOM     18  C   UNL     1      47.460   3.672  15.606  0.00  0.00    +0.000 C 
BRANCH  18  19
ATOM     19  N   UNL     1      46.899   4.894  15.004  0.00  0.00    +0.000 N 
ATOM     20  C   UNL     1      46.216   4.629  13.798  0.00  0.00    +0.000 A 
ATOM     21  C   UNL     1      45.611   5.666  13.071  0.00  0.00    +0.000 A 
ATOM     22  N   UNL     1      44.934   5.488  11.899  0.00  0.00    +0.000 NA
ATOM     23  C   UNL     1      44.872   4.195  11.480  0.00  0.00    +0.000 A 
ATOM     24  C   UNL     1      45.446   3.156  12.192  0.00  0.00    +0.000 A 
ATOM     25  N   UNL     1      46.117   3.359  13.355  0.00  0.00    +0.000 NA
ATOM     26  H   UNL     1      47.614   5.597  14.825  0.00  0.00    +0.000 HD
BRANCH  23  27
ATOM     27  C   UNL     1      44.167   3.890  10.207  0.00  0.00    +0.000 C 
ATOM     28  N   UNL     1      44.283   2.612   9.736  0.00  0.00    +0.000 N 
ATOM     29  O   UNL     1      43.510   4.733   9.602  0.00  0.00    +0.000 OA
ATOM     30  H   UNL     1      44.829   1.929  10.247  0.00  0.00    +0.000 HD
ATOM     31  H   UNL     1      43.814   2.361   8.878  0.00  0.00    +0.000 HD
ENDBRANCH  23  27
ENDBRANCH  18  19
ENDBRANCH  17  18
ENDBRANCH   3  17
TORSDOF 7
ENDMDL
