MODEL 1
REMARK VINA RESULT:    -8.567      0.000      0.000
REMARK INTER + INTRA:         -12.299
REMARK INTER:                 -11.572
REMARK INTRA:                  -0.727
REMARK UNBOUND:                -0.727
REMARK  Name = 
REMARK  6 active torsions:
REMARK  status: ('A' for Active; 'I' for Inactive)
REMARK    1  A    between atoms: C_2  and  C_20
REMARK    2  A    between atoms: N_3  and  C_4
REMARK    3  A    between atoms: C_4  and  C_5
REMARK    4  A    between atoms: C_8  and  C_9
REMARK    5  A    between atoms: C_9  and  C_10
REMARK    6  A    between atoms: C_10  and  N_11
REMARK                            x       y       z     vdW  Elec       q    Type
REMARK                         _______ _______ _______ _____ _____    ______ ____
ROOT
ATOM      1  C   UNL     1      46.328   7.324  12.197  0.00  0.00    +0.000 A 
ATOM      2  C   UNL     1      47.468   6.511  12.260  0.00  0.00    +0.000 A 
ATOM      3  C   UNL     1      48.495   6.794  13.168  0.00  0.00    +0.000 A 
ATOM      4  C   UNL     1      48.409   7.889  14.037  0.00  0.00    +0.000 A 
ATOM      5  C   UNL     1      47.258   8.683  13.987  0.00  0.00    +0.000 A 
ATOM      6  C   UNL     1      46.230   8.402  13.080  0.00  0.00    +0.000 A 
ENDROOT
BRANCH   1   7
ATOM      7  C   UNL     1      45.213   7.018  11.232  0.00  0.00    +0.000 C 
BRANCH   7  10
ATOM      8  O   UNL     1      42.884   5.434  10.799  0.00  0.00    +0.000 OA
ATOM      9  C   UNL     1      44.000   4.956  10.621  0.00  0.00    +0.000 C 
ATOM     10  N   UNL     1      45.170   5.611  10.939  0.00  0.00    +0.000 N 
ATOM     11  H   UNL     1      46.018   5.133  10.641  0.00  0.00    +0.000 HD
BRANCH   9  12
ATOM     12  C   UNL     1      44.248   3.681   9.928  0.00  0.00    +0.000 A 
ATOM     13  N   UNL     1      43.752   2.521  10.420  0.00  0.00    +0.000 NA
ATOM     14  N   UNL     1      44.399   1.578   9.720  0.00  0.00    +0.000 N 
ATOM     15  C   UNL     1      45.322   2.066   8.839  0.00  0.00    +0.000 A 
ATOM     16  C   UNL     1      46.311   1.431   8.083  0.00  0.00    +0.000 A 
ATOM     17  C   UNL     1      47.062   2.235   7.220  0.00  0.00    +0.000 A 
ATOM     18  C   UNL     1      46.794   3.598   7.087  0.00  0.00    +0.000 A 
ATOM     19  C   UNL     1      45.832   4.222   7.894  0.00  0.00    +0.000 A 
ATOM     20  C   UNL     1      45.116   3.442   8.822  0.00  0.00    +0.000 A 
ATOM     21  H   UNL     1      44.196   0.605   9.922  0.00  0.00    +0.000 HD
ENDBRANCH   9  12
ENDBRANCH   7  10
ENDBRANCH   1   7
BRANCH   4  22
ATOM     22  C   UNL     1      49.504   8.266  15.025  0.00  0.00    +0.000 C 
BRANCH  22  23
ATOM     23  C   UNL     1      49.795   7.219  16.105  0.00  0.00    +0.000 C 
BRANCH  23  24
ATOM     24  N   UNL     1      48.576   6.597  16.604  0.00  0.00    +0.000 N 
ATOM     25  C   UNL     1      48.727   5.225  16.797  0.00  0.00    +0.000 A 
ATOM     26  N   UNL     1      49.929   4.724  17.128  0.00  0.00    +0.000 NA
ATOM     27  C   UNL     1      50.029   3.392  17.272  0.00  0.00    +0.000 A 
ATOM     28  C   UNL     1      48.969   2.539  17.110  0.00  0.00    +0.000 A 
ATOM     29  C   UNL     1      47.783   3.142  16.769  0.00  0.00    +0.000 A 
ATOM     30  N   UNL     1      47.638   4.472  16.600  0.00  0.00    +0.000 NA
ATOM     31  H   UNL     1      47.745   6.704  16.026  0.00  0.00    +0.000 HD
ENDBRANCH  23  24
ENDBRANCH  22  23
ENDBRANCH   4  22
TORSDOF 6
ENDMDL
MODEL 2
REMARK VINA RESULT:    -8.414      2.093      8.325
REMARK INTER + INTRA:         -12.092
REMARK INTER:                 -10.932
REMARK INTRA:                  -1.160
REMARK UNBOUND:                -0.727
REMARK  Name = 
REMARK  6 active torsions:
REMARK  status: ('A' for Active; 'I' for Inactive)
REMARK    1  A    between atoms: C_2  and  C_20
REMARK    2  A    between atoms: N_3  and  C_4
REMARK    3  A    between atoms: C_4  and  C_5
REMARK    4  A    between atoms: C_8  and  C_9
REMARK    5  A    between atoms: C_9  and  C_10
REMARK    6  A    between atoms: C_10  and  N_11
REMARK                            x       y       z     vdW  Elec       q    Type
REMARK                         _______ _______ _______ _____ _____    ______ ____
ROOT
ATOM      1  C   UNL     1      46.969   6.452  12.577  0.00  0.00    +0.000 A 
ATOM      2  C   UNL     1      46.673   5.336  13.372  0.00  0.00    +0.000 A 
ATOM      3  C   UNL     1      45.693   4.419  12.975  0.00  0.00    +0.000 A 
ATOM      4  C   UNL     1      44.988   4.589  11.777  0.00  0.00    +0.000 A 
ATOM      5  C   UNL     1      45.305   5.691  10.975  0.00  0.00    +0.000 A 
ATOM      6  C   UNL     1      46.284   6.609  11.369  0.00  0.00    +0.000 A 
ENDROOT
BRANCH   1   7
ATOM      7  C   UNL     1      48.032   7.435  12.991  0.00  0.00    +0.000 C 
BRANCH   7  10
ATOM      8  O   UNL     1      48.374   8.474  15.622  0.00  0.00    +0.000 OA
ATOM      9  C   UNL     1      48.857   7.388  15.317  0.00  0.00    +0.000 C 
ATOM     10  N   UNL     1      48.852   6.884  14.034  0.00  0.00    +0.000 N 
ATOM     11  H   UNL     1      49.196   5.929  13.952  0.00  0.00    +0.000 HD
BRANCH   9  12
ATOM     12  C   UNL     1      49.387   6.420  16.291  0.00  0.00    +0.000 A 
ATOM     13  N   UNL     1      50.686   6.467  16.673  0.00  0.00    +0.000 NA
ATOM     14  N   UNL     1      50.870   5.304  17.315  0.00  0.00    +0.000 N 
ATOM     15  C   UNL     1      49.775   4.488  17.323  0.00  0.00    +0.000 A 
ATOM     16  C   UNL     1      49.613   3.155  17.707  0.00  0.00    +0.000 A 
ATOM     17  C   UNL     1      48.319   2.630  17.644  0.00  0.00    +0.000 A 
ATOM     18  C   UNL     1      47.236   3.423  17.265  0.00  0.00    +0.000 A 
ATOM     19  C   UNL     1      47.430   4.743  16.835  0.00  0.00    +0.000 A 
ATOM     20  C   UNL     1      48.737   5.267  16.821  0.00  0.00    +0.000 A 
ATOM     21  H   UNL     1      51.789   5.104  17.692  0.00  0.00    +0.000 HD
ENDBRANCH   9  12
ENDBRANCH   7  10
ENDBRANCH   1   7
BRANCH   4  22
ATOM     22  C   UNL     1      43.891   3.644  11.305  0.00  0.00    +0.000 C 
BRANCH  22  23
ATOM     23  C   UNL     1      44.076   3.088   9.890  0.00  0.00    +0.000 C 
BRANCH  23  24
ATOM     24  N   UNL     1      45.170   2.130   9.818  0.00  0.00    +0.000 N 
ATOM     25  C   UNL     1      45.872   2.221   8.618  0.00  0.00    +0.000 A 
ATOM     26  N   UNL     1      45.963   3.402   7.984  0.00  0.00    +0.000 NA
ATOM     27  C   UNL     1      46.624   3.432   6.815  0.00  0.00    +0.000 A 
ATOM     28  C   UNL     1      47.211   2.326   6.257  0.00  0.00    +0.000 A 
ATOM     29  C   UNL     1      47.062   1.164   6.975  0.00  0.00    +0.000 A 
ATOM     30  N   UNL     1      46.396   1.083   8.144  0.00  0.00    +0.000 NA
ATOM     31  H   UNL     1      44.918   1.148   9.915  0.00  0.00    +0.000 HD
ENDBRANCH  23  24
ENDBRANCH  22  23
ENDBRANCH   4  22
TORSDOF 6
ENDMDL
MODEL 3
REMARK VINA RESULT:    -8.122      2.987      9.374
REMARK INTER + INTRA:         -11.698
REMARK INTER:                 -11.042
REMARK INTRA:                  -0.656
REMARK UNBOUND:                -0.727
REMARK  Name = 
REMARK  6 active torsions:
REMARK  status: ('A' for Active; 'I' for Inactive)
REMARK    1  A    between atoms: C_2  and  C_20
REMARK    2  A    between atoms: N_3  and  C_4
REMARK    3  A    between atoms: C_4  and  C_5
REMARK    4  A    between atoms: C_8  and  C_9
REMARK    5  A    between atoms: C_9  and  C_10
REMARK    6  A    between atoms: C_10  and  N_11
REMARK                            x       y       z     vdW  Elec       q    Type
REMARK                         _______ _______ _______ _____ _____    ______ ____
ROOT
ATOM      1  C   UNL     1      47.059   6.070  13.451  0.00  0.00    +0.000 A 
ATOM      2  C   UNL     1      46.248   4.959  13.723  0.00  0.00    +0.000 A 
ATOM      3  C   UNL     1      45.185   4.629  12.874  0.00  0.00    +0.000 A 
ATOM      4  C   UNL     1      44.907   5.393  11.733  0.00  0.00    +0.000 A 
ATOM      5  C   UNL     1      45.735   6.486  11.453  0.00  0.00    +0.000 A 
ATOM      6  C   UNL     1      46.798   6.818  12.300  0.00  0.00    +0.000 A 
ENDROOT
BRANCH   1   7
ATOM      7  C   UNL     1      48.212   6.422  14.352  0.00  0.00    +0.000 C 
BRANCH   7  10
ATOM      8  O   UNL     1      50.134   5.709  16.331  0.00  0.00    +0.000 OA
ATOM      9  C   UNL     1      48.946   5.803  16.626  0.00  0.00    +0.000 C 
ATOM     10  N   UNL     1      47.945   6.008  15.702  0.00  0.00    +0.000 N 
ATOM     11  H   UNL     1      47.023   6.168  16.103  0.00  0.00    +0.000 HD
BRANCH   9  12
ATOM     12  C   UNL     1      48.442   5.842  18.008  0.00  0.00    +0.000 A 
ATOM     13  N   UNL     1      47.420   5.041  18.393  0.00  0.00    +0.000 NA
ATOM     14  N   UNL     1      47.055   5.540  19.582  0.00  0.00    +0.000 N 
ATOM     15  C   UNL     1      47.754   6.651  19.963  0.00  0.00    +0.000 A 
ATOM     16  C   UNL     1      47.559   7.558  21.008  0.00  0.00    +0.000 A 
ATOM     17  C   UNL     1      48.512   8.570  21.154  0.00  0.00    +0.000 A 
ATOM     18  C   UNL     1      49.630   8.635  20.322  0.00  0.00    +0.000 A 
ATOM     19  C   UNL     1      49.777   7.746  19.248  0.00  0.00    +0.000 A 
ATOM     20  C   UNL     1      48.789   6.764  19.040  0.00  0.00    +0.000 A 
ATOM     21  H   UNL     1      46.285   5.101  20.073  0.00  0.00    +0.000 HD
ENDBRANCH   9  12
ENDBRANCH   7  10
ENDBRANCH   1   7
BRANCH   4  22
ATOM     22  C   UNL     1      43.748   5.103  10.789  0.00  0.00    +0.000 C 
BRANCH  22  23
ATOM     23  C   UNL     1      43.909   3.846   9.929  0.00  0.00    +0.000 C 
BRANCH  23  24
ATOM     24  N   UNL     1      44.278   4.165   8.557  0.00  0.00    +0.000 N 
ATOM     25  C   UNL     1      45.303   3.349   8.084  0.00  0.00    +0.000 A 
ATOM     26  N   UNL     1      45.423   2.092   8.543  0.00  0.00    +0.000 NA
ATOM     27  C   UNL     1      46.446   1.355   8.079  0.00  0.00    +0.000 A 
ATOM     28  C   UNL     1      47.351   1.822   7.161  0.00  0.00    +0.000 A 
ATOM     29  C   UNL     1      47.150   3.119   6.753  0.00  0.00    +0.000 A 
ATOM     30  N   UNL     1      46.146   3.899   7.202  0.00  0.00    +0.000 NA
ATOM     31  H   UNL     1      44.585   5.120   8.382  0.00  0.00    +0.000 HD
ENDBRANCH  23  24
ENDBRANCH  22  23
ENDBRANCH   4  22
TORSDOF 6
ENDMDL
MODEL 4
REMARK VINA RESULT:    -7.983      3.655      4.880
REMARK INTER + INTRA:         -11.511
REMARK INTER:                 -10.551
REMARK INTRA:                  -0.960
REMARK UNBOUND:                -0.727
REMARK  Name = 
REMARK  6 active torsions:
REMARK  status: ('A' for Active; 'I' for Inactive)
REMARK    1  A    between atoms: C_2  and  C_20
REMARK    2  A    between atoms: N_3  and  C_4
REMARK    3  A    between atoms: C_4  and  C_5
REMARK    4  A    between atoms: C_8  and  C_9
REMARK    5  A    between atoms: C_9  and  C_10
REMARK    6  A    between atoms: C_10  and  N_11
REMARK                            x       y       z     vdW  Elec       q    Type
REMARK                         _______ _______ _______ _____ _____    ______ ____
ROOT
ATOM      1  C   UNL     1      46.103   6.016  12.764  0.00  0.00    +0.000 A 
ATOM      2  C   UNL     1      47.133   5.688  13.656  0.00  0.00    +0.000 A 
ATOM      3  C   UNL     1      48.395   6.283  13.538  0.00  0.00    +0.000 A 
ATOM      4  C   UNL     1      48.659   7.222  12.533  0.00  0.00    +0.000 A 
ATOM      5  C   UNL     1      47.619   7.565  11.660  0.00  0.00    +0.000 A 
ATOM      6  C   UNL     1      46.358   6.971  11.776  0.00  0.00    +0.000 A 
ENDROOT
BRANCH   1   7
ATOM      7  C   UNL     1      44.741   5.389  12.893  0.00  0.00    +0.000 C 
BRANCH   7  10
ATOM      8  O   UNL     1      43.193   5.313  10.502  0.00  0.00    +0.000 OA
ATOM      9  C   UNL     1      43.933   4.378  10.791  0.00  0.00    +0.000 C 
ATOM     10  N   UNL     1      44.606   4.280  11.990  0.00  0.00    +0.000 N 
ATOM     11  H   UNL     1      45.261   3.503  12.046  0.00  0.00    +0.000 HD
BRANCH   9  12
ATOM     12  C   UNL     1      44.308   3.305   9.855  0.00  0.00    +0.000 A 
ATOM     13  N   UNL     1      43.893   2.033  10.062  0.00  0.00    +0.000 NA
ATOM     14  N   UNL     1      44.638   1.314   9.210  0.00  0.00    +0.000 N 
ATOM     15  C   UNL     1      45.546   2.048   8.501  0.00  0.00    +0.000 A 
ATOM     16  C   UNL     1      46.607   1.666   7.676  0.00  0.00    +0.000 A 
ATOM     17  C   UNL     1      47.317   2.690   7.042  0.00  0.00    +0.000 A 
ATOM     18  C   UNL     1      46.943   4.026   7.191  0.00  0.00    +0.000 A 
ATOM     19  C   UNL     1      45.907   4.388   8.063  0.00  0.00    +0.000 A 
ATOM     20  C   UNL     1      45.228   3.376   8.768  0.00  0.00    +0.000 A 
ATOM     21  H   UNL     1      44.509   0.308   9.190  0.00  0.00    +0.000 HD
ENDBRANCH   9  12
ENDBRANCH   7  10
ENDBRANCH   1   7
BRANCH   4  22
ATOM     22  C   UNL     1      50.016   7.882  12.334  0.00  0.00    +0.000 C 
BRANCH  22  23
ATOM     23  C   UNL     1      50.691   7.589  10.991  0.00  0.00    +0.000 C 
BRANCH  23  24
ATOM     24  N   UNL     1      52.128   7.397  11.132  0.00  0.00    +0.000 N 
ATOM     25  C   UNL     1      52.697   6.824   9.996  0.00  0.00    +0.000 A 
ATOM     26  N   UNL     1      52.160   7.059   8.787  0.00  0.00    +0.000 NA
ATOM     27  C   UNL     1      52.725   6.459   7.727  0.00  0.00    +0.000 A 
ATOM     28  C   UNL     1      53.819   5.638   7.826  0.00  0.00    +0.000 A 
ATOM     29  C   UNL     1      54.295   5.454   9.102  0.00  0.00    +0.000 A 
ATOM     30  N   UNL     1      53.752   6.024  10.196  0.00  0.00    +0.000 NA
ATOM     31  H   UNL     1      52.432   6.819  11.913  0.00  0.00    +0.000 HD
ENDBRANCH  23  24
ENDBRANCH  22  23
ENDBRANCH   4  22
TORSDOF 6
ENDMDL
MODEL 5
REMARK VINA RESULT:    -7.773      1.811      2.254
REMARK INTER + INTRA:         -11.227
REMARK INTER:                 -10.587
REMARK INTRA:                  -0.639
REMARK UNBOUND:                -0.727
REMARK  Name = 
REMARK  6 active torsions:
REMARK  status: ('A' for Active; 'I' for Inactive)
REMARK    1  A    between atoms: C_2  and  C_20
REMARK    2  A    between atoms: N_3  and  C_4
REMARK    3  A    between atoms: C_4  and  C_5
REMARK    4  A    between atoms: C_8  and  C_9
REMARK    5  A    between atoms: C_9  and  C_10
REMARK    6  A    between atoms: C_10  and  N_11
REMARK                            x       y       z     vdW  Elec       q    Type
REMARK                         _______ _______ _______ _____ _____    ______ ____
ROOT
ATOM      1  C   UNL     1      46.320   6.918  12.483  0.00  0.00    +0.000 A 
ATOM      2  C   UNL     1      46.632   8.200  12.958  0.00  0.00    +0.000 A 
ATOM      3  C   UNL     1      47.649   8.381  13.903  0.00  0.00    +0.000 A 
ATOM      4  C   UNL     1      48.381   7.292  14.393  0.00  0.00    +0.000 A 
ATOM      5  C   UNL     1      48.082   6.018  13.897  0.00  0.00    +0.000 A 
ATOM      6  C   UNL     1      47.066   5.835  12.953  0.00  0.00    +0.000 A 
ENDROOT
BRANCH   1   7
ATOM      7  C   UNL     1      45.237   6.718  11.457  0.00  0.00    +0.000 C 
BRANCH   7  10
ATOM      8  O   UNL     1      42.957   5.299  10.504  0.00  0.00    +0.000 OA
ATOM      9  C   UNL     1      44.069   4.782  10.464  0.00  0.00    +0.000 C 
ATOM     10  N   UNL     1      45.193   5.347  11.028  0.00  0.00    +0.000 N 
ATOM     11  H   UNL     1      46.061   4.855  10.828  0.00  0.00    +0.000 HD
BRANCH   9  12
ATOM     12  C   UNL     1      44.384   3.563   9.703  0.00  0.00    +0.000 A 
ATOM     13  N   UNL     1      43.890   2.362  10.089  0.00  0.00    +0.000 NA
ATOM     14  N   UNL     1      44.595   1.481   9.363  0.00  0.00    +0.000 N 
ATOM     15  C   UNL     1      45.551   2.047   8.568  0.00  0.00    +0.000 A 
ATOM     16  C   UNL     1      46.593   1.485   7.826  0.00  0.00    +0.000 A 
ATOM     17  C   UNL     1      47.368   2.359   7.059  0.00  0.00    +0.000 A 
ATOM     18  C   UNL     1      47.076   3.722   7.003  0.00  0.00    +0.000 A 
ATOM     19  C   UNL     1      46.059   4.271   7.797  0.00  0.00    +0.000 A 
ATOM     20  C   UNL     1      45.314   3.416   8.631  0.00  0.00    +0.000 A 
ATOM     21  H   UNL     1      44.405   0.494   9.489  0.00  0.00    +0.000 HD
ENDBRANCH   9  12
ENDBRANCH   7  10
ENDBRANCH   1   7
BRANCH   4  22
ATOM     22  C   UNL     1      49.478   7.420  15.442  0.00  0.00    +0.000 C 
BRANCH  22  23
ATOM     23  C   UNL     1      49.346   6.474  16.640  0.00  0.00    +0.000 C 
BRANCH  23  24
ATOM     24  N   UNL     1      48.062   6.619  17.311  0.00  0.00    +0.000 N 
ATOM     25  C   UNL     1      48.194   6.662  18.698  0.00  0.00    +0.000 A 
ATOM     26  N   UNL     1      49.309   7.174  19.247  0.00  0.00    +0.000 NA
ATOM     27  C   UNL     1      49.402   7.165  20.587  0.00  0.00    +0.000 A 
ATOM     28  C   UNL     1      48.417   6.674  21.404  0.00  0.00    +0.000 A 
ATOM     29  C   UNL     1      47.319   6.168  20.752  0.00  0.00    +0.000 A 
ATOM     30  N   UNL     1      47.187   6.143  19.411  0.00  0.00    +0.000 NA
ATOM     31  H   UNL     1      47.370   5.895  17.124  0.00  0.00    +0.000 HD
ENDBRANCH  23  24
ENDBRANCH  22  23
ENDBRANCH   4  22
TORSDOF 6
ENDMDL
MODEL 6
REMARK VINA RESULT:    -7.364      4.198      8.902
REMARK INTER + INTRA:         -10.674
REMARK INTER:                  -9.909
REMARK INTRA:                  -0.765
REMARK UNBOUND:                -0.727
REMARK  Name = 
REMARK  6 active torsions:
REMARK  status: ('A' for Active; 'I' for Inactive)
REMARK    1  A    between atoms: C_2  and  C_20
REMARK    2  A    between atoms: N_3  and  C_4
REMARK    3  A    between atoms: C_4  and  C_5
REMARK    4  A    between atoms: C_8  and  C_9
REMARK    5  A    between atoms: C_9  and  C_10
REMARK    6  A    between atoms: C_10  and  N_11
REMARK                            x       y       z     vdW  Elec       q    Type
REMARK                         _______ _______ _______ _____ _____    ______ ____
ROOT
ATOM      1  C   UNL     1      45.826   6.785  12.429  0.00  0.00    +0.000 A 
ATOM      2  C   UNL     1      46.361   7.885  13.114  0.00  0.00    +0.000 A 
ATOM      3  C   UNL     1      45.934   9.185  12.818  0.00  0.00    +0.000 A 
ATOM      4  C   UNL     1      44.961   9.420  11.838  0.00  0.00    +0.000 A 
ATOM      5  C   UNL     1      44.413   8.316  11.174  0.00  0.00    +0.000 A 
ATOM      6  C   UNL     1      44.838   7.016  11.468  0.00  0.00    +0.000 A 
ENDROOT
BRANCH   1   7
ATOM      7  C   UNL     1      46.271   5.384  12.752  0.00  0.00    +0.000 C 
BRANCH   7  10
ATOM      8  O   UNL     1      47.275   3.089  14.111  0.00  0.00    +0.000 OA
ATOM      9  C   UNL     1      46.977   4.101  14.740  0.00  0.00    +0.000 C 
ATOM     10  N   UNL     1      46.360   5.196  14.174  0.00  0.00    +0.000 N 
ATOM     11  H   UNL     1      46.267   5.998  14.794  0.00  0.00    +0.000 HD
BRANCH   9  12
ATOM     12  C   UNL     1      47.350   4.338  16.143  0.00  0.00    +0.000 A 
ATOM     13  N   UNL     1      46.809   3.593  17.136  0.00  0.00    +0.000 NA
ATOM     14  N   UNL     1      47.144   4.259  18.251  0.00  0.00    +0.000 N 
ATOM     15  C   UNL     1      47.830   5.419  18.027  0.00  0.00    +0.000 A 
ATOM     16  C   UNL     1      48.185   6.467  18.880  0.00  0.00    +0.000 A 
ATOM     17  C   UNL     1      48.953   7.499  18.331  0.00  0.00    +0.000 A 
ATOM     18  C   UNL     1      49.385   7.449  17.005  0.00  0.00    +0.000 A 
ATOM     19  C   UNL     1      48.973   6.414  16.154  0.00  0.00    +0.000 A 
ATOM     20  C   UNL     1      48.138   5.404  16.670  0.00  0.00    +0.000 A 
ATOM     21  H   UNL     1      46.835   3.890  19.143  0.00  0.00    +0.000 HD
ENDBRANCH   9  12
ENDBRANCH   7  10
ENDBRANCH   1   7
BRANCH   4  22
ATOM     22  C   UNL     1      44.477  10.810  11.450  0.00  0.00    +0.000 C 
BRANCH  22  23
ATOM     23  C   UNL     1      42.974  10.923  11.178  0.00  0.00    +0.000 C 
BRANCH  23  24
ATOM     24  N   UNL     1      42.221  11.219  12.389  0.00  0.00    +0.000 N 
ATOM     25  C   UNL     1      40.845  11.132  12.188  0.00  0.00    +0.000 A 
ATOM     26  N   UNL     1      40.355  10.274  11.277  0.00  0.00    +0.000 NA
ATOM     27  C   UNL     1      39.024  10.251  11.098  0.00  0.00    +0.000 A 
ATOM     28  C   UNL     1      38.158  11.045  11.804  0.00  0.00    +0.000 A 
ATOM     29  C   UNL     1      38.751  11.892  12.709  0.00  0.00    +0.000 A 
ATOM     30  N   UNL     1      40.082  11.960  12.913  0.00  0.00    +0.000 NA
ATOM     31  H   UNL     1      42.380  12.133  12.808  0.00  0.00    +0.000 HD
ENDBRANCH  23  24
ENDBRANCH  22  23
ENDBRANCH   4  22
TORSDOF 6
ENDMDL
MODEL 7
REMARK VINA RESULT:    -7.343      3.120      5.463
REMARK INTER + INTRA:         -10.646
REMARK INTER:                  -9.501
REMARK INTRA:                  -1.145
REMARK UNBOUND:                -0.727
REMARK  Name = 
REMARK  6 active torsions:
REMARK  status: ('A' for Active; 'I' for Inactive)
REMARK    1  A    between atoms: C_2  and  C_20
REMARK    2  A    between atoms: N_3  and  C_4
REMARK    3  A    between atoms: C_4  and  C_5
REMARK    4  A    between atoms: C_8  and  C_9
REMARK    5  A    between atoms: C_9  and  C_10
REMARK    6  A    between atoms: C_10  and  N_11
REMARK                            x       y       z     vdW  Elec       q    Type
REMARK                         _______ _______ _______ _____ _____    ______ ____
ROOT
ATOM      1  C   UNL     1      46.327   6.203  13.000  0.00  0.00    +0.000 A 
ATOM      2  C   UNL     1      46.014   7.430  12.398  0.00  0.00    +0.000 A 
ATOM      3  C   UNL     1      47.028   8.269  11.922  0.00  0.00    +0.000 A 
ATOM      4  C   UNL     1      48.377   7.905  12.029  0.00  0.00    +0.000 A 
ATOM      5  C   UNL     1      48.682   6.668  12.609  0.00  0.00    +0.000 A 
ATOM      6  C   UNL     1      47.670   5.828  13.085  0.00  0.00    +0.000 A 
ENDROOT
BRANCH   1   7
ATOM      7  C   UNL     1      45.241   5.290  13.502  0.00  0.00    +0.000 C 
BRANCH   7  10
ATOM      8  O   UNL     1      43.238   5.374  11.476  0.00  0.00    +0.000 OA
ATOM      9  C   UNL     1      44.045   4.450  11.511  0.00  0.00    +0.000 C 
ATOM     10  N   UNL     1      44.951   4.268  12.534  0.00  0.00    +0.000 N 
ATOM     11  H   UNL     1      45.624   3.519  12.376  0.00  0.00    +0.000 HD
BRANCH   9  12
ATOM     12  C   UNL     1      44.247   3.491  10.413  0.00  0.00    +0.000 A 
ATOM     13  N   UNL     1      43.767   2.228  10.504  0.00  0.00    +0.000 NA
ATOM     14  N   UNL     1      44.369   1.587   9.492  0.00  0.00    +0.000 N 
ATOM     15  C   UNL     1      45.250   2.356   8.785  0.00  0.00    +0.000 A 
ATOM     16  C   UNL     1      46.193   2.027   7.808  0.00  0.00    +0.000 A 
ATOM     17  C   UNL     1      46.905   3.084   7.233  0.00  0.00    +0.000 A 
ATOM     18  C   UNL     1      46.642   4.407   7.588  0.00  0.00    +0.000 A 
ATOM     19  C   UNL     1      45.728   4.709   8.607  0.00  0.00    +0.000 A 
ATOM     20  C   UNL     1      45.055   3.653   9.249  0.00  0.00    +0.000 A 
ATOM     21  H   UNL     1      44.169   0.602   9.360  0.00  0.00    +0.000 HD
ENDBRANCH   9  12
ENDBRANCH   7  10
ENDBRANCH   1   7
BRANCH   4  22
ATOM     22  C   UNL     1      49.526   8.786  11.558  0.00  0.00    +0.000 C 
BRANCH  22  23
ATOM     23  C   UNL     1      49.456  10.245  12.017  0.00  0.00    +0.000 C 
BRANCH  23  24
ATOM     24  N   UNL     1      49.322  11.165  10.896  0.00  0.00    +0.000 N 
ATOM     25  C   UNL     1      48.027  11.668  10.780  0.00  0.00    +0.000 A 
ATOM     26  N   UNL     1      47.269  11.823  11.879  0.00  0.00    +0.000 NA
ATOM     27  C   UNL     1      46.018  12.282  11.711  0.00  0.00    +0.000 A 
ATOM     28  C   UNL     1      45.496  12.606  10.486  0.00  0.00    +0.000 A 
ATOM     29  C   UNL     1      46.344  12.411   9.422  0.00  0.00    +0.000 A 
ATOM     30  N   UNL     1      47.601  11.940   9.540  0.00  0.00    +0.000 NA
ATOM     31  H   UNL     1      49.555  10.794   9.977  0.00  0.00    +0.000 HD
ENDBRANCH  23  24
ENDBRANCH  22  23
ENDBRANCH   4  22
TORSDOF 6
ENDMDL
MODEL 8
REMARK VINA RESULT:    -7.169      2.174      2.816
REMARK INTER + INTRA:         -10.410
REMARK INTER:                  -9.306
REMARK INTRA:                  -1.105
REMARK UNBOUND:                -0.727
REMARK  Name = 
REMARK  6 active torsions:
REMARK  status: ('A' for Active; 'I' for Inactive)
REMARK    1  A    between atoms: C_2  and  C_20
REMARK    2  A    between atoms: N_3  and  C_4
REMARK    3  A    between atoms: C_4  and  C_5
REMARK    4  A    between atoms: C_8  and  C_9
REMARK    5  A    between atoms: C_9  and  C_10
REMARK    6  A    between atoms: C_10  and  N_11
REMARK                            x       y       z     vdW  Elec       q    Type
REMARK                         _______ _______ _______ _____ _____    ______ ____
ROOT
ATOM      1  C   UNL     1      46.254   6.066  13.087  0.00  0.00    +0.000 A 
ATOM      2  C   UNL     1      45.843   7.333  12.648  0.00  0.00    +0.000 A 
ATOM      3  C   UNL     1      46.782   8.267  12.192  0.00  0.00    +0.000 A 
ATOM      4  C   UNL     1      48.148   7.960  12.157  0.00  0.00    +0.000 A 
ATOM      5  C   UNL     1      48.549   6.685  12.573  0.00  0.00    +0.000 A 
ATOM      6  C   UNL     1      47.614   5.750  13.029  0.00  0.00    +0.000 A 
ENDROOT
BRANCH   1   7
ATOM      7  C   UNL     1      45.249   5.053  13.566  0.00  0.00    +0.000 C 
BRANCH   7  10
ATOM      8  O   UNL     1      43.106   5.040  11.689  0.00  0.00    +0.000 OA
ATOM      9  C   UNL     1      44.007   4.211  11.606  0.00  0.00    +0.000 C 
ATOM     10  N   UNL     1      45.000   4.067  12.550  0.00  0.00    +0.000 N 
ATOM     11  H   UNL     1      45.735   3.410  12.297  0.00  0.00    +0.000 HD
BRANCH   9  12
ATOM     12  C   UNL     1      44.229   3.351  10.432  0.00  0.00    +0.000 A 
ATOM     13  N   UNL     1      43.771   2.077  10.414  0.00  0.00    +0.000 NA
ATOM     14  N   UNL     1      44.387   1.533   9.355  0.00  0.00    +0.000 N 
ATOM     15  C   UNL     1      45.257   2.373   8.719  0.00  0.00    +0.000 A 
ATOM     16  C   UNL     1      46.208   2.143   7.722  0.00  0.00    +0.000 A 
ATOM     17  C   UNL     1      46.904   3.257   7.241  0.00  0.00    +0.000 A 
ATOM     18  C   UNL     1      46.617   4.541   7.704  0.00  0.00    +0.000 A 
ATOM     19  C   UNL     1      45.695   4.741   8.741  0.00  0.00    +0.000 A 
ATOM     20  C   UNL     1      45.037   3.623   9.289  0.00  0.00    +0.000 A 
ATOM     21  H   UNL     1      44.205   0.559   9.140  0.00  0.00    +0.000 HD
ENDBRANCH   9  12
ENDBRANCH   7  10
ENDBRANCH   1   7
BRANCH   4  22
ATOM     22  C   UNL     1      49.219   8.941  11.700  0.00  0.00    +0.000 C 
BRANCH  22  23
ATOM     23  C   UNL     1      50.413   9.088  12.648  0.00  0.00    +0.000 C 
BRANCH  23  24
ATOM     24  N   UNL     1      50.038   9.724  13.903  0.00  0.00    +0.000 N 
ATOM     25  C   UNL     1      50.066   8.831  14.974  0.00  0.00    +0.000 A 
ATOM     26  N   UNL     1      50.931   7.803  14.965  0.00  0.00    +0.000 NA
ATOM     27  C   UNL     1      50.898   6.954  16.005  0.00  0.00    +0.000 A 
ATOM     28  C   UNL     1      50.039   7.098  17.063  0.00  0.00    +0.000 A 
ATOM     29  C   UNL     1      49.189   8.174  16.982  0.00  0.00    +0.000 A 
ATOM     30  N   UNL     1      49.177   9.045  15.952  0.00  0.00    +0.000 NA
ATOM     31  H   UNL     1      49.118  10.159  13.933  0.00  0.00    +0.000 HD
ENDBRANCH  23  24
ENDBRANCH  22  23
ENDBRANCH   4  22
TORSDOF 6
ENDMDL
MODEL 9
REMARK VINA RESULT:    -6.902      3.500      8.044
REMARK INTER + INTRA:         -10.050
REMARK INTER:                  -9.339
REMARK INTRA:                  -0.710
REMARK UNBOUND:                -0.727
REMARK  Name = 
REMARK  6 active torsions:
REMARK  status: ('A' for Active; 'I' for Inactive)
REMARK    1  A    between atoms: C_2  and  C_20
REMARK    2  A    between atoms: N_3  and  C_4
REMARK    3  A    between atoms: C_4  and  C_5
REMARK    4  A    between atoms: C_8  and  C_9
REMARK    5  A    between atoms: C_9  and  C_10
REMARK    6  A    between atoms: C_10  and  N_11
REMARK                            x       y       z     vdW  Elec       q    Type
REMARK                         _______ _______ _______ _____ _____    ______ ____
ROOT
ATOM      1  C   UNL     1      45.552   7.418  12.279  0.00  0.00    +0.000 A 
ATOM      2  C   UNL     1      46.122   6.196  12.664  0.00  0.00    +0.000 A 
ATOM      3  C   UNL     1      45.478   4.987  12.373  0.00  0.00    +0.000 A 
ATOM      4  C   UNL     1      44.257   4.966  11.688  0.00  0.00    +0.000 A 
ATOM      5  C   UNL     1      43.705   6.188  11.284  0.00  0.00    +0.000 A 
ATOM      6  C   UNL     1      44.346   7.397  11.574  0.00  0.00    +0.000 A 
ENDROOT
BRANCH   1   7
ATOM      7  C   UNL     1      46.245   8.721  12.578  0.00  0.00    +0.000 C 
BRANCH   7  10
ATOM      8  O   UNL     1      48.195  10.794  12.716  0.00  0.00    +0.000 OA
ATOM      9  C   UNL     1      48.543   9.618  12.682  0.00  0.00    +0.000 C 
ATOM     10  N   UNL     1      47.671   8.570  12.477  0.00  0.00    +0.000 N 
ATOM     11  H   UNL     1      48.087   7.646  12.576  0.00  0.00    +0.000 HD
BRANCH   9  12
ATOM     12  C   UNL     1      49.907   9.153  12.982  0.00  0.00    +0.000 A 
ATOM     13  N   UNL     1      50.536   9.546  14.115  0.00  0.00    +0.000 NA
ATOM     14  N   UNL     1      51.810   9.180  13.914  0.00  0.00    +0.000 N 
ATOM     15  C   UNL     1      52.047   8.618  12.692  0.00  0.00    +0.000 A 
ATOM     16  C   UNL     1      53.235   8.287  12.036  0.00  0.00    +0.000 A 
ATOM     17  C   UNL     1      53.120   7.658  10.793  0.00  0.00    +0.000 A 
ATOM     18  C   UNL     1      51.871   7.333  10.263  0.00  0.00    +0.000 A 
ATOM     19  C   UNL     1      50.692   7.721  10.914  0.00  0.00    +0.000 A 
ATOM     20  C   UNL     1      50.788   8.421  12.132  0.00  0.00    +0.000 A 
ATOM     21  H   UNL     1      52.489   9.383  14.640  0.00  0.00    +0.000 HD
ENDBRANCH   9  12
ENDBRANCH   7  10
ENDBRANCH   1   7
BRANCH   4  22
ATOM     22  C   UNL     1      43.494   3.688  11.368  0.00  0.00    +0.000 C 
BRANCH  22  23
ATOM     23  C   UNL     1      44.150   2.785  10.319  0.00  0.00    +0.000 C 
BRANCH  23  24
ATOM     24  N   UNL     1      44.248   3.437   9.021  0.00  0.00    +0.000 N 
ATOM     25  C   UNL     1      45.329   2.967   8.276  0.00  0.00    +0.000 A 
ATOM     26  N   UNL     1      45.749   1.701   8.432  0.00  0.00    +0.000 NA
ATOM     27  C   UNL     1      46.813   1.305   7.714  0.00  0.00    +0.000 A 
ATOM     28  C   UNL     1      47.470   2.125   6.834  0.00  0.00    +0.000 A 
ATOM     29  C   UNL     1      46.971   3.402   6.745  0.00  0.00    +0.000 A 
ATOM     30  N   UNL     1      45.915   3.847   7.455  0.00  0.00    +0.000 NA
ATOM     31  H   UNL     1      44.341   4.451   9.030  0.00  0.00    +0.000 HD
ENDBRANCH  23  24
ENDBRANCH  22  23
ENDBRANCH   4  22
TORSDOF 6
ENDMDL
