MODEL 1
REMARK VINA RESULT:    -7.370      0.000      0.000
REMARK INTER + INTRA:          -9.891
REMARK INTER:                  -9.524
REMARK INTRA:                  -0.366
REMARK UNBOUND:                -0.366
REMARK  Name = 
REMARK  5 active torsions:
REMARK  status: ('A' for Active; 'I' for Inactive)
REMARK    1  A    between atoms: C_2  and  C_4
REMARK    2  A    between atoms: C_8  and  O_9
REMARK    3  A    between atoms: O_9  and  C_10
REMARK    4  A    between atoms: C_10  and  C_11
REMARK    5  A    between atoms: C_15  and  C_16
REMARK                            x       y       z     vdW  Elec       q    Type
REMARK                         _______ _______ _______ _____ _____    ______ ____
ROOT
ATOM      1  C   UNL     1      44.201   3.187  11.648  0.00  0.00    +0.000 C 
ENDROOT
BRANCH   1   2
ATOM      2  C   UNL     1      44.334   4.685  11.694  0.00  0.00    +0.000 A 
ATOM      3  C   UNL     1      43.251   5.509  11.372  0.00  0.00    +0.000 A 
ATOM      4  C   UNL     1      43.377   6.892  11.448  0.00  0.00    +0.000 A 
ATOM      5  C   UNL     1      44.558   7.464  11.924  0.00  0.00    +0.000 A 
ATOM      6  C   UNL     1      45.595   6.653  12.386  0.00  0.00    +0.000 A 
ATOM      7  C   UNL     1      45.521   5.270  12.146  0.00  0.00    +0.000 A 
BRANCH   6   8
ATOM      8  C   UNL     1      46.636   7.116  13.402  0.00  0.00    +0.000 C 
ATOM      9  C   UNL     1      46.819   8.639  13.204  0.00  0.00    +0.000 C 
ATOM     10  C   UNL     1      47.683   8.943  11.979  0.00  0.00    +0.000 C 
ATOM     11  N   UNL     1      49.021   8.366  12.129  0.00  0.00    +0.000 NA
ATOM     12  C   UNL     1      48.970   6.917  12.301  0.00  0.00    +0.000 C 
ATOM     13  C   UNL     1      48.026   6.455  13.415  0.00  0.00    +0.000 C 
ATOM     14  H   UNL     1      49.466   8.779  12.945  0.00  0.00    +0.000 HD
ENDBRANCH   6   8
ENDBRANCH   1   2
BRANCH   1  15
ATOM     15  O   UNL     1      43.797   2.785  10.345  0.00  0.00    +0.000 OA
BRANCH  15  20
ATOM     16  C   UNL     1      46.339   2.066   7.865  0.00  0.00    +0.000 A 
ATOM     17  C   UNL     1      46.568   3.317   7.287  0.00  0.00    +0.000 A 
ATOM     18  C   UNL     1      45.841   4.428   7.723  0.00  0.00    +0.000 A 
ATOM     19  C   UNL     1      44.898   4.287   8.741  0.00  0.00    +0.000 A 
ATOM     20  C   UNL     1      44.677   3.042   9.336  0.00  0.00    +0.000 A 
ATOM     21  C   UNL     1      45.405   1.931   8.894  0.00  0.00    +0.000 A 
BRANCH  16  23
ATOM     22  N   UNL     1      46.664  -0.339   7.668  0.00  0.00    +0.000 N 
ATOM     23  C   UNL     1      47.129   0.905   7.366  0.00  0.00    +0.000 C 
ATOM     24  O   UNL     1      48.132   1.063   6.678  0.00  0.00    +0.000 OA
ATOM     25  H   UNL     1      47.147  -1.117   7.242  0.00  0.00    +0.000 HD
ATOM     26  H   UNL     1      45.734  -0.502   8.029  0.00  0.00    +0.000 HD
ENDBRANCH  16  23
ENDBRANCH  15  20
ENDBRANCH   1  15
TORSDOF 5
ENDMDL
MODEL 2
REMARK VINA RESULT:    -7.330      4.405      7.530
REMARK INTER + INTRA:          -9.839
REMARK INTER:                  -9.898
REMARK INTRA:                   0.059
REMARK UNBOUND:                -0.366
REMARK  Name = 
REMARK  5 active torsions:
REMARK  status: ('A' for Active; 'I' for Inactive)
REMARK    1  A    between atoms: C_2  and  C_4
REMARK    2  A    between atoms: C_8  and  O_9
REMARK    3  A    between atoms: O_9  and  C_10
REMARK    4  A    between atoms: C_10  and  C_11
REMARK    5  A    between atoms: C_15  and  C_16
REMARK                            x       y       z     vdW  Elec       q    Type
REMARK                         _______ _______ _______ _____ _____    ______ ____
ROOT
ATOM      1  C   UNL     1      47.117   3.739  14.267  0.00  0.00    +0.000 C 
ENDROOT
BRANCH   1   2
ATOM      2  C   UNL     1      46.653   4.819  13.328  0.00  0.00    +0.000 A 
ATOM      3  C   UNL     1      47.499   5.879  12.985  0.00  0.00    +0.000 A 
ATOM      4  C   UNL     1      47.070   6.855  12.091  0.00  0.00    +0.000 A 
ATOM      5  C   UNL     1      45.826   6.739  11.468  0.00  0.00    +0.000 A 
ATOM      6  C   UNL     1      45.032   5.612  11.689  0.00  0.00    +0.000 A 
ATOM      7  C   UNL     1      45.399   4.726  12.717  0.00  0.00    +0.000 A 
BRANCH   6   8
ATOM      8  C   UNL     1      43.986   5.113  10.696  0.00  0.00    +0.000 C 
ATOM      9  C   UNL     1      42.919   4.341  11.508  0.00  0.00    +0.000 C 
ATOM     10  C   UNL     1      43.413   2.945  11.893  0.00  0.00    +0.000 C 
ATOM     11  N   UNL     1      43.705   2.148  10.700  0.00  0.00    +0.000 NA
ATOM     12  C   UNL     1      44.724   2.777   9.864  0.00  0.00    +0.000 C 
ATOM     13  C   UNL     1      44.425   4.237   9.511  0.00  0.00    +0.000 C 
ATOM     14  H   UNL     1      42.851   2.047  10.158  0.00  0.00    +0.000 HD
ENDBRANCH   6   8
ENDBRANCH   1   2
BRANCH   1  15
ATOM     15  O   UNL     1      46.524   3.933  15.545  0.00  0.00    +0.000 OA
BRANCH  15  20
ATOM     16  C   UNL     1      49.466   3.133  17.503  0.00  0.00    +0.000 A 
ATOM     17  C   UNL     1      49.282   3.893  18.661  0.00  0.00    +0.000 A 
ATOM     18  C   UNL     1      48.155   4.710  18.784  0.00  0.00    +0.000 A 
ATOM     19  C   UNL     1      47.212   4.756  17.757  0.00  0.00    +0.000 A 
ATOM     20  C   UNL     1      47.381   3.984  16.605  0.00  0.00    +0.000 A 
ATOM     21  C   UNL     1      48.513   3.170  16.483  0.00  0.00    +0.000 A 
BRANCH  16  23
ATOM     22  N   UNL     1      51.731   2.598  18.220  0.00  0.00    +0.000 N 
ATOM     23  C   UNL     1      50.685   2.282  17.406  0.00  0.00    +0.000 C 
ATOM     24  O   UNL     1      50.729   1.311  16.657  0.00  0.00    +0.000 OA
ATOM     25  H   UNL     1      52.511   1.956  18.221  0.00  0.00    +0.000 HD
ATOM     26  H   UNL     1      51.643   3.237  18.998  0.00  0.00    +0.000 HD
ENDBRANCH  16  23
ENDBRANCH  15  20
ENDBRANCH   1  15
TORSDOF 5
ENDMDL
MODEL 3
REMARK VINA RESULT:    -6.892      3.919      7.351
REMARK INTER + INTRA:          -9.273
REMARK INTER:                  -8.456
REMARK INTRA:                  -0.818
REMARK UNBOUND:                -0.366
REMARK  Name = 
REMARK  5 active torsions:
REMARK  status: ('A' for Active; 'I' for Inactive)
REMARK    1  A    between atoms: C_2  and  C_4
REMARK    2  A    between atoms: C_8  and  O_9
REMARK    3  A    between atoms: O_9  and  C_10
REMARK    4  A    between atoms: C_10  and  C_11
REMARK    5  A    between atoms: C_15  and  C_16
REMARK                            x       y       z     vdW  Elec       q    Type
REMARK                         _______ _______ _______ _____ _____    ______ ____
ROOT
ATOM      1  C   UNL     1      48.354   7.445  13.344  0.00  0.00    +0.000 C 
ENDROOT
BRANCH   1   2
ATOM      2  C   UNL     1      46.993   7.713  12.760  0.00  0.00    +0.000 A 
ATOM      3  C   UNL     1      46.622   9.007  12.379  0.00  0.00    +0.000 A 
ATOM      4  C   UNL     1      45.373   9.237  11.811  0.00  0.00    +0.000 A 
ATOM      5  C   UNL     1      44.516   8.168  11.542  0.00  0.00    +0.000 A 
ATOM      6  C   UNL     1      44.932   6.857  11.781  0.00  0.00    +0.000 A 
ATOM      7  C   UNL     1      46.117   6.653  12.508  0.00  0.00    +0.000 A 
BRANCH   6   8
ATOM      8  C   UNL     1      44.364   5.647  11.044  0.00  0.00    +0.000 C 
ATOM      9  C   UNL     1      42.938   5.406  11.594  0.00  0.00    +0.000 C 
ATOM     10  C   UNL     1      42.976   4.723  12.963  0.00  0.00    +0.000 C 
ATOM     11  N   UNL     1      43.629   3.415  12.874  0.00  0.00    +0.000 NA
ATOM     12  C   UNL     1      45.000   3.526  12.383  0.00  0.00    +0.000 C 
ATOM     13  C   UNL     1      45.131   4.314  11.076  0.00  0.00    +0.000 C 
ATOM     14  H   UNL     1      43.097   2.827  12.237  0.00  0.00    +0.000 HD
ENDBRANCH   6   8
ENDBRANCH   1   2
BRANCH   1  15
ATOM     15  O   UNL     1      48.374   6.148  13.927  0.00  0.00    +0.000 OA
BRANCH  15  20
ATOM     16  C   UNL     1      48.044   4.747  17.253  0.00  0.00    +0.000 A 
ATOM     17  C   UNL     1      48.541   5.769  18.068  0.00  0.00    +0.000 A 
ATOM     18  C   UNL     1      49.017   6.949  17.491  0.00  0.00    +0.000 A 
ATOM     19  C   UNL     1      48.984   7.110  16.105  0.00  0.00    +0.000 A 
ATOM     20  C   UNL     1      48.471   6.100  15.286  0.00  0.00    +0.000 A 
ATOM     21  C   UNL     1      47.999   4.918  15.868  0.00  0.00    +0.000 A 
BRANCH  16  23
ATOM     22  N   UNL     1      48.176   3.115  19.054  0.00  0.00    +0.000 N 
ATOM     23  C   UNL     1      47.553   3.502  17.906  0.00  0.00    +0.000 C 
ATOM     24  O   UNL     1      46.602   2.874  17.452  0.00  0.00    +0.000 OA
ATOM     25  H   UNL     1      47.772   2.329  19.543  0.00  0.00    +0.000 HD
ATOM     26  H   UNL     1      48.798   3.723  19.569  0.00  0.00    +0.000 HD
ENDBRANCH  16  23
ENDBRANCH  15  20
ENDBRANCH   1  15
TORSDOF 5
ENDMDL
MODEL 4
REMARK VINA RESULT:    -6.732      4.550      6.186
REMARK INTER + INTRA:          -9.066
REMARK INTER:                  -8.418
REMARK INTRA:                  -0.648
REMARK UNBOUND:                -0.366
REMARK  Name = 
REMARK  5 active torsions:
REMARK  status: ('A' for Active; 'I' for Inactive)
REMARK    1  A    between atoms: C_2  and  C_4
REMARK    2  A    between atoms: C_8  and  O_9
REMARK    3  A    between atoms: O_9  and  C_10
REMARK    4  A    between atoms: C_10  and  C_11
REMARK    5  A    between atoms: C_15  and  C_16
REMARK                            x       y       z     vdW  Elec       q    Type
REMARK                         _______ _______ _______ _____ _____    ______ ____
ROOT
ATOM      1  C   UNL     1      47.366   3.525  14.772  0.00  0.00    +0.000 C 
ENDROOT
BRANCH   1   2
ATOM      2  C   UNL     1      47.752   3.593  16.225  0.00  0.00    +0.000 A 
ATOM      3  C   UNL     1      48.697   2.708  16.754  0.00  0.00    +0.000 A 
ATOM      4  C   UNL     1      49.069   2.800  18.092  0.00  0.00    +0.000 A 
ATOM      5  C   UNL     1      48.564   3.827  18.891  0.00  0.00    +0.000 A 
ATOM      6  C   UNL     1      47.734   4.804  18.340  0.00  0.00    +0.000 A 
ATOM      7  C   UNL     1      47.234   4.602  17.042  0.00  0.00    +0.000 A 
BRANCH   6   8
ATOM      8  C   UNL     1      47.590   6.209  18.918  0.00  0.00    +0.000 C 
ATOM      9  C   UNL     1      48.365   7.169  17.983  0.00  0.00    +0.000 C 
ATOM     10  C   UNL     1      49.873   7.081  18.221  0.00  0.00    +0.000 C 
ATOM     11  N   UNL     1      50.207   7.458  19.596  0.00  0.00    +0.000 NA
ATOM     12  C   UNL     1      49.542   6.597  20.571  0.00  0.00    +0.000 C 
ATOM     13  C   UNL     1      48.029   6.479  20.367  0.00  0.00    +0.000 C 
ATOM     14  H   UNL     1      49.914   8.419  19.751  0.00  0.00    +0.000 HD
ENDBRANCH   6   8
ENDBRANCH   1   2
BRANCH   1  15
ATOM     15  O   UNL     1      46.203   4.315  14.552  0.00  0.00    +0.000 OA
BRANCH  15  20
ATOM     16  C   UNL     1      45.037   4.571  11.130  0.00  0.00    +0.000 A 
ATOM     17  C   UNL     1      45.655   5.742  10.681  0.00  0.00    +0.000 A 
ATOM     18  C   UNL     1      46.467   6.476  11.549  0.00  0.00    +0.000 A 
ATOM     19  C   UNL     1      46.668   6.033  12.857  0.00  0.00    +0.000 A 
ATOM     20  C   UNL     1      46.069   4.854  13.306  0.00  0.00    +0.000 A 
ATOM     21  C   UNL     1      45.253   4.123  12.435  0.00  0.00    +0.000 A 
BRANCH  16  23
ATOM     22  N   UNL     1      44.060   4.321   8.914  0.00  0.00    +0.000 N 
ATOM     23  C   UNL     1      44.172   3.822  10.177  0.00  0.00    +0.000 C 
ATOM     24  O   UNL     1      43.618   2.777  10.502  0.00  0.00    +0.000 OA
ATOM     25  H   UNL     1      43.556   3.753   8.249  0.00  0.00    +0.000 HD
ATOM     26  H   UNL     1      44.675   5.038   8.555  0.00  0.00    +0.000 HD
ENDBRANCH  16  23
ENDBRANCH  15  20
ENDBRANCH   1  15
TORSDOF 5
ENDMDL
MODEL 5
REMARK VINA RESULT:    -6.683      4.909      8.392
REMARK INTER + INTRA:          -9.002
REMARK INTER:                  -8.475
REMARK INTRA:                  -0.528
REMARK UNBOUND:                -0.366
REMARK  Name = 
REMARK  5 active torsions:
REMARK  status: ('A' for Active; 'I' for Inactive)
REMARK    1  A    between atoms: C_2  and  C_4
REMARK    2  A    between atoms: C_8  and  O_9
REMARK    3  A    between atoms: O_9  and  C_10
REMARK    4  A    between atoms: C_10  and  C_11
REMARK    5  A    between atoms: C_15  and  C_16
REMARK                            x       y       z     vdW  Elec       q    Type
REMARK                         _______ _______ _______ _____ _____    ______ ____
ROOT
ATOM      1  C   UNL     1      47.375   3.579  14.714  0.00  0.00    +0.000 C 
ENDROOT
BRANCH   1   2
ATOM      2  C   UNL     1      46.992   4.845  13.997  0.00  0.00    +0.000 A 
ATOM      3  C   UNL     1      47.767   6.002  14.126  0.00  0.00    +0.000 A 
ATOM      4  C   UNL     1      47.420   7.158  13.433  0.00  0.00    +0.000 A 
ATOM      5  C   UNL     1      46.346   7.145  12.542  0.00  0.00    +0.000 A 
ATOM      6  C   UNL     1      45.653   5.960  12.293  0.00  0.00    +0.000 A 
ATOM      7  C   UNL     1      45.903   4.852  13.120  0.00  0.00    +0.000 A 
BRANCH   6   8
ATOM      8  C   UNL     1      44.886   5.690  11.000  0.00  0.00    +0.000 C 
ATOM      9  C   UNL     1      43.436   6.184  11.218  0.00  0.00    +0.000 C 
ATOM     10  C   UNL     1      42.630   5.193  12.061  0.00  0.00    +0.000 C 
ATOM     11  N   UNL     1      42.545   3.892  11.396  0.00  0.00    +0.000 NA
ATOM     12  C   UNL     1      43.866   3.317  11.158  0.00  0.00    +0.000 C 
ATOM     13  C   UNL     1      44.835   4.259  10.437  0.00  0.00    +0.000 C 
ATOM     14  H   UNL     1      42.072   4.011  10.503  0.00  0.00    +0.000 HD
ENDBRANCH   6   8
ENDBRANCH   1   2
BRANCH   1  15
ATOM     15  O   UNL     1      46.821   3.589  16.024  0.00  0.00    +0.000 OA
BRANCH  15  20
ATOM     16  C   UNL     1      47.971   5.194  19.062  0.00  0.00    +0.000 A 
ATOM     17  C   UNL     1      49.266   4.688  19.207  0.00  0.00    +0.000 A 
ATOM     18  C   UNL     1      49.762   3.771  18.277  0.00  0.00    +0.000 A 
ATOM     19  C   UNL     1      48.968   3.373  17.200  0.00  0.00    +0.000 A 
ATOM     20  C   UNL     1      47.680   3.889  17.039  0.00  0.00    +0.000 A 
ATOM     21  C   UNL     1      47.185   4.805  17.976  0.00  0.00    +0.000 A 
BRANCH  16  23
ATOM     22  N   UNL     1      47.053   5.653  21.270  0.00  0.00    +0.000 N 
ATOM     23  C   UNL     1      47.476   6.163  20.080  0.00  0.00    +0.000 C 
ATOM     24  O   UNL     1      47.488   7.371  19.871  0.00  0.00    +0.000 OA
ATOM     25  H   UNL     1      46.816   6.322  21.989  0.00  0.00    +0.000 HD
ATOM     26  H   UNL     1      47.243   4.702  21.555  0.00  0.00    +0.000 HD
ENDBRANCH  16  23
ENDBRANCH  15  20
ENDBRANCH   1  15
TORSDOF 5
ENDMDL
MODEL 6
REMARK VINA RESULT:    -6.635      4.147      6.723
REMARK INTER + INTRA:          -8.942
REMARK INTER:                  -8.157
REMARK INTRA:                  -0.784
REMARK UNBOUND:                -0.366
REMARK  Name = 
REMARK  5 active torsions:
REMARK  status: ('A' for Active; 'I' for Inactive)
REMARK    1  A    between atoms: C_2  and  C_4
REMARK    2  A    between atoms: C_8  and  O_9
REMARK    3  A    between atoms: O_9  and  C_10
REMARK    4  A    between atoms: C_10  and  C_11
REMARK    5  A    between atoms: C_15  and  C_16
REMARK                            x       y       z     vdW  Elec       q    Type
REMARK                         _______ _______ _______ _____ _____    ______ ____
ROOT
ATOM      1  C   UNL     1      49.241   7.607  14.339  0.00  0.00    +0.000 C 
ENDROOT
BRANCH   1   2
ATOM      2  C   UNL     1      49.011   7.407  15.813  0.00  0.00    +0.000 A 
ATOM      3  C   UNL     1      48.849   8.504  16.665  0.00  0.00    +0.000 A 
ATOM      4  C   UNL     1      48.605   8.306  18.021  0.00  0.00    +0.000 A 
ATOM      5  C   UNL     1      48.440   7.014  18.523  0.00  0.00    +0.000 A 
ATOM      6  C   UNL     1      48.455   5.918  17.660  0.00  0.00    +0.000 A 
ATOM      7  C   UNL     1      48.869   6.117  16.332  0.00  0.00    +0.000 A 
BRANCH   6   8
ATOM      8  C   UNL     1      47.757   4.595  17.969  0.00  0.00    +0.000 C 
ATOM      9  C   UNL     1      48.800   3.678  18.650  0.00  0.00    +0.000 C 
ATOM     10  C   UNL     1      49.771   3.081  17.629  0.00  0.00    +0.000 C 
ATOM     11  N   UNL     1      49.056   2.263  16.647  0.00  0.00    +0.000 NA
ATOM     12  C   UNL     1      48.053   3.039  15.922  0.00  0.00    +0.000 C 
ATOM     13  C   UNL     1      47.088   3.810  16.828  0.00  0.00    +0.000 C 
ATOM     14  H   UNL     1      48.593   1.499  17.133  0.00  0.00    +0.000 HD
ENDBRANCH   6   8
ENDBRANCH   1   2
BRANCH   1  15
ATOM     15  O   UNL     1      48.749   6.480  13.624  0.00  0.00    +0.000 OA
BRANCH  15  20
ATOM     16  C   UNL     1      45.441   5.159  12.956  0.00  0.00    +0.000 A 
ATOM     17  C   UNL     1      44.717   6.304  12.610  0.00  0.00    +0.000 A 
ATOM     18  C   UNL     1      45.343   7.552  12.619  0.00  0.00    +0.000 A 
ATOM     19  C   UNL     1      46.692   7.652  12.962  0.00  0.00    +0.000 A 
ATOM     20  C   UNL     1      47.427   6.510  13.289  0.00  0.00    +0.000 A 
ATOM     21  C   UNL     1      46.794   5.261  13.283  0.00  0.00    +0.000 A 
BRANCH  16  23
ATOM     22  N   UNL     1      45.426   2.774  12.469  0.00  0.00    +0.000 N 
ATOM     23  C   UNL     1      44.734   3.848  12.941  0.00  0.00    +0.000 C 
ATOM     24  O   UNL     1      43.593   3.732  13.375  0.00  0.00    +0.000 OA
ATOM     25  H   UNL     1      44.977   1.874  12.558  0.00  0.00    +0.000 HD
ATOM     26  H   UNL     1      46.427   2.790  12.323  0.00  0.00    +0.000 HD
ENDBRANCH  16  23
ENDBRANCH  15  20
ENDBRANCH   1  15
TORSDOF 5
ENDMDL
MODEL 7
REMARK VINA RESULT:    -6.610      4.681      6.673
REMARK INTER + INTRA:          -8.909
REMARK INTER:                  -8.160
REMARK INTRA:                  -0.748
REMARK UNBOUND:                -0.366
REMARK  Name = 
REMARK  5 active torsions:
REMARK  status: ('A' for Active; 'I' for Inactive)
REMARK    1  A    between atoms: C_2  and  C_4
REMARK    2  A    between atoms: C_8  and  O_9
REMARK    3  A    between atoms: O_9  and  C_10
REMARK    4  A    between atoms: C_10  and  C_11
REMARK    5  A    between atoms: C_15  and  C_16
REMARK                            x       y       z     vdW  Elec       q    Type
REMARK                         _______ _______ _______ _____ _____    ______ ____
ROOT
ATOM      1  C   UNL     1      46.952   4.041  15.818  0.00  0.00    +0.000 C 
ENDROOT
BRANCH   1   2
ATOM      2  C   UNL     1      48.259   3.737  16.499  0.00  0.00    +0.000 A 
ATOM      3  C   UNL     1      48.740   2.425  16.567  0.00  0.00    +0.000 A 
ATOM      4  C   UNL     1      49.965   2.161  17.172  0.00  0.00    +0.000 A 
ATOM      5  C   UNL     1      50.758   3.210  17.640  0.00  0.00    +0.000 A 
ATOM      6  C   UNL     1      50.358   4.533  17.447  0.00  0.00    +0.000 A 
ATOM      7  C   UNL     1      49.050   4.778  16.993  0.00  0.00    +0.000 A 
BRANCH   6   8
ATOM      8  C   UNL     1      51.332   5.706  17.392  0.00  0.00    +0.000 C 
ATOM      9  C   UNL     1      52.340   5.517  18.551  0.00  0.00    +0.000 C 
ATOM     10  C   UNL     1      51.727   5.917  19.894  0.00  0.00    +0.000 C 
ATOM     11  N   UNL     1      51.337   7.329  19.890  0.00  0.00    +0.000 NA
ATOM     12  C   UNL     1      50.363   7.619  18.840  0.00  0.00    +0.000 C 
ATOM     13  C   UNL     1      50.788   7.144  17.448  0.00  0.00    +0.000 C 
ATOM     14  H   UNL     1      52.167   7.896  19.735  0.00  0.00    +0.000 HD
ENDBRANCH   6   8
ENDBRANCH   1   2
BRANCH   1  15
ATOM     15  O   UNL     1      46.954   3.479  14.511  0.00  0.00    +0.000 OA
BRANCH  15  20
ATOM     16  C   UNL     1      45.094   4.625  11.620  0.00  0.00    +0.000 A 
ATOM     17  C   UNL     1      45.705   5.848  11.325  0.00  0.00    +0.000 A 
ATOM     18  C   UNL     1      46.753   6.311  12.124  0.00  0.00    +0.000 A 
ATOM     19  C   UNL     1      47.195   5.548  13.206  0.00  0.00    +0.000 A 
ATOM     20  C   UNL     1      46.601   4.317  13.495  0.00  0.00    +0.000 A 
ATOM     21  C   UNL     1      45.548   3.858  12.694  0.00  0.00    +0.000 A 
BRANCH  16  23
ATOM     22  N   UNL     1      43.942   4.652   9.475  0.00  0.00    +0.000 N 
ATOM     23  C   UNL     1      43.975   4.170  10.749  0.00  0.00    +0.000 C 
ATOM     24  O   UNL     1      43.142   3.364  11.148  0.00  0.00    +0.000 OA
ATOM     25  H   UNL     1      43.241   4.260   8.863  0.00  0.00    +0.000 HD
ATOM     26  H   UNL     1      44.727   5.128   9.052  0.00  0.00    +0.000 HD
ENDBRANCH  16  23
ENDBRANCH  15  20
ENDBRANCH   1  15
TORSDOF 5
ENDMDL
MODEL 8
REMARK VINA RESULT:    -6.356      3.350      5.061
REMARK INTER + INTRA:          -8.581
REMARK INTER:                  -7.770
REMARK INTRA:                  -0.811
REMARK UNBOUND:                -0.366
REMARK  Name = 
REMARK  5 active torsions:
REMARK  status: ('A' for Active; 'I' for Inactive)
REMARK    1  A    between atoms: C_2  and  C_4
REMARK    2  A    between atoms: C_8  and  O_9
REMARK    3  A    between atoms: O_9  and  C_10
REMARK    4  A    between atoms: C_10  and  C_11
REMARK    5  A    between atoms: C_15  and  C_16
REMARK                            x       y       z     vdW  Elec       q    Type
REMARK                         _______ _______ _______ _____ _____    ______ ____
ROOT
ATOM      1  C   UNL     1      45.594   7.138  12.538  0.00  0.00    +0.000 C 
ENDROOT
BRANCH   1   2
ATOM      2  C   UNL     1      45.828   8.590  12.219  0.00  0.00    +0.000 A 
ATOM      3  C   UNL     1      47.075   9.180  12.448  0.00  0.00    +0.000 A 
ATOM      4  C   UNL     1      47.289  10.515  12.119  0.00  0.00    +0.000 A 
ATOM      5  C   UNL     1      46.286  11.250  11.484  0.00  0.00    +0.000 A 
ATOM      6  C   UNL     1      45.088  10.635  11.118  0.00  0.00    +0.000 A 
ATOM      7  C   UNL     1      44.823   9.343  11.605  0.00  0.00    +0.000 A 
BRANCH   6   8
ATOM      8  C   UNL     1      44.200  11.133   9.981  0.00  0.00    +0.000 C 
ATOM      9  C   UNL     1      43.809  12.592  10.313  0.00  0.00    +0.000 C 
ATOM     10  C   UNL     1      42.709  12.647  11.375  0.00  0.00    +0.000 C 
ATOM     11  N   UNL     1      41.496  11.974  10.904  0.00  0.00    +0.000 NA
ATOM     12  C   UNL     1      41.746  10.572  10.578  0.00  0.00    +0.000 C 
ATOM     13  C   UNL     1      42.922  10.355   9.623  0.00  0.00    +0.000 C 
ATOM     14  H   UNL     1      41.161  12.451  10.070  0.00  0.00    +0.000 HD
ENDBRANCH   6   8
ENDBRANCH   1   2
BRANCH   1  15
ATOM     15  O   UNL     1      44.317   6.743  12.050  0.00  0.00    +0.000 OA
BRANCH  15  20
ATOM     16  C   UNL     1      44.911   3.974   9.790  0.00  0.00    +0.000 A 
ATOM     17  C   UNL     1      44.170   2.940  10.369  0.00  0.00    +0.000 A 
ATOM     18  C   UNL     1      43.468   3.167  11.556  0.00  0.00    +0.000 A 
ATOM     19  C   UNL     1      43.500   4.427  12.153  0.00  0.00    +0.000 A 
ATOM     20  C   UNL     1      44.224   5.471  11.570  0.00  0.00    +0.000 A 
ATOM     21  C   UNL     1      44.929   5.238  10.383  0.00  0.00    +0.000 A 
BRANCH  16  23
ATOM     22  N   UNL     1      45.819   2.380   8.189  0.00  0.00    +0.000 N 
ATOM     23  C   UNL     1      45.651   3.689   8.530  0.00  0.00    +0.000 C 
ATOM     24  O   UNL     1      46.056   4.594   7.807  0.00  0.00    +0.000 OA
ATOM     25  H   UNL     1      46.231   2.199   7.285  0.00  0.00    +0.000 HD
ATOM     26  H   UNL     1      45.308   1.631   8.634  0.00  0.00    +0.000 HD
ENDBRANCH  16  23
ENDBRANCH  15  20
ENDBRANCH   1  15
TORSDOF 5
ENDMDL
MODEL 9
REMARK VINA RESULT:    -6.345      2.271      4.058
REMARK INTER + INTRA:          -8.566
REMARK INTER:                  -7.769
REMARK INTRA:                  -0.797
REMARK UNBOUND:                -0.366
REMARK  Name = 
REMARK  5 active torsions:
REMARK  status: ('A' for Active; 'I' for Inactive)
REMARK    1  A    between atoms: C_2  and  C_4
REMARK    2  A    between atoms: C_8  and  O_9
REMARK    3  A    between atoms: O_9  and  C_10
REMARK    4  A    between atoms: C_10  and  C_11
REMARK    5  A    between atoms: C_15  and  C_16
REMARK                            x       y       z     vdW  Elec       q    Type
REMARK                         _______ _______ _______ _____ _____    ______ ____
ROOT
ATOM      1  C   UNL     1      44.784   7.531  12.288  0.00  0.00    +0.000 C 
ENDROOT
BRANCH   1   2
ATOM      2  C   UNL     1      46.037   8.345  12.108  0.00  0.00    +0.000 A 
ATOM      3  C   UNL     1      45.980   9.742  12.064  0.00  0.00    +0.000 A 
ATOM      4  C   UNL     1      47.149  10.485  11.929  0.00  0.00    +0.000 A 
ATOM      5  C   UNL     1      48.390   9.846  11.918  0.00  0.00    +0.000 A 
ATOM      6  C   UNL     1      48.471   8.465  12.106  0.00  0.00    +0.000 A 
ATOM      7  C   UNL     1      47.284   7.714  12.070  0.00  0.00    +0.000 A 
BRANCH   6   8
ATOM      8  C   UNL     1      49.709   7.764  12.659  0.00  0.00    +0.000 C 
ATOM      9  C   UNL     1      49.272   7.008  13.937  0.00  0.00    +0.000 C 
ATOM     10  C   UNL     1      49.117   7.961  15.123  0.00  0.00    +0.000 C 
ATOM     11  N   UNL     1      50.387   8.623  15.429  0.00  0.00    +0.000 NA
ATOM     12  C   UNL     1      50.887   9.390  14.291  0.00  0.00    +0.000 C 
ATOM     13  C   UNL     1      50.963   8.591  12.987  0.00  0.00    +0.000 C 
ATOM     14  H   UNL     1      51.074   7.914  15.675  0.00  0.00    +0.000 HD
ENDBRANCH   6   8
ENDBRANCH   1   2
BRANCH   1  15
ATOM     15  O   UNL     1      45.108   6.291  12.905  0.00  0.00    +0.000 OA
BRANCH  15  20
ATOM     16  C   UNL     1      44.650   4.063  10.084  0.00  0.00    +0.000 A 
ATOM     17  C   UNL     1      43.975   2.979  10.653  0.00  0.00    +0.000 A 
ATOM     18  C   UNL     1      43.683   2.983  12.019  0.00  0.00    +0.000 A 
ATOM     19  C   UNL     1      44.054   4.072  12.809  0.00  0.00    +0.000 A 
ATOM     20  C   UNL     1      44.711   5.167  12.242  0.00  0.00    +0.000 A 
ATOM     21  C   UNL     1      45.006   5.158  10.873  0.00  0.00    +0.000 A 
BRANCH  16  23
ATOM     22  N   UNL     1      44.256   3.117   7.875  0.00  0.00    +0.000 N 
ATOM     23  C   UNL     1      44.950   4.017   8.626  0.00  0.00    +0.000 C 
ATOM     24  O   UNL     1      45.758   4.786   8.115  0.00  0.00    +0.000 OA
ATOM     25  H   UNL     1      44.392   3.163   6.876  0.00  0.00    +0.000 HD
ATOM     26  H   UNL     1      43.434   2.639   8.219  0.00  0.00    +0.000 HD
ENDBRANCH  16  23
ENDBRANCH  15  20
ENDBRANCH   1  15
TORSDOF 5
ENDMDL
