MODEL 1
REMARK VINA RESULT:    -7.728      0.000      0.000
REMARK INTER + INTRA:         -10.161
REMARK INTER:                  -9.535
REMARK INTRA:                  -0.626
REMARK UNBOUND:                -0.626
REMARK  Name = 
REMARK  4 active torsions:
REMARK  status: ('A' for Active; 'I' for Inactive)
REMARK    1  A    between atoms: C_2  and  C_4
REMARK    2  A    between atoms: C_9  and  N_10
REMARK    3  A    between atoms: N_10  and  C_11
REMARK    4  A    between atoms: C_11  and  C_12
REMARK                            x       y       z     vdW  Elec       q    Type
REMARK                         _______ _______ _______ _____ _____    ______ ____
ROOT
ATOM      1  N   UNL     1      45.192   5.630   9.699  0.00  0.00    +0.000 N 
ATOM      2  H   UNL     1      46.028   6.211   9.673  0.00  0.00    +0.000 HD
ENDROOT
BRANCH   1   8
ATOM      3  C   UNL     1      46.488   3.012   7.356  0.00  0.00    +0.000 A 
ATOM      4  C   UNL     1      45.771   1.894   7.785  0.00  0.00    +0.000 A 
ATOM      5  C   UNL     1      44.881   2.042   8.836  0.00  0.00    +0.000 A 
ATOM      6  F   UNL     1      44.203   0.973   9.278  0.00  0.00    +0.000 F 
ATOM      7  C   UNL     1      44.686   3.276   9.452  0.00  0.00    +0.000 A 
ATOM      8  C   UNL     1      45.365   4.423   9.009  0.00  0.00    +0.000 A 
ATOM      9  C   UNL     1      46.287   4.261   7.966  0.00  0.00    +0.000 A 
BRANCH   3  11
ATOM     10  N   UNL     1      47.124   3.177   5.047  0.00  0.00    +0.000 NA
ATOM     11  C   UNL     1      47.474   2.871   6.250  0.00  0.00    +0.000 C 
ATOM     12  N   UNL     1      48.733   2.408   6.510  0.00  0.00    +0.000 N 
ATOM     13  H   UNL     1      47.916   3.068   4.413  0.00  0.00    +0.000 HD
ATOM     14  H   UNL     1      49.236   2.044   5.710  0.00  0.00    +0.000 HD
ATOM     15  H   UNL     1      48.811   1.787   7.310  0.00  0.00    +0.000 HD
ENDBRANCH   3  11
ENDBRANCH   1   8
BRANCH   1  16
ATOM     16  C   UNL     1      44.601   5.599  11.034  0.00  0.00    +0.000 C 
BRANCH  16  17
ATOM     17  C   UNL     1      45.693   5.534  12.073  0.00  0.00    +0.000 A 
ATOM     18  C   UNL     1      45.836   4.429  12.906  0.00  0.00    +0.000 A 
ATOM     19  C   UNL     1      46.852   4.450  13.841  0.00  0.00    +0.000 A 
ATOM     20  N   UNL     1      47.710   5.481  14.000  0.00  0.00    +0.000 NA
ATOM     21  C   UNL     1      47.593   6.565  13.202  0.00  0.00    +0.000 A 
ATOM     22  N   UNL     1      48.422   7.645  13.427  0.00  0.00    +0.000 N 
ATOM     23  C   UNL     1      48.846   8.550  12.355  0.00  0.00    +0.000 C 
ATOM     24  C   UNL     1      50.374   8.483  12.136  0.00  0.00    +0.000 C 
ATOM     25  N   UNL     1      51.161   8.681  13.370  0.00  0.00    +0.000 NA
ATOM     26  C   UNL     1      50.733   7.665  14.360  0.00  0.00    +0.000 C 
ATOM     27  C   UNL     1      49.220   7.693  14.660  0.00  0.00    +0.000 C 
ATOM     28  C   UNL     1      46.593   6.599  12.226  0.00  0.00    +0.000 A 
ATOM     29  H   UNL     1      50.930   9.599  13.747  0.00  0.00    +0.000 HD
ENDBRANCH  16  17
ENDBRANCH   1  16
TORSDOF 4
ENDMDL
MODEL 2
REMARK VINA RESULT:    -7.472      1.556      2.714
REMARK INTER + INTRA:          -9.846
REMARK INTER:                  -9.308
REMARK INTRA:                  -0.537
REMARK UNBOUND:                -0.626
REMARK  Name = 
REMARK  4 active torsions:
REMARK  status: ('A' for Active; 'I' for Inactive)
REMARK    1  A    between atoms: C_2  and  C_4
REMARK    2  A    between atoms: C_9  and  N_10
REMARK    3  A    between atoms: N_10  and  C_11
REMARK    4  A    between atoms: C_11  and  C_12
REMARK                            x       y       z     vdW  Elec       q    Type
REMARK                         _______ _______ _______ _____ _____    ______ ____
ROOT
ATOM      1  N   UNL     1      45.325   5.766   9.632  0.00  0.00    +0.000 N 
ATOM      2  H   UNL     1      46.233   6.225   9.672  0.00  0.00    +0.000 HD
ENDROOT
BRANCH   1   8
ATOM      3  C   UNL     1      46.405   2.828   7.578  0.00  0.00    +0.000 A 
ATOM      4  C   UNL     1      45.613   1.817   8.124  0.00  0.00    +0.000 A 
ATOM      5  C   UNL     1      44.745   2.140   9.154  0.00  0.00    +0.000 A 
ATOM      6  F   UNL     1      43.995   1.176   9.708  0.00  0.00    +0.000 F 
ATOM      7  C   UNL     1      44.646   3.443   9.636  0.00  0.00    +0.000 A 
ATOM      8  C   UNL     1      45.403   4.484   9.074  0.00  0.00    +0.000 A 
ATOM      9  C   UNL     1      46.301   4.146   8.053  0.00  0.00    +0.000 A 
BRANCH   3  11
ATOM     10  N   UNL     1      48.293   1.625   6.710  0.00  0.00    +0.000 NA
ATOM     11  C   UNL     1      47.369   2.499   6.492  0.00  0.00    +0.000 C 
ATOM     12  N   UNL     1      47.280   3.129   5.284  0.00  0.00    +0.000 N 
ATOM     13  H   UNL     1      48.844   1.480   5.862  0.00  0.00    +0.000 HD
ATOM     14  H   UNL     1      48.119   3.104   4.716  0.00  0.00    +0.000 HD
ATOM     15  H   UNL     1      46.879   4.062   5.308  0.00  0.00    +0.000 HD
ENDBRANCH   3  11
ENDBRANCH   1   8
BRANCH   1  16
ATOM     16  C   UNL     1      44.576   5.950  10.872  0.00  0.00    +0.000 C 
BRANCH  16  17
ATOM     17  C   UNL     1      45.438   6.664  11.886  0.00  0.00    +0.000 A 
ATOM     18  C   UNL     1      45.501   8.052  11.934  0.00  0.00    +0.000 A 
ATOM     19  C   UNL     1      46.322   8.631  12.880  0.00  0.00    +0.000 A 
ATOM     20  N   UNL     1      47.074   7.931  13.757  0.00  0.00    +0.000 NA
ATOM     21  C   UNL     1      47.029   6.581  13.732  0.00  0.00    +0.000 A 
ATOM     22  N   UNL     1      47.861   5.874  14.576  0.00  0.00    +0.000 N 
ATOM     23  C   UNL     1      47.511   4.553  15.105  0.00  0.00    +0.000 C 
ATOM     24  C   UNL     1      47.355   4.586  16.642  0.00  0.00    +0.000 C 
ATOM     25  N   UNL     1      48.514   5.174  17.344  0.00  0.00    +0.000 NA
ATOM     26  C   UNL     1      48.733   6.539  16.815  0.00  0.00    +0.000 C 
ATOM     27  C   UNL     1      48.934   6.586  15.286  0.00  0.00    +0.000 C 
ATOM     28  C   UNL     1      46.205   5.935  12.806  0.00  0.00    +0.000 A 
ATOM     29  H   UNL     1      49.336   4.616  17.116  0.00  0.00    +0.000 HD
ENDBRANCH  16  17
ENDBRANCH   1  16
TORSDOF 4
ENDMDL
MODEL 3
REMARK VINA RESULT:    -7.316      4.205      8.468
REMARK INTER + INTRA:          -9.652
REMARK INTER:                  -8.963
REMARK INTRA:                  -0.689
REMARK UNBOUND:                -0.626
REMARK  Name = 
REMARK  4 active torsions:
REMARK  status: ('A' for Active; 'I' for Inactive)
REMARK    1  A    between atoms: C_2  and  C_4
REMARK    2  A    between atoms: C_9  and  N_10
REMARK    3  A    between atoms: N_10  and  C_11
REMARK    4  A    between atoms: C_11  and  C_12
REMARK                            x       y       z     vdW  Elec       q    Type
REMARK                         _______ _______ _______ _____ _____    ______ ____
ROOT
ATOM      1  N   UNL     1      49.169   7.451  15.403  0.00  0.00    +0.000 N 
ATOM      2  H   UNL     1      48.367   7.981  15.738  0.00  0.00    +0.000 HD
ENDROOT
BRANCH   1   8
ATOM      3  C   UNL     1      48.951   4.419  17.589  0.00  0.00    +0.000 A 
ATOM      4  C   UNL     1      50.300   4.190  17.860  0.00  0.00    +0.000 A 
ATOM      5  C   UNL     1      51.241   5.047  17.312  0.00  0.00    +0.000 A 
ATOM      6  F   UNL     1      52.543   4.828  17.542  0.00  0.00    +0.000 F 
ATOM      7  C   UNL     1      50.861   6.126  16.516  0.00  0.00    +0.000 A 
ATOM      8  C   UNL     1      49.506   6.399  16.264  0.00  0.00    +0.000 A 
ATOM      9  C   UNL     1      48.562   5.511  16.795  0.00  0.00    +0.000 A 
BRANCH   3  11
ATOM     10  N   UNL     1      46.819   3.319  17.497  0.00  0.00    +0.000 NA
ATOM     11  C   UNL     1      47.924   3.493  18.140  0.00  0.00    +0.000 C 
ATOM     12  N   UNL     1      48.150   2.845  19.321  0.00  0.00    +0.000 N 
ATOM     13  H   UNL     1      46.240   2.629  17.977  0.00  0.00    +0.000 HD
ATOM     14  H   UNL     1      47.323   2.493  19.789  0.00  0.00    +0.000 HD
ATOM     15  H   UNL     1      48.765   3.327  19.971  0.00  0.00    +0.000 HD
ENDBRANCH   3  11
ENDBRANCH   1   8
BRANCH   1  16
ATOM     16  C   UNL     1      49.075   7.186  13.970  0.00  0.00    +0.000 C 
BRANCH  16  17
ATOM     17  C   UNL     1      47.636   7.287  13.527  0.00  0.00    +0.000 A 
ATOM     18  C   UNL     1      47.046   8.517  13.254  0.00  0.00    +0.000 A 
ATOM     19  C   UNL     1      45.721   8.528  12.866  0.00  0.00    +0.000 A 
ATOM     20  N   UNL     1      44.961   7.419  12.744  0.00  0.00    +0.000 NA
ATOM     21  C   UNL     1      45.512   6.212  13.002  0.00  0.00    +0.000 A 
ATOM     22  N   UNL     1      44.705   5.093  12.953  0.00  0.00    +0.000 N 
ATOM     23  C   UNL     1      45.217   3.768  12.590  0.00  0.00    +0.000 C 
ATOM     24  C   UNL     1      44.580   3.261  11.277  0.00  0.00    +0.000 C 
ATOM     25  N   UNL     1      43.104   3.303  11.277  0.00  0.00    +0.000 NA
ATOM     26  C   UNL     1      42.680   4.694  11.556  0.00  0.00    +0.000 C 
ATOM     27  C   UNL     1      43.247   5.262  12.873  0.00  0.00    +0.000 C 
ATOM     28  C   UNL     1      46.853   6.132  13.385  0.00  0.00    +0.000 A 
ATOM     29  H   UNL     1      42.772   2.717  12.042  0.00  0.00    +0.000 HD
ENDBRANCH  16  17
ENDBRANCH   1  16
TORSDOF 4
ENDMDL
MODEL 4
REMARK VINA RESULT:    -6.917      2.771      4.657
REMARK INTER + INTRA:          -9.161
REMARK INTER:                  -8.438
REMARK INTRA:                  -0.723
REMARK UNBOUND:                -0.626
REMARK  Name = 
REMARK  4 active torsions:
REMARK  status: ('A' for Active; 'I' for Inactive)
REMARK    1  A    between atoms: C_2  and  C_4
REMARK    2  A    between atoms: C_9  and  N_10
REMARK    3  A    between atoms: N_10  and  C_11
REMARK    4  A    between atoms: C_11  and  C_12
REMARK                            x       y       z     vdW  Elec       q    Type
REMARK                         _______ _______ _______ _____ _____    ______ ____
ROOT
ATOM      1  N   UNL     1      45.962   7.339  11.867  0.00  0.00    +0.000 N 
ATOM      2  H   UNL     1      45.695   8.068  11.208  0.00  0.00    +0.000 HD
ENDROOT
BRANCH   1   8
ATOM      3  C   UNL     1      44.513   4.138  10.573  0.00  0.00    +0.000 A 
ATOM      4  C   UNL     1      43.664   3.787  11.623  0.00  0.00    +0.000 A 
ATOM      5  C   UNL     1      43.597   4.622  12.727  0.00  0.00    +0.000 A 
ATOM      6  F   UNL     1      42.805   4.287  13.757  0.00  0.00    +0.000 F 
ATOM      7  C   UNL     1      44.345   5.795  12.795  0.00  0.00    +0.000 A 
ATOM      8  C   UNL     1      45.174   6.188  11.731  0.00  0.00    +0.000 A 
ATOM      9  C   UNL     1      45.262   5.325  10.631  0.00  0.00    +0.000 A 
BRANCH   3  11
ATOM     10  N   UNL     1      45.042   2.029   9.554  0.00  0.00    +0.000 NA
ATOM     11  C   UNL     1      44.627   3.240   9.391  0.00  0.00    +0.000 C 
ATOM     12  N   UNL     1      44.308   3.703   8.146  0.00  0.00    +0.000 N 
ATOM     13  H   UNL     1      45.025   1.531   8.663  0.00  0.00    +0.000 HD
ATOM     14  H   UNL     1      44.694   3.175   7.373  0.00  0.00    +0.000 HD
ATOM     15  H   UNL     1      44.433   4.702   8.009  0.00  0.00    +0.000 HD
ENDBRANCH   3  11
ENDBRANCH   1   8
BRANCH   1  16
ATOM     16  C   UNL     1      47.413   7.193  11.948  0.00  0.00    +0.000 C 
BRANCH  16  17
ATOM     17  C   UNL     1      47.857   7.314  13.385  0.00  0.00    +0.000 A 
ATOM     18  C   UNL     1      48.160   8.549  13.949  0.00  0.00    +0.000 A 
ATOM     19  C   UNL     1      48.572   8.576  15.267  0.00  0.00    +0.000 A 
ATOM     20  N   UNL     1      48.708   7.476  16.037  0.00  0.00    +0.000 NA
ATOM     21  C   UNL     1      48.418   6.264  15.513  0.00  0.00    +0.000 A 
ATOM     22  N   UNL     1      48.638   5.140  16.283  0.00  0.00    +0.000 N 
ATOM     23  C   UNL     1      47.842   3.918  16.139  0.00  0.00    +0.000 C 
ATOM     24  C   UNL     1      47.032   3.620  17.421  0.00  0.00    +0.000 C 
ATOM     25  N   UNL     1      47.850   3.605  18.650  0.00  0.00    +0.000 NA
ATOM     26  C   UNL     1      48.540   4.910  18.763  0.00  0.00    +0.000 C 
ATOM     27  C   UNL     1      49.401   5.265  17.533  0.00  0.00    +0.000 C 
ATOM     28  C   UNL     1      47.981   6.172  14.189  0.00  0.00    +0.000 A 
ATOM     29  H   UNL     1      48.564   2.884  18.545  0.00  0.00    +0.000 HD
ENDBRANCH  16  17
ENDBRANCH   1  16
TORSDOF 4
ENDMDL
MODEL 5
REMARK VINA RESULT:    -6.666      3.376      5.196
REMARK INTER + INTRA:          -8.850
REMARK INTER:                  -8.228
REMARK INTRA:                  -0.622
REMARK UNBOUND:                -0.626
REMARK  Name = 
REMARK  4 active torsions:
REMARK  status: ('A' for Active; 'I' for Inactive)
REMARK    1  A    between atoms: C_2  and  C_4
REMARK    2  A    between atoms: C_9  and  N_10
REMARK    3  A    between atoms: N_10  and  C_11
REMARK    4  A    between atoms: C_11  and  C_12
REMARK                            x       y       z     vdW  Elec       q    Type
REMARK                         _______ _______ _______ _____ _____    ______ ____
ROOT
ATOM      1  N   UNL     1      46.063   6.263  13.210  0.00  0.00    +0.000 N 
ATOM      2  H   UNL     1      45.454   7.045  13.441  0.00  0.00    +0.000 HD
ENDROOT
BRANCH   1   8
ATOM      3  C   UNL     1      44.967   4.282  10.228  0.00  0.00    +0.000 A 
ATOM      4  C   UNL     1      44.243   3.259  10.841  0.00  0.00    +0.000 A 
ATOM      5  C   UNL     1      44.139   3.257  12.222  0.00  0.00    +0.000 A 
ATOM      6  F   UNL     1      43.469   2.268  12.830  0.00  0.00    +0.000 F 
ATOM      7  C   UNL     1      44.729   4.256  12.995  0.00  0.00    +0.000 A 
ATOM      8  C   UNL     1      45.427   5.317  12.396  0.00  0.00    +0.000 A 
ATOM      9  C   UNL     1      45.555   5.298  11.001  0.00  0.00    +0.000 A 
BRANCH   3  11
ATOM     10  N   UNL     1      46.038   5.017   8.209  0.00  0.00    +0.000 NA
ATOM     11  C   UNL     1      45.120   4.287   8.747  0.00  0.00    +0.000 C 
ATOM     12  N   UNL     1      44.286   3.536   7.970  0.00  0.00    +0.000 N 
ATOM     13  H   UNL     1      46.043   4.882   7.197  0.00  0.00    +0.000 HD
ATOM     14  H   UNL     1      44.229   3.814   6.997  0.00  0.00    +0.000 HD
ATOM     15  H   UNL     1      43.363   3.366   8.360  0.00  0.00    +0.000 HD
ENDBRANCH   3  11
ENDBRANCH   1   8
BRANCH   1  16
ATOM     16  C   UNL     1      47.403   6.717  12.847  0.00  0.00    +0.000 C 
BRANCH  16  17
ATOM     17  C   UNL     1      47.347   8.154  12.387  0.00  0.00    +0.000 A 
ATOM     18  C   UNL     1      48.504   8.908  12.222  0.00  0.00    +0.000 A 
ATOM     19  C   UNL     1      48.369  10.219  11.810  0.00  0.00    +0.000 A 
ATOM     20  N   UNL     1      47.182  10.816  11.568  0.00  0.00    +0.000 NA
ATOM     21  C   UNL     1      46.044  10.104  11.720  0.00  0.00    +0.000 A 
ATOM     22  N   UNL     1      44.833  10.745  11.548  0.00  0.00    +0.000 N 
ATOM     23  C   UNL     1      43.634  10.051  11.070  0.00  0.00    +0.000 C 
ATOM     24  C   UNL     1      43.174  10.602   9.702  0.00  0.00    +0.000 C 
ATOM     25  N   UNL     1      43.011  12.069   9.676  0.00  0.00    +0.000 NA
ATOM     26  C   UNL     1      44.296  12.685  10.078  0.00  0.00    +0.000 C 
ATOM     27  C   UNL     1      44.806  12.212  11.456  0.00  0.00    +0.000 C 
ATOM     28  C   UNL     1      46.114   8.766  12.120  0.00  0.00    +0.000 A 
ATOM     29  H   UNL     1      42.313  12.321  10.376  0.00  0.00    +0.000 HD
ENDBRANCH  16  17
ENDBRANCH   1  16
TORSDOF 4
ENDMDL
MODEL 6
REMARK VINA RESULT:    -6.647      3.902      8.362
REMARK INTER + INTRA:          -8.827
REMARK INTER:                  -8.352
REMARK INTRA:                  -0.475
REMARK UNBOUND:                -0.626
REMARK  Name = 
REMARK  4 active torsions:
REMARK  status: ('A' for Active; 'I' for Inactive)
REMARK    1  A    between atoms: C_2  and  C_4
REMARK    2  A    between atoms: C_9  and  N_10
REMARK    3  A    between atoms: N_10  and  C_11
REMARK    4  A    between atoms: C_11  and  C_12
REMARK                            x       y       z     vdW  Elec       q    Type
REMARK                         _______ _______ _______ _____ _____    ______ ____
ROOT
ATOM      1  N   UNL     1      48.930   6.863  15.863  0.00  0.00    +0.000 N 
ATOM      2  H   UNL     1      48.140   7.409  16.200  0.00  0.00    +0.000 HD
ENDROOT
BRANCH   1   8
ATOM      3  C   UNL     1      50.255   3.984  17.856  0.00  0.00    +0.000 A 
ATOM      4  C   UNL     1      49.114   3.187  17.961  0.00  0.00    +0.000 A 
ATOM      5  C   UNL     1      47.943   3.627  17.367  0.00  0.00    +0.000 A 
ATOM      6  F   UNL     1      46.830   2.886  17.479  0.00  0.00    +0.000 F 
ATOM      7  C   UNL     1      47.892   4.831  16.667  0.00  0.00    +0.000 A 
ATOM      8  C   UNL     1      49.038   5.628  16.514  0.00  0.00    +0.000 A 
ATOM      9  C   UNL     1      50.213   5.193  17.142  0.00  0.00    +0.000 A 
BRANCH   3  11
ATOM     10  N   UNL     1      52.137   2.508  18.066  0.00  0.00    +0.000 NA
ATOM     11  C   UNL     1      51.517   3.548  18.513  0.00  0.00    +0.000 C 
ATOM     12  N   UNL     1      52.004   4.237  19.587  0.00  0.00    +0.000 N 
ATOM     13  H   UNL     1      53.000   2.363  18.591  0.00  0.00    +0.000 HD
ATOM     14  H   UNL     1      52.661   3.731  20.168  0.00  0.00    +0.000 HD
ATOM     15  H   UNL     1      51.305   4.715  20.150  0.00  0.00    +0.000 HD
ENDBRANCH   3  11
ENDBRANCH   1   8
BRANCH   1  16
ATOM     16  C   UNL     1      49.025   6.901  14.406  0.00  0.00    +0.000 C 
BRANCH  16  17
ATOM     17  C   UNL     1      47.644   7.030  13.810  0.00  0.00    +0.000 A 
ATOM     18  C   UNL     1      47.100   8.273  13.502  0.00  0.00    +0.000 A 
ATOM     19  C   UNL     1      45.826   8.309  12.972  0.00  0.00    +0.000 A 
ATOM     20  N   UNL     1      45.073   7.212  12.741  0.00  0.00    +0.000 NA
ATOM     21  C   UNL     1      45.579   5.993  13.030  0.00  0.00    +0.000 A 
ATOM     22  N   UNL     1      44.772   4.885  12.867  0.00  0.00    +0.000 N 
ATOM     23  C   UNL     1      45.308   3.562  12.531  0.00  0.00    +0.000 C 
ATOM     24  C   UNL     1      44.814   3.092  11.145  0.00  0.00    +0.000 C 
ATOM     25  N   UNL     1      43.348   3.153  10.983  0.00  0.00    +0.000 NA
ATOM     26  C   UNL     1      42.910   4.542  11.246  0.00  0.00    +0.000 C 
ATOM     27  C   UNL     1      43.334   5.074  12.631  0.00  0.00    +0.000 C 
ATOM     28  C   UNL     1      46.870   5.888  13.556  0.00  0.00    +0.000 A 
ATOM     29  H   UNL     1      42.928   2.554  11.694  0.00  0.00    +0.000 HD
ENDBRANCH  16  17
ENDBRANCH   1  16
TORSDOF 4
ENDMDL
MODEL 7
REMARK VINA RESULT:    -6.619      4.080      7.400
REMARK INTER + INTRA:          -8.793
REMARK INTER:                  -8.065
REMARK INTRA:                  -0.728
REMARK UNBOUND:                -0.626
REMARK  Name = 
REMARK  4 active torsions:
REMARK  status: ('A' for Active; 'I' for Inactive)
REMARK    1  A    between atoms: C_2  and  C_4
REMARK    2  A    between atoms: C_9  and  N_10
REMARK    3  A    between atoms: N_10  and  C_11
REMARK    4  A    between atoms: C_11  and  C_12
REMARK                            x       y       z     vdW  Elec       q    Type
REMARK                         _______ _______ _______ _____ _____    ______ ____
ROOT
ATOM      1  N   UNL     1      47.648   9.027  13.972  0.00  0.00    +0.000 N 
ATOM      2  H   UNL     1      48.075   9.700  14.605  0.00  0.00    +0.000 HD
ENDROOT
BRANCH   1   8
ATOM      3  C   UNL     1      44.971  10.233  11.648  0.00  0.00    +0.000 A 
ATOM      4  C   UNL     1      45.704  11.084  10.819  0.00  0.00    +0.000 A 
ATOM      5  C   UNL     1      47.060  11.231  11.054  0.00  0.00    +0.000 A 
ATOM      6  F   UNL     1      47.775  12.065  10.284  0.00  0.00    +0.000 F 
ATOM      7  C   UNL     1      47.696  10.542  12.085  0.00  0.00    +0.000 A 
ATOM      8  C   UNL     1      46.987   9.649  12.905  0.00  0.00    +0.000 A 
ATOM      9  C   UNL     1      45.609   9.527  12.681  0.00  0.00    +0.000 A 
BRANCH   3  11
ATOM     10  N   UNL     1      42.698  10.934  11.973  0.00  0.00    +0.000 NA
ATOM     11  C   UNL     1      43.506  10.084  11.435  0.00  0.00    +0.000 C 
ATOM     12  N   UNL     1      43.025   9.047  10.687  0.00  0.00    +0.000 N 
ATOM     13  H   UNL     1      41.737  10.723  11.702  0.00  0.00    +0.000 HD
ATOM     14  H   UNL     1      42.049   8.819  10.835  0.00  0.00    +0.000 HD
ATOM     15  H   UNL     1      43.602   8.211  10.680  0.00  0.00    +0.000 HD
ENDBRANCH   3  11
ENDBRANCH   1   8
BRANCH   1  16
ATOM     16  C   UNL     1      48.546   7.911  13.689  0.00  0.00    +0.000 C 
BRANCH  16  17
ATOM     17  C   UNL     1      47.813   6.606  13.880  0.00  0.00    +0.000 A 
ATOM     18  C   UNL     1      47.995   5.831  15.021  0.00  0.00    +0.000 A 
ATOM     19  C   UNL     1      47.298   4.643  15.116  0.00  0.00    +0.000 A 
ATOM     20  N   UNL     1      46.457   4.184  14.165  0.00  0.00    +0.000 NA
ATOM     21  C   UNL     1      46.261   4.919  13.048  0.00  0.00    +0.000 A 
ATOM     22  N   UNL     1      45.463   4.403  12.047  0.00  0.00    +0.000 N 
ATOM     23  C   UNL     1      44.682   5.253  11.143  0.00  0.00    +0.000 C 
ATOM     24  C   UNL     1      43.165   5.024  11.327  0.00  0.00    +0.000 C 
ATOM     25  N   UNL     1      42.763   3.607  11.238  0.00  0.00    +0.000 NA
ATOM     26  C   UNL     1      43.529   2.843  12.248  0.00  0.00    +0.000 C 
ATOM     27  C   UNL     1      45.059   2.991  12.108  0.00  0.00    +0.000 C 
ATOM     28  C   UNL     1      46.926   6.139  12.898  0.00  0.00    +0.000 A 
ATOM     29  H   UNL     1      43.031   3.261  10.317  0.00  0.00    +0.000 HD
ENDBRANCH  16  17
ENDBRANCH   1  16
TORSDOF 4
ENDMDL
MODEL 8
REMARK VINA RESULT:    -6.550      4.238      5.954
REMARK INTER + INTRA:          -8.707
REMARK INTER:                  -8.261
REMARK INTRA:                  -0.446
REMARK UNBOUND:                -0.626
REMARK  Name = 
REMARK  4 active torsions:
REMARK  status: ('A' for Active; 'I' for Inactive)
REMARK    1  A    between atoms: C_2  and  C_4
REMARK    2  A    between atoms: C_9  and  N_10
REMARK    3  A    between atoms: N_10  and  C_11
REMARK    4  A    between atoms: C_11  and  C_12
REMARK                            x       y       z     vdW  Elec       q    Type
REMARK                         _______ _______ _______ _____ _____    ______ ____
ROOT
ATOM      1  N   UNL     1      46.964   5.201  14.613  0.00  0.00    +0.000 N 
ATOM      2  H   UNL     1      47.759   5.837  14.613  0.00  0.00    +0.000 HD
ENDROOT
BRANCH   1   8
ATOM      3  C   UNL     1      44.790   4.356  11.683  0.00  0.00    +0.000 A 
ATOM      4  C   UNL     1      44.535   5.627  11.168  0.00  0.00    +0.000 A 
ATOM      5  C   UNL     1      45.091   6.724  11.805  0.00  0.00    +0.000 A 
ATOM      6  F   UNL     1      44.835   7.955  11.338  0.00  0.00    +0.000 F 
ATOM      7  C   UNL     1      45.899   6.576  12.930  0.00  0.00    +0.000 A 
ATOM      8  C   UNL     1      46.203   5.304  13.441  0.00  0.00    +0.000 A 
ATOM      9  C   UNL     1      45.614   4.200  12.811  0.00  0.00    +0.000 A 
BRANCH   3  11
ATOM     10  N   UNL     1      43.005   2.774  11.408  0.00  0.00    +0.000 NA
ATOM     11  C   UNL     1      44.177   3.165  11.035  0.00  0.00    +0.000 C 
ATOM     12  N   UNL     1      44.859   2.486  10.066  0.00  0.00    +0.000 N 
ATOM     13  H   UNL     1      42.707   1.976  10.846  0.00  0.00    +0.000 HD
ATOM     14  H   UNL     1      44.545   1.538   9.895  0.00  0.00    +0.000 HD
ATOM     15  H   UNL     1      45.872   2.533  10.132  0.00  0.00    +0.000 HD
ENDBRANCH   3  11
ENDBRANCH   1   8
BRANCH   1  16
ATOM     16  C   UNL     1      47.339   3.875  15.095  0.00  0.00    +0.000 C 
BRANCH  16  17
ATOM     17  C   UNL     1      47.779   3.962  16.536  0.00  0.00    +0.000 A 
ATOM     18  C   UNL     1      48.439   2.908  17.158  0.00  0.00    +0.000 A 
ATOM     19  C   UNL     1      48.798   3.059  18.483  0.00  0.00    +0.000 A 
ATOM     20  N   UNL     1      48.539   4.165  19.213  0.00  0.00    +0.000 NA
ATOM     21  C   UNL     1      47.900   5.204  18.631  0.00  0.00    +0.000 A 
ATOM     22  N   UNL     1      47.568   6.296  19.408  0.00  0.00    +0.000 N 
ATOM     23  C   UNL     1      47.475   7.653  18.861  0.00  0.00    +0.000 C 
ATOM     24  C   UNL     1      48.541   8.583  19.483  0.00  0.00    +0.000 C 
ATOM     25  N   UNL     1      48.543   8.581  20.959  0.00  0.00    +0.000 NA
ATOM     26  C   UNL     1      48.738   7.187  21.420  0.00  0.00    +0.000 C 
ATOM     27  C   UNL     1      47.688   6.200  20.869  0.00  0.00    +0.000 C 
ATOM     28  C   UNL     1      47.523   5.118  17.288  0.00  0.00    +0.000 A 
ATOM     29  H   UNL     1      47.624   8.888  21.276  0.00  0.00    +0.000 HD
ENDBRANCH  16  17
ENDBRANCH   1  16
TORSDOF 4
ENDMDL
MODEL 9
REMARK VINA RESULT:    -6.367      4.099      6.274
REMARK INTER + INTRA:          -8.482
REMARK INTER:                  -7.656
REMARK INTRA:                  -0.826
REMARK UNBOUND:                -0.626
REMARK  Name = 
REMARK  4 active torsions:
REMARK  status: ('A' for Active; 'I' for Inactive)
REMARK    1  A    between atoms: C_2  and  C_4
REMARK    2  A    between atoms: C_9  and  N_10
REMARK    3  A    between atoms: N_10  and  C_11
REMARK    4  A    between atoms: C_11  and  C_12
REMARK                            x       y       z     vdW  Elec       q    Type
REMARK                         _______ _______ _______ _____ _____    ______ ____
ROOT
ATOM      1  N   UNL     1      48.871   6.757  13.059  0.00  0.00    +0.000 N 
ATOM      2  H   UNL     1      49.239   5.961  13.576  0.00  0.00    +0.000 HD
ENDROOT
BRANCH   1   8
ATOM      3  C   UNL     1      45.461   5.278  12.610  0.00  0.00    +0.000 A 
ATOM      4  C   UNL     1      44.763   6.372  12.097  0.00  0.00    +0.000 A 
ATOM      5  C   UNL     1      45.443   7.565  11.915  0.00  0.00    +0.000 A 
ATOM      6  F   UNL     1      44.782   8.634  11.447  0.00  0.00    +0.000 F 
ATOM      7  C   UNL     1      46.797   7.681  12.221  0.00  0.00    +0.000 A 
ATOM      8  C   UNL     1      47.529   6.581  12.699  0.00  0.00    +0.000 A 
ATOM      9  C   UNL     1      46.829   5.386  12.910  0.00  0.00    +0.000 A 
BRANCH   3  11
ATOM     10  N   UNL     1      43.523   4.019  13.260  0.00  0.00    +0.000 NA
ATOM     11  C   UNL     1      44.744   3.995  12.845  0.00  0.00    +0.000 C 
ATOM     12  N   UNL     1      45.382   2.805  12.634  0.00  0.00    +0.000 N 
ATOM     13  H   UNL     1      43.159   3.068  13.333  0.00  0.00    +0.000 HD
ATOM     14  H   UNL     1      44.971   2.003  13.097  0.00  0.00    +0.000 HD
ATOM     15  H   UNL     1      46.391   2.825  12.756  0.00  0.00    +0.000 HD
ENDBRANCH   3  11
ENDBRANCH   1   8
BRANCH   1  16
ATOM     16  C   UNL     1      49.278   8.023  13.664  0.00  0.00    +0.000 C 
BRANCH  16  17
ATOM     17  C   UNL     1      48.992   7.994  15.145  0.00  0.00    +0.000 A 
ATOM     18  C   UNL     1      48.433   9.089  15.797  0.00  0.00    +0.000 A 
ATOM     19  C   UNL     1      48.213   8.990  17.157  0.00  0.00    +0.000 A 
ATOM     20  N   UNL     1      48.516   7.900  17.893  0.00  0.00    +0.000 NA
ATOM     21  C   UNL     1      49.058   6.823  17.283  0.00  0.00    +0.000 A 
ATOM     22  N   UNL     1      49.439   5.745  18.057  0.00  0.00    +0.000 N 
ATOM     23  C   UNL     1      49.433   4.370  17.550  0.00  0.00    +0.000 C 
ATOM     24  C   UNL     1      48.413   3.495  18.313  0.00  0.00    +0.000 C 
ATOM     25  N   UNL     1      48.568   3.543  19.780  0.00  0.00    +0.000 NA
ATOM     26  C   UNL     1      48.465   4.956  20.211  0.00  0.00    +0.000 C 
ATOM     27  C   UNL     1      49.479   5.890  19.519  0.00  0.00    +0.000 C 
ATOM     28  C   UNL     1      49.292   6.855  15.905  0.00  0.00    +0.000 A 
ATOM     29  H   UNL     1      49.507   3.216  20.009  0.00  0.00    +0.000 HD
ENDBRANCH  16  17
ENDBRANCH   1  16
TORSDOF 4
ENDMDL
