MODEL 1
REMARK VINA RESULT:    -8.351      0.000      0.000
REMARK INTER + INTRA:         -10.761
REMARK INTER:                 -10.792
REMARK INTRA:                   0.031
REMARK UNBOUND:                 0.031
REMARK  Name = 
REMARK  5 active torsions:
REMARK  status: ('A' for Active; 'I' for Inactive)
REMARK    1  A    between atoms: C_2  and  C_3
REMARK    2  A    between atoms: C_6  and  O_7
REMARK    3  A    between atoms: O_7  and  C_8
REMARK    4  A    between atoms: C_8  and  C_9
REMARK    5  A    between atoms: C_13  and  C_14
REMARK                            x       y       z     vdW  Elec       q    Type
REMARK                         _______ _______ _______ _____ _____    ______ ____
ROOT
ATOM      1  C   UNL     1      43.972   4.642  11.658  0.00  0.00    +0.000 C 
ATOM      2  C   UNL     1      43.335   3.419  12.290  0.00  0.00    +0.000 C 
ATOM      3  C   UNL     1      42.853   4.777  12.671  0.00  0.00    +0.000 C 
ENDROOT
BRANCH   1   4
ATOM      4  C   UNL     1      45.369   5.120  11.999  0.00  0.00    +0.000 A 
ATOM      5  C   UNL     1      45.900   6.237  11.342  0.00  0.00    +0.000 A 
ATOM      6  C   UNL     1      46.998   6.915  11.861  0.00  0.00    +0.000 A 
ATOM      7  C   UNL     1      47.581   6.492  13.058  0.00  0.00    +0.000 A 
ATOM      8  C   UNL     1      47.111   5.361  13.741  0.00  0.00    +0.000 A 
ATOM      9  C   UNL     1      46.046   4.655  13.149  0.00  0.00    +0.000 A 
BRANCH   8  10
ATOM     10  C   UNL     1      47.605   5.008  15.096  0.00  0.00    +0.000 A 
ATOM     11  C   UNL     1      47.317   3.746  15.655  0.00  0.00    +0.000 A 
ATOM     12  C   UNL     1      47.822   3.361  16.901  0.00  0.00    +0.000 A 
ATOM     13  C   UNL     1      48.642   4.225  17.613  0.00  0.00    +0.000 A 
ATOM     14  C   UNL     1      48.952   5.477  17.086  0.00  0.00    +0.000 A 
ATOM     15  C   UNL     1      48.434   5.864  15.843  0.00  0.00    +0.000 A 
ENDBRANCH   8  10
ENDBRANCH   1   4
BRANCH   1  16
ATOM     16  O   UNL     1      43.702   4.637  10.235  0.00  0.00    +0.000 OA
BRANCH  16  20
ATOM     17  C   UNL     1      46.249   2.543   7.853  0.00  0.00    +0.000 A 
ATOM     18  C   UNL     1      45.518   1.796   8.764  0.00  0.00    +0.000 A 
ATOM     19  C   UNL     1      44.583   2.456   9.547  0.00  0.00    +0.000 A 
ATOM     20  C   UNL     1      44.430   3.829   9.418  0.00  0.00    +0.000 A 
ATOM     21  C   UNL     1      45.130   4.469   8.405  0.00  0.00    +0.000 A 
ATOM     22  N   UNL     1      46.046   3.862   7.620  0.00  0.00    +0.000 NA
BRANCH  17  24
ATOM     23  N   UNL     1      48.261   1.522   6.562  0.00  0.00    +0.000 NA
ATOM     24  C   UNL     1      47.356   1.951   7.167  0.00  0.00    +0.000 C 
ENDBRANCH  17  24
ENDBRANCH  16  20
ENDBRANCH   1  16
TORSDOF 5
ENDMDL
MODEL 2
REMARK VINA RESULT:    -8.174      1.829      3.734
REMARK INTER + INTRA:         -10.533
REMARK INTER:                  -9.487
REMARK INTRA:                  -1.046
REMARK UNBOUND:                 0.031
REMARK  Name = 
REMARK  5 active torsions:
REMARK  status: ('A' for Active; 'I' for Inactive)
REMARK    1  A    between atoms: C_2  and  C_3
REMARK    2  A    between atoms: C_6  and  O_7
REMARK    3  A    between atoms: O_7  and  C_8
REMARK    4  A    between atoms: C_8  and  C_9
REMARK    5  A    between atoms: C_13  and  C_14
REMARK                            x       y       z     vdW  Elec       q    Type
REMARK                         _______ _______ _______ _____ _____    ______ ____
ROOT
ATOM      1  C   UNL     1      43.863   5.146  11.573  0.00  0.00    +0.000 C 
ATOM      2  C   UNL     1      42.446   5.345  12.077  0.00  0.00    +0.000 C 
ATOM      3  C   UNL     1      43.004   6.287  11.066  0.00  0.00    +0.000 C 
ENDROOT
BRANCH   1   4
ATOM      4  C   UNL     1      45.090   5.432  12.414  0.00  0.00    +0.000 A 
ATOM      5  C   UNL     1      45.631   4.422  13.219  0.00  0.00    +0.000 A 
ATOM      6  C   UNL     1      46.928   4.520  13.712  0.00  0.00    +0.000 A 
ATOM      7  C   UNL     1      47.715   5.630  13.399  0.00  0.00    +0.000 A 
ATOM      8  C   UNL     1      47.213   6.687  12.624  0.00  0.00    +0.000 A 
ATOM      9  C   UNL     1      45.873   6.590  12.204  0.00  0.00    +0.000 A 
BRANCH   8  10
ATOM     10  C   UNL     1      48.091   7.782  12.139  0.00  0.00    +0.000 A 
ATOM     11  C   UNL     1      47.617   9.109  12.090  0.00  0.00    +0.000 A 
ATOM     12  C   UNL     1      48.438  10.170  11.699  0.00  0.00    +0.000 A 
ATOM     13  C   UNL     1      49.764   9.932  11.362  0.00  0.00    +0.000 A 
ATOM     14  C   UNL     1      50.266   8.634  11.406  0.00  0.00    +0.000 A 
ATOM     15  C   UNL     1      49.436   7.571  11.786  0.00  0.00    +0.000 A 
ENDBRANCH   8  10
ENDBRANCH   1   4
BRANCH   1  16
ATOM     16  O   UNL     1      43.941   3.888  10.860  0.00  0.00    +0.000 OA
BRANCH  16  20
ATOM     17  C   UNL     1      46.247   3.176   7.584  0.00  0.00    +0.000 A 
ATOM     18  C   UNL     1      46.133   4.503   7.969  0.00  0.00    +0.000 A 
ATOM     19  C   UNL     1      45.418   4.789   9.123  0.00  0.00    +0.000 A 
ATOM     20  C   UNL     1      44.822   3.755   9.831  0.00  0.00    +0.000 A 
ATOM     21  C   UNL     1      45.082   2.454   9.426  0.00  0.00    +0.000 A 
ATOM     22  N   UNL     1      45.776   2.135   8.311  0.00  0.00    +0.000 NA
BRANCH  17  24
ATOM     23  N   UNL     1      47.307   2.617   5.278  0.00  0.00    +0.000 NA
ATOM     24  C   UNL     1      46.799   2.847   6.307  0.00  0.00    +0.000 C 
ENDBRANCH  17  24
ENDBRANCH  16  20
ENDBRANCH   1  16
TORSDOF 5
ENDMDL
MODEL 3
REMARK VINA RESULT:    -7.880      3.222      7.458
REMARK INTER + INTRA:         -10.153
REMARK INTER:                  -9.347
REMARK INTRA:                  -0.806
REMARK UNBOUND:                 0.031
REMARK  Name = 
REMARK  5 active torsions:
REMARK  status: ('A' for Active; 'I' for Inactive)
REMARK    1  A    between atoms: C_2  and  C_3
REMARK    2  A    between atoms: C_6  and  O_7
REMARK    3  A    between atoms: O_7  and  C_8
REMARK    4  A    between atoms: C_8  and  C_9
REMARK    5  A    between atoms: C_13  and  C_14
REMARK                            x       y       z     vdW  Elec       q    Type
REMARK                         _______ _______ _______ _____ _____    ______ ____
ROOT
ATOM      1  C   UNL     1      46.372   6.825  12.448  0.00  0.00    +0.000 C 
ATOM      2  C   UNL     1      46.722   8.174  11.850  0.00  0.00    +0.000 C 
ATOM      3  C   UNL     1      45.858   8.111  13.062  0.00  0.00    +0.000 C 
ENDROOT
BRANCH   1   4
ATOM      4  C   UNL     1      45.409   5.853  11.797  0.00  0.00    +0.000 A 
ATOM      5  C   UNL     1      44.031   6.097  11.856  0.00  0.00    +0.000 A 
ATOM      6  C   UNL     1      43.154   5.453  10.989  0.00  0.00    +0.000 A 
ATOM      7  C   UNL     1      43.644   4.556  10.037  0.00  0.00    +0.000 A 
ATOM      8  C   UNL     1      45.010   4.249   9.955  0.00  0.00    +0.000 A 
ATOM      9  C   UNL     1      45.859   4.863  10.895  0.00  0.00    +0.000 A 
BRANCH   8  10
ATOM     10  C   UNL     1      45.561   3.439   8.839  0.00  0.00    +0.000 A 
ATOM     11  C   UNL     1      46.087   4.067   7.692  0.00  0.00    +0.000 A 
ATOM     12  C   UNL     1      46.669   3.333   6.654  0.00  0.00    +0.000 A 
ATOM     13  C   UNL     1      46.754   1.951   6.745  0.00  0.00    +0.000 A 
ATOM     14  C   UNL     1      46.249   1.299   7.868  0.00  0.00    +0.000 A 
ATOM     15  C   UNL     1      45.655   2.037   8.901  0.00  0.00    +0.000 A 
ENDBRANCH   8  10
ENDBRANCH   1   4
BRANCH   1  16
ATOM     16  O   UNL     1      47.582   6.191  12.932  0.00  0.00    +0.000 OA
BRANCH  16  20
ATOM     17  C   UNL     1      47.890   4.545  16.639  0.00  0.00    +0.000 A 
ATOM     18  C   UNL     1      48.556   5.746  16.451  0.00  0.00    +0.000 A 
ATOM     19  C   UNL     1      48.420   6.384  15.227  0.00  0.00    +0.000 A 
ATOM     20  C   UNL     1      47.656   5.793  14.231  0.00  0.00    +0.000 A 
ATOM     21  C   UNL     1      46.944   4.646  14.550  0.00  0.00    +0.000 A 
ATOM     22  N   UNL     1      47.047   3.998  15.731  0.00  0.00    +0.000 NA
BRANCH  17  24
ATOM     23  N   UNL     1      48.355   3.165  18.792  0.00  0.00    +0.000 NA
ATOM     24  C   UNL     1      48.154   3.755  17.801  0.00  0.00    +0.000 C 
ENDBRANCH  17  24
ENDBRANCH  16  20
ENDBRANCH   1  16
TORSDOF 5
ENDMDL
MODEL 4
REMARK VINA RESULT:    -7.815      2.274      4.329
REMARK INTER + INTRA:         -10.068
REMARK INTER:                  -9.444
REMARK INTRA:                  -0.624
REMARK UNBOUND:                 0.031
REMARK  Name = 
REMARK  5 active torsions:
REMARK  status: ('A' for Active; 'I' for Inactive)
REMARK    1  A    between atoms: C_2  and  C_3
REMARK    2  A    between atoms: C_6  and  O_7
REMARK    3  A    between atoms: O_7  and  C_8
REMARK    4  A    between atoms: C_8  and  C_9
REMARK    5  A    between atoms: C_13  and  C_14
REMARK                            x       y       z     vdW  Elec       q    Type
REMARK                         _______ _______ _______ _____ _____    ______ ____
ROOT
ATOM      1  C   UNL     1      44.165   5.193  12.156  0.00  0.00    +0.000 C 
ATOM      2  C   UNL     1      42.772   5.102  12.747  0.00  0.00    +0.000 C 
ATOM      3  C   UNL     1      42.993   5.910  11.515  0.00  0.00    +0.000 C 
ENDROOT
BRANCH   1   4
ATOM      4  C   UNL     1      45.287   5.988  12.793  0.00  0.00    +0.000 A 
ATOM      5  C   UNL     1      46.330   5.316  13.444  0.00  0.00    +0.000 A 
ATOM      6  C   UNL     1      47.532   5.961  13.718  0.00  0.00    +0.000 A 
ATOM      7  C   UNL     1      47.718   7.291  13.334  0.00  0.00    +0.000 A 
ATOM      8  C   UNL     1      46.696   8.021  12.709  0.00  0.00    +0.000 A 
ATOM      9  C   UNL     1      45.468   7.361  12.514  0.00  0.00    +0.000 A 
BRANCH   8  10
ATOM     10  C   UNL     1      46.940   9.371  12.141  0.00  0.00    +0.000 A 
ATOM     11  C   UNL     1      48.243   9.769  11.780  0.00  0.00    +0.000 A 
ATOM     12  C   UNL     1      48.494  11.009  11.185  0.00  0.00    +0.000 A 
ATOM     13  C   UNL     1      47.443  11.877  10.921  0.00  0.00    +0.000 A 
ATOM     14  C   UNL     1      46.143  11.512  11.261  0.00  0.00    +0.000 A 
ATOM     15  C   UNL     1      45.897  10.274  11.868  0.00  0.00    +0.000 A 
ENDBRANCH   8  10
ENDBRANCH   1   4
BRANCH   1  16
ATOM     16  O   UNL     1      44.580   3.879  11.709  0.00  0.00    +0.000 OA
BRANCH  16  20
ATOM     17  C   UNL     1      45.686   3.416   7.821  0.00  0.00    +0.000 A 
ATOM     18  C   UNL     1      45.037   2.337   8.400  0.00  0.00    +0.000 A 
ATOM     19  C   UNL     1      44.575   2.473   9.701  0.00  0.00    +0.000 A 
ATOM     20  C   UNL     1      44.799   3.660  10.384  0.00  0.00    +0.000 A 
ATOM     21  C   UNL     1      45.361   4.718   9.684  0.00  0.00    +0.000 A 
ATOM     22  N   UNL     1      45.820   4.625   8.417  0.00  0.00    +0.000 NA
BRANCH  17  24
ATOM     23  N   UNL     1      46.862   3.072   5.530  0.00  0.00    +0.000 NA
ATOM     24  C   UNL     1      46.351   3.261   6.565  0.00  0.00    +0.000 C 
ENDBRANCH  17  24
ENDBRANCH  16  20
ENDBRANCH   1  16
TORSDOF 5
ENDMDL
MODEL 5
REMARK VINA RESULT:    -7.524      1.976      2.801
REMARK INTER + INTRA:          -9.693
REMARK INTER:                  -9.513
REMARK INTRA:                  -0.180
REMARK UNBOUND:                 0.031
REMARK  Name = 
REMARK  5 active torsions:
REMARK  status: ('A' for Active; 'I' for Inactive)
REMARK    1  A    between atoms: C_2  and  C_3
REMARK    2  A    between atoms: C_6  and  O_7
REMARK    3  A    between atoms: O_7  and  C_8
REMARK    4  A    between atoms: C_8  and  C_9
REMARK    5  A    between atoms: C_13  and  C_14
REMARK                            x       y       z     vdW  Elec       q    Type
REMARK                         _______ _______ _______ _____ _____    ______ ____
ROOT
ATOM      1  C   UNL     1      44.075   4.570  11.455  0.00  0.00    +0.000 C 
ATOM      2  C   UNL     1      44.539   3.504  12.429  0.00  0.00    +0.000 C 
ATOM      3  C   UNL     1      43.250   4.210  12.674  0.00  0.00    +0.000 C 
ENDROOT
BRANCH   1   4
ATOM      4  C   UNL     1      44.722   5.936  11.349  0.00  0.00    +0.000 A 
ATOM      5  C   UNL     1      43.923   7.069  11.153  0.00  0.00    +0.000 A 
ATOM      6  C   UNL     1      44.418   8.344  11.407  0.00  0.00    +0.000 A 
ATOM      7  C   UNL     1      45.723   8.509  11.875  0.00  0.00    +0.000 A 
ATOM      8  C   UNL     1      46.578   7.411  12.058  0.00  0.00    +0.000 A 
ATOM      9  C   UNL     1      46.070   6.143  11.721  0.00  0.00    +0.000 A 
BRANCH   8  10
ATOM     10  C   UNL     1      47.900   7.556  12.719  0.00  0.00    +0.000 A 
ATOM     11  C   UNL     1      48.100   7.079  14.030  0.00  0.00    +0.000 A 
ATOM     12  C   UNL     1      49.349   7.144  14.655  0.00  0.00    +0.000 A 
ATOM     13  C   UNL     1      50.437   7.675  13.974  0.00  0.00    +0.000 A 
ATOM     14  C   UNL     1      50.275   8.149  12.675  0.00  0.00    +0.000 A 
ATOM     15  C   UNL     1      49.019   8.094  12.058  0.00  0.00    +0.000 A 
ENDBRANCH   8  10
ENDBRANCH   1   4
BRANCH   1  16
ATOM     16  O   UNL     1      43.820   3.958  10.167  0.00  0.00    +0.000 OA
BRANCH  16  20
ATOM     17  C   UNL     1      46.661   2.642   7.569  0.00  0.00    +0.000 A 
ATOM     18  C   UNL     1      46.479   4.015   7.625  0.00  0.00    +0.000 A 
ATOM     19  C   UNL     1      45.574   4.517   8.549  0.00  0.00    +0.000 A 
ATOM     20  C   UNL     1      44.866   3.640   9.357  0.00  0.00    +0.000 A 
ATOM     21  C   UNL     1      45.195   2.293   9.302  0.00  0.00    +0.000 A 
ATOM     22  N   UNL     1      46.073   1.766   8.420  0.00  0.00    +0.000 NA
BRANCH  17  24
ATOM     23  N   UNL     1      48.098   1.564   5.691  0.00  0.00    +0.000 NA
ATOM     24  C   UNL     1      47.427   2.064   6.509  0.00  0.00    +0.000 C 
ENDBRANCH  17  24
ENDBRANCH  16  20
ENDBRANCH   1  16
TORSDOF 5
ENDMDL
MODEL 6
REMARK VINA RESULT:    -7.374      3.232      6.997
REMARK INTER + INTRA:          -9.499
REMARK INTER:                  -8.336
REMARK INTRA:                  -1.163
REMARK UNBOUND:                 0.031
REMARK  Name = 
REMARK  5 active torsions:
REMARK  status: ('A' for Active; 'I' for Inactive)
REMARK    1  A    between atoms: C_2  and  C_3
REMARK    2  A    between atoms: C_6  and  O_7
REMARK    3  A    between atoms: O_7  and  C_8
REMARK    4  A    between atoms: C_8  and  C_9
REMARK    5  A    between atoms: C_13  and  C_14
REMARK                            x       y       z     vdW  Elec       q    Type
REMARK                         _______ _______ _______ _____ _____    ______ ____
ROOT
ATOM      1  C   UNL     1      46.150   4.938  13.382  0.00  0.00    +0.000 C 
ATOM      2  C   UNL     1      46.157   4.254  14.735  0.00  0.00    +0.000 C 
ATOM      3  C   UNL     1      47.275   4.005  13.783  0.00  0.00    +0.000 C 
ENDROOT
BRANCH   1   4
ATOM      4  C   UNL     1      45.204   4.553  12.262  0.00  0.00    +0.000 A 
ATOM      5  C   UNL     1      43.977   5.216  12.132  0.00  0.00    +0.000 A 
ATOM      6  C   UNL     1      43.257   5.156  10.943  0.00  0.00    +0.000 A 
ATOM      7  C   UNL     1      43.758   4.439   9.855  0.00  0.00    +0.000 A 
ATOM      8  C   UNL     1      44.966   3.730   9.940  0.00  0.00    +0.000 A 
ATOM      9  C   UNL     1      45.632   3.751  11.180  0.00  0.00    +0.000 A 
BRANCH   8  10
ATOM     10  C   UNL     1      45.593   3.114   8.744  0.00  0.00    +0.000 A 
ATOM     11  C   UNL     1      46.001   3.915   7.658  0.00  0.00    +0.000 A 
ATOM     12  C   UNL     1      46.652   3.372   6.546  0.00  0.00    +0.000 A 
ATOM     13  C   UNL     1      46.925   2.012   6.499  0.00  0.00    +0.000 A 
ATOM     14  C   UNL     1      46.540   1.193   7.558  0.00  0.00    +0.000 A 
ATOM     15  C   UNL     1      45.878   1.739   8.665  0.00  0.00    +0.000 A 
ENDBRANCH   8  10
ENDBRANCH   1   4
BRANCH   1  16
ATOM     16  O   UNL     1      46.256   6.370  13.572  0.00  0.00    +0.000 OA
BRANCH  16  20
ATOM     17  C   UNL     1      49.808   8.056  12.527  0.00  0.00    +0.000 A 
ATOM     18  C   UNL     1      48.964   7.719  11.480  0.00  0.00    +0.000 A 
ATOM     19  C   UNL     1      47.712   7.210  11.788  0.00  0.00    +0.000 A 
ATOM     20  C   UNL     1      47.356   7.027  13.116  0.00  0.00    +0.000 A 
ATOM     21  C   UNL     1      48.226   7.493  14.093  0.00  0.00    +0.000 A 
ATOM     22  N   UNL     1      49.452   7.998  13.833  0.00  0.00    +0.000 NA
BRANCH  17  24
ATOM     23  N   UNL     1      52.266   8.730  12.018  0.00  0.00    +0.000 NA
ATOM     24  C   UNL     1      51.172   8.395  12.266  0.00  0.00    +0.000 C 
ENDBRANCH  17  24
ENDBRANCH  16  20
ENDBRANCH   1  16
TORSDOF 5
ENDMDL
MODEL 7
REMARK VINA RESULT:    -7.117      4.012      8.073
REMARK INTER + INTRA:          -9.166
REMARK INTER:                  -8.072
REMARK INTRA:                  -1.094
REMARK UNBOUND:                 0.031
REMARK  Name = 
REMARK  5 active torsions:
REMARK  status: ('A' for Active; 'I' for Inactive)
REMARK    1  A    between atoms: C_2  and  C_3
REMARK    2  A    between atoms: C_6  and  O_7
REMARK    3  A    between atoms: O_7  and  C_8
REMARK    4  A    between atoms: C_8  and  C_9
REMARK    5  A    between atoms: C_13  and  C_14
REMARK                            x       y       z     vdW  Elec       q    Type
REMARK                         _______ _______ _______ _____ _____    ______ ____
ROOT
ATOM      1  C   UNL     1      48.785   7.469  13.289  0.00  0.00    +0.000 C 
ATOM      2  C   UNL     1      49.837   7.657  12.213  0.00  0.00    +0.000 C 
ATOM      3  C   UNL     1      49.458   8.810  13.076  0.00  0.00    +0.000 C 
ENDROOT
BRANCH   1   4
ATOM      4  C   UNL     1      47.310   7.300  12.988  0.00  0.00    +0.000 A 
ATOM      5  C   UNL     1      46.447   8.397  13.107  0.00  0.00    +0.000 A 
ATOM      6  C   UNL     1      45.192   8.386  12.508  0.00  0.00    +0.000 A 
ATOM      7  C   UNL     1      44.778   7.277  11.767  0.00  0.00    +0.000 A 
ATOM      8  C   UNL     1      45.588   6.138  11.642  0.00  0.00    +0.000 A 
ATOM      9  C   UNL     1      46.821   6.154  12.322  0.00  0.00    +0.000 A 
BRANCH   8  10
ATOM     10  C   UNL     1      45.237   5.031  10.716  0.00  0.00    +0.000 A 
ATOM     11  C   UNL     1      45.577   5.108   9.350  0.00  0.00    +0.000 A 
ATOM     12  C   UNL     1      45.316   4.055   8.467  0.00  0.00    +0.000 A 
ATOM     13  C   UNL     1      44.723   2.890   8.934  0.00  0.00    +0.000 A 
ATOM     14  C   UNL     1      44.380   2.780  10.280  0.00  0.00    +0.000 A 
ATOM     15  C   UNL     1      44.631   3.842  11.159  0.00  0.00    +0.000 A 
ENDBRANCH   8  10
ENDBRANCH   1   4
BRANCH   1  16
ATOM     16  O   UNL     1      49.276   6.529  14.276  0.00  0.00    +0.000 OA
BRANCH  16  20
ATOM     17  C   UNL     1      48.097   6.267  18.161  0.00  0.00    +0.000 A 
ATOM     18  C   UNL     1      48.515   7.519  17.737  0.00  0.00    +0.000 A 
ATOM     19  C   UNL     1      48.857   7.675  16.401  0.00  0.00    +0.000 A 
ATOM     20  C   UNL     1      48.799   6.582  15.549  0.00  0.00    +0.000 A 
ATOM     21  C   UNL     1      48.266   5.399  16.042  0.00  0.00    +0.000 A 
ATOM     22  N   UNL     1      47.919   5.209  17.333  0.00  0.00    +0.000 NA
BRANCH  17  24
ATOM     23  N   UNL     1      47.722   5.824  20.694  0.00  0.00    +0.000 NA
ATOM     24  C   UNL     1      47.925   6.005  19.556  0.00  0.00    +0.000 C 
ENDBRANCH  17  24
ENDBRANCH  16  20
ENDBRANCH   1  16
TORSDOF 5
ENDMDL
MODEL 8
REMARK VINA RESULT:    -6.907      2.892      4.679
REMARK INTER + INTRA:          -8.895
REMARK INTER:                  -8.034
REMARK INTRA:                  -0.861
REMARK UNBOUND:                 0.031
REMARK  Name = 
REMARK  5 active torsions:
REMARK  status: ('A' for Active; 'I' for Inactive)
REMARK    1  A    between atoms: C_2  and  C_3
REMARK    2  A    between atoms: C_6  and  O_7
REMARK    3  A    between atoms: O_7  and  C_8
REMARK    4  A    between atoms: C_8  and  C_9
REMARK    5  A    between atoms: C_13  and  C_14
REMARK                            x       y       z     vdW  Elec       q    Type
REMARK                         _______ _______ _______ _____ _____    ______ ____
ROOT
ATOM      1  C   UNL     1      47.935   8.134  12.776  0.00  0.00    +0.000 C 
ATOM      2  C   UNL     1      48.376   9.188  11.777  0.00  0.00    +0.000 C 
ATOM      3  C   UNL     1      48.863   7.788  11.629  0.00  0.00    +0.000 C 
ENDROOT
BRANCH   1   4
ATOM      4  C   UNL     1      48.438   8.083  14.204  0.00  0.00    +0.000 A 
ATOM      5  C   UNL     1      48.210   9.168  15.060  0.00  0.00    +0.000 A 
ATOM      6  C   UNL     1      48.324   9.026  16.439  0.00  0.00    +0.000 A 
ATOM      7  C   UNL     1      48.660   7.787  16.990  0.00  0.00    +0.000 A 
ATOM      8  C   UNL     1      48.931   6.675  16.179  0.00  0.00    +0.000 A 
ATOM      9  C   UNL     1      48.878   6.873  14.786  0.00  0.00    +0.000 A 
BRANCH   8  10
ATOM     10  C   UNL     1      49.114   5.318  16.754  0.00  0.00    +0.000 A 
ATOM     11  C   UNL     1      48.080   4.363  16.676  0.00  0.00    +0.000 A 
ATOM     12  C   UNL     1      48.245   3.059  17.151  0.00  0.00    +0.000 A 
ATOM     13  C   UNL     1      49.459   2.672  17.703  0.00  0.00    +0.000 A 
ATOM     14  C   UNL     1      50.504   3.589  17.790  0.00  0.00    +0.000 A 
ATOM     15  C   UNL     1      50.330   4.899  17.324  0.00  0.00    +0.000 A 
ENDBRANCH   8  10
ENDBRANCH   1   4
BRANCH   1  16
ATOM     16  O   UNL     1      46.503   7.947  12.668  0.00  0.00    +0.000 OA
BRANCH  16  20
ATOM     17  C   UNL     1      44.694   4.403  11.818  0.00  0.00    +0.000 A 
ATOM     18  C   UNL     1      45.031   5.189  10.728  0.00  0.00    +0.000 A 
ATOM     19  C   UNL     1      45.716   6.373  10.962  0.00  0.00    +0.000 A 
ATOM     20  C   UNL     1      46.013   6.743  12.266  0.00  0.00    +0.000 A 
ATOM     21  C   UNL     1      45.729   5.839  13.280  0.00  0.00    +0.000 A 
ATOM     22  N   UNL     1      45.067   4.677  13.092  0.00  0.00    +0.000 NA
BRANCH  17  24
ATOM     23  N   UNL     1      43.062   2.397  11.557  0.00  0.00    +0.000 NA
ATOM     24  C   UNL     1      43.821   3.283  11.650  0.00  0.00    +0.000 C 
ENDBRANCH  17  24
ENDBRANCH  16  20
ENDBRANCH   1  16
TORSDOF 5
ENDMDL
MODEL 9
REMARK VINA RESULT:    -6.440      3.965      7.162
REMARK INTER + INTRA:          -8.292
REMARK INTER:                  -7.097
REMARK INTRA:                  -1.195
REMARK UNBOUND:                 0.031
REMARK  Name = 
REMARK  5 active torsions:
REMARK  status: ('A' for Active; 'I' for Inactive)
REMARK    1  A    between atoms: C_2  and  C_3
REMARK    2  A    between atoms: C_6  and  O_7
REMARK    3  A    between atoms: O_7  and  C_8
REMARK    4  A    between atoms: C_8  and  C_9
REMARK    5  A    between atoms: C_13  and  C_14
REMARK                            x       y       z     vdW  Elec       q    Type
REMARK                         _______ _______ _______ _____ _____    ______ ____
ROOT
ATOM      1  C   UNL     1      49.172   7.630  14.047  0.00  0.00    +0.000 C 
ATOM      2  C   UNL     1      50.231   7.406  15.109  0.00  0.00    +0.000 C 
ATOM      3  C   UNL     1      48.838   7.734  15.522  0.00  0.00    +0.000 C 
ENDROOT
BRANCH   1   4
ATOM      4  C   UNL     1      49.126   8.863  13.167  0.00  0.00    +0.000 A 
ATOM      5  C   UNL     1      50.197   9.143  12.309  0.00  0.00    +0.000 A 
ATOM      6  C   UNL     1      50.048  10.032  11.250  0.00  0.00    +0.000 A 
ATOM      7  C   UNL     1      48.817  10.652  11.022  0.00  0.00    +0.000 A 
ATOM      8  C   UNL     1      47.721  10.433  11.869  0.00  0.00    +0.000 A 
ATOM      9  C   UNL     1      47.927   9.586  12.974  0.00  0.00    +0.000 A 
BRANCH   8  10
ATOM     10  C   UNL     1      46.366  10.944  11.537  0.00  0.00    +0.000 A 
ATOM     11  C   UNL     1      46.214  12.111  10.761  0.00  0.00    +0.000 A 
ATOM     12  C   UNL     1      44.953  12.581  10.379  0.00  0.00    +0.000 A 
ATOM     13  C   UNL     1      43.812  11.884  10.752  0.00  0.00    +0.000 A 
ATOM     14  C   UNL     1      43.928  10.724  11.514  0.00  0.00    +0.000 A 
ATOM     15  C   UNL     1      45.192  10.263  11.905  0.00  0.00    +0.000 A 
ENDBRANCH   8  10
ENDBRANCH   1   4
BRANCH   1  16
ATOM     16  O   UNL     1      48.966   6.399  13.313  0.00  0.00    +0.000 OA
BRANCH  16  20
ATOM     17  C   UNL     1      45.066   5.410  12.712  0.00  0.00    +0.000 A 
ATOM     18  C   UNL     1      45.651   6.194  11.730  0.00  0.00    +0.000 A 
ATOM     19  C   UNL     1      47.000   6.496  11.853  0.00  0.00    +0.000 A 
ATOM     20  C   UNL     1      47.705   6.035  12.955  0.00  0.00    +0.000 A 
ATOM     21  C   UNL     1      47.058   5.170  13.827  0.00  0.00    +0.000 A 
ATOM     22  N   UNL     1      45.749   4.850  13.739  0.00  0.00    +0.000 NA
BRANCH  17  24
ATOM     23  N   UNL     1      42.494   5.047  12.809  0.00  0.00    +0.000 NA
ATOM     24  C   UNL     1      43.646   5.237  12.737  0.00  0.00    +0.000 C 
ENDBRANCH  17  24
ENDBRANCH  16  20
ENDBRANCH   1  16
TORSDOF 5
ENDMDL
