MODEL 1
REMARK VINA RESULT:    -7.668      0.000      0.000
REMARK INTER + INTRA:         -12.218
REMARK INTER:                 -11.031
REMARK INTRA:                  -1.187
REMARK UNBOUND:                -1.187
REMARK  Name = 
REMARK  9 active torsions:
REMARK  status: ('A' for Active; 'I' for Inactive)
REMARK    1  A    between atoms: C_1  and  O_2
REMARK    2  A    between atoms: O_2  and  C_3
REMARK    3  A    between atoms: C_6  and  O_7
REMARK    4  A    between atoms: O_7  and  C_8
REMARK    5  A    between atoms: C_8  and  C_9
REMARK    6  A    between atoms: C_9  and  C_10
REMARK    7  A    between atoms: C_14  and  C_15
REMARK    8  A    between atoms: C_15  and  N_16
REMARK    9  A    between atoms: C_19  and  C_20
REMARK                            x       y       z     vdW  Elec       q    Type
REMARK                         _______ _______ _______ _____ _____    ______ ____
ROOT
ATOM      1  C   UNL     1      47.361   6.018  13.241  0.00  0.00    +0.000 A 
ATOM      2  C   UNL     1      46.657   6.696  12.241  0.00  0.00    +0.000 A 
ATOM      3  C   UNL     1      45.345   6.336  11.918  0.00  0.00    +0.000 A 
ATOM      4  C   UNL     1      44.710   5.288  12.578  0.00  0.00    +0.000 A 
ATOM      5  C   UNL     1      45.402   4.614  13.586  0.00  0.00    +0.000 A 
ATOM      6  C   UNL     1      46.722   4.970  13.933  0.00  0.00    +0.000 A 
ENDROOT
BRANCH   6   7
ATOM      7  C   UNL     1      47.342   4.207  15.065  0.00  0.00    +0.000 C 
ATOM      8  N   UNL     1      47.556   4.854  16.245  0.00  0.00    +0.000 N 
ATOM      9  O   UNL     1      47.635   3.021  14.959  0.00  0.00    +0.000 OA
ATOM     10  H   UNL     1      47.377   5.846  16.343  0.00  0.00    +0.000 HD
ATOM     11  H   UNL     1      47.979   4.345  17.008  0.00  0.00    +0.000 HD
ENDBRANCH   6   7
BRANCH   1  13
ATOM     12  C   UNL     1      48.958   7.549  14.143  0.00  0.00    +0.000 C 
ATOM     13  O   UNL     1      48.672   6.292  13.540  0.00  0.00    +0.000 OA
ENDBRANCH   1  13
BRANCH   4  14
ATOM     14  O   UNL     1      43.440   4.840  12.324  0.00  0.00    +0.000 OA
BRANCH  14  15
ATOM     15  C   UNL     1      43.175   4.403  10.987  0.00  0.00    +0.000 C 
BRANCH  15  16
ATOM     16  C   UNL     1      43.909   3.088  10.718  0.00  0.00    +0.000 C 
BRANCH  16  17
ATOM     17  C   UNL     1      44.833   3.214   9.531  0.00  0.00    +0.000 A 
ATOM     18  C   UNL     1      45.163   4.472   9.015  0.00  0.00    +0.000 A 
ATOM     19  C   UNL     1      46.058   4.586   7.949  0.00  0.00    +0.000 A 
ATOM     20  C   UNL     1      46.641   3.445   7.397  0.00  0.00    +0.000 A 
ATOM     21  C   UNL     1      46.336   2.176   7.905  0.00  0.00    +0.000 A 
ATOM     22  C   UNL     1      45.423   2.074   8.968  0.00  0.00    +0.000 A 
BRANCH  21  23
ATOM     23  C   UNL     1      46.963   0.937   7.316  0.00  0.00    +0.000 C 
BRANCH  23  24
ATOM     24  N   UNL     1      48.101   1.267   6.464  0.00  0.00    +0.000 NA
ATOM     25  H   UNL     1      47.918   0.911   5.527  0.00  0.00    +0.000 HD
ATOM     26  H   UNL     1      48.925   0.775   6.804  0.00  0.00    +0.000 HD
ENDBRANCH  23  24
ENDBRANCH  21  23
ENDBRANCH  16  17
ENDBRANCH  15  16
ENDBRANCH  14  15
ENDBRANCH   4  14
TORSDOF 8
ENDMDL
MODEL 2
REMARK VINA RESULT:    -7.206      1.810      2.627
REMARK INTER + INTRA:         -11.552
REMARK INTER:                 -10.256
REMARK INTRA:                  -1.296
REMARK UNBOUND:                -1.187
REMARK  Name = 
REMARK  9 active torsions:
REMARK  status: ('A' for Active; 'I' for Inactive)
REMARK    1  A    between atoms: C_1  and  O_2
REMARK    2  A    between atoms: O_2  and  C_3
REMARK    3  A    between atoms: C_6  and  O_7
REMARK    4  A    between atoms: O_7  and  C_8
REMARK    5  A    between atoms: C_8  and  C_9
REMARK    6  A    between atoms: C_9  and  C_10
REMARK    7  A    between atoms: C_14  and  C_15
REMARK    8  A    between atoms: C_15  and  N_16
REMARK    9  A    between atoms: C_19  and  C_20
REMARK                            x       y       z     vdW  Elec       q    Type
REMARK                         _______ _______ _______ _____ _____    ______ ____
ROOT
ATOM      1  C   UNL     1      46.963   6.725  12.947  0.00  0.00    +0.000 A 
ATOM      2  C   UNL     1      47.243   5.388  13.246  0.00  0.00    +0.000 A 
ATOM      3  C   UNL     1      46.234   4.421  13.223  0.00  0.00    +0.000 A 
ATOM      4  C   UNL     1      44.922   4.766  12.910  0.00  0.00    +0.000 A 
ATOM      5  C   UNL     1      44.637   6.097  12.599  0.00  0.00    +0.000 A 
ATOM      6  C   UNL     1      45.644   7.084  12.606  0.00  0.00    +0.000 A 
ENDROOT
BRANCH   6   7
ATOM      7  C   UNL     1      45.225   8.467  12.206  0.00  0.00    +0.000 C 
ATOM      8  N   UNL     1      45.630   9.518  12.974  0.00  0.00    +0.000 N 
ATOM      9  O   UNL     1      44.553   8.671  11.200  0.00  0.00    +0.000 OA
ATOM     10  H   UNL     1      46.137   9.373  13.839  0.00  0.00    +0.000 HD
ATOM     11  H   UNL     1      45.345  10.450  12.710  0.00  0.00    +0.000 HD
ENDBRANCH   6   7
BRANCH   1  13
ATOM     12  C   UNL     1      49.257   7.320  13.253  0.00  0.00    +0.000 C 
ATOM     13  O   UNL     1      47.909   7.716  13.028  0.00  0.00    +0.000 OA
ENDBRANCH   1  13
BRANCH   4  14
ATOM     14  O   UNL     1      43.857   3.905  12.882  0.00  0.00    +0.000 OA
BRANCH  14  15
ATOM     15  C   UNL     1      43.232   3.711  11.609  0.00  0.00    +0.000 C 
BRANCH  15  16
ATOM     16  C   UNL     1      43.807   2.465  10.934  0.00  0.00    +0.000 C 
BRANCH  16  17
ATOM     17  C   UNL     1      44.662   2.836   9.746  0.00  0.00    +0.000 A 
ATOM     18  C   UNL     1      44.799   4.172   9.356  0.00  0.00    +0.000 A 
ATOM     19  C   UNL     1      45.631   4.515   8.288  0.00  0.00    +0.000 A 
ATOM     20  C   UNL     1      46.343   3.526   7.608  0.00  0.00    +0.000 A 
ATOM     21  C   UNL     1      46.231   2.183   7.988  0.00  0.00    +0.000 A 
ATOM     22  C   UNL     1      45.380   1.850   9.055  0.00  0.00    +0.000 A 
BRANCH  21  23
ATOM     23  C   UNL     1      46.999   1.107   7.260  0.00  0.00    +0.000 C 
BRANCH  23  24
ATOM     24  N   UNL     1      48.197   1.644   6.622  0.00  0.00    +0.000 NA
ATOM     25  H   UNL     1      48.806   0.867   6.370  0.00  0.00    +0.000 HD
ATOM     26  H   UNL     1      48.710   2.207   7.297  0.00  0.00    +0.000 HD
ENDBRANCH  23  24
ENDBRANCH  21  23
ENDBRANCH  16  17
ENDBRANCH  15  16
ENDBRANCH  14  15
ENDBRANCH   4  14
TORSDOF 8
ENDMDL
MODEL 3
REMARK VINA RESULT:    -6.193      3.454      7.396
REMARK INTER + INTRA:         -10.096
REMARK INTER:                  -8.570
REMARK INTRA:                  -1.526
REMARK UNBOUND:                -1.187
REMARK  Name = 
REMARK  9 active torsions:
REMARK  status: ('A' for Active; 'I' for Inactive)
REMARK    1  A    between atoms: C_1  and  O_2
REMARK    2  A    between atoms: O_2  and  C_3
REMARK    3  A    between atoms: C_6  and  O_7
REMARK    4  A    between atoms: O_7  and  C_8
REMARK    5  A    between atoms: C_8  and  C_9
REMARK    6  A    between atoms: C_9  and  C_10
REMARK    7  A    between atoms: C_14  and  C_15
REMARK    8  A    between atoms: C_15  and  N_16
REMARK    9  A    between atoms: C_19  and  C_20
REMARK                            x       y       z     vdW  Elec       q    Type
REMARK                         _______ _______ _______ _____ _____    ______ ____
ROOT
ATOM      1  C   UNL     1      45.178   5.823  12.959  0.00  0.00    +0.000 A 
ATOM      2  C   UNL     1      45.239   7.209  12.782  0.00  0.00    +0.000 A 
ATOM      3  C   UNL     1      46.444   7.900  12.940  0.00  0.00    +0.000 A 
ATOM      4  C   UNL     1      47.612   7.227  13.287  0.00  0.00    +0.000 A 
ATOM      5  C   UNL     1      47.562   5.842  13.453  0.00  0.00    +0.000 A 
ATOM      6  C   UNL     1      46.358   5.126  13.287  0.00  0.00    +0.000 A 
ENDROOT
BRANCH   6   7
ATOM      7  C   UNL     1      46.441   3.637  13.442  0.00  0.00    +0.000 C 
ATOM      8  N   UNL     1      45.637   2.856  12.666  0.00  0.00    +0.000 N 
ATOM      9  O   UNL     1      47.224   3.113  14.227  0.00  0.00    +0.000 OA
ATOM     10  H   UNL     1      44.942   3.263  12.052  0.00  0.00    +0.000 HD
ATOM     11  H   UNL     1      45.686   1.853  12.772  0.00  0.00    +0.000 HD
ENDBRANCH   6   7
BRANCH   1  13
ATOM     12  C   UNL     1      43.122   5.423  11.807  0.00  0.00    +0.000 C 
ATOM     13  O   UNL     1      44.003   5.117  12.883  0.00  0.00    +0.000 OA
ENDBRANCH   1  13
BRANCH   4  14
ATOM     14  O   UNL     1      48.836   7.808  13.488  0.00  0.00    +0.000 OA
BRANCH  14  15
ATOM     15  C   UNL     1      49.594   7.322  14.601  0.00  0.00    +0.000 C 
BRANCH  15  16
ATOM     16  C   UNL     1      49.287   8.160  15.842  0.00  0.00    +0.000 C 
BRANCH  16  17
ATOM     17  C   UNL     1      48.701   7.308  16.942  0.00  0.00    +0.000 A 
ATOM     18  C   UNL     1      48.151   7.899  18.086  0.00  0.00    +0.000 A 
ATOM     19  C   UNL     1      47.565   7.110  19.076  0.00  0.00    +0.000 A 
ATOM     20  C   UNL     1      47.512   5.724  18.929  0.00  0.00    +0.000 A 
ATOM     21  C   UNL     1      48.045   5.110  17.789  0.00  0.00    +0.000 A 
ATOM     22  C   UNL     1      48.644   5.914  16.805  0.00  0.00    +0.000 A 
BRANCH  21  23
ATOM     23  C   UNL     1      47.990   3.612  17.620  0.00  0.00    +0.000 C 
BRANCH  23  24
ATOM     24  N   UNL     1      46.624   3.149  17.392  0.00  0.00    +0.000 NA
ATOM     25  H   UNL     1      46.029   3.516  18.134  0.00  0.00    +0.000 HD
ATOM     26  H   UNL     1      46.598   2.135  17.476  0.00  0.00    +0.000 HD
ENDBRANCH  23  24
ENDBRANCH  21  23
ENDBRANCH  16  17
ENDBRANCH  15  16
ENDBRANCH  14  15
ENDBRANCH   4  14
TORSDOF 8
ENDMDL
MODEL 4
REMARK VINA RESULT:    -6.039      1.875      2.903
REMARK INTER + INTRA:          -9.874
REMARK INTER:                  -9.294
REMARK INTRA:                  -0.580
REMARK UNBOUND:                -1.187
REMARK  Name = 
REMARK  9 active torsions:
REMARK  status: ('A' for Active; 'I' for Inactive)
REMARK    1  A    between atoms: C_1  and  O_2
REMARK    2  A    between atoms: O_2  and  C_3
REMARK    3  A    between atoms: C_6  and  O_7
REMARK    4  A    between atoms: O_7  and  C_8
REMARK    5  A    between atoms: C_8  and  C_9
REMARK    6  A    between atoms: C_9  and  C_10
REMARK    7  A    between atoms: C_14  and  C_15
REMARK    8  A    between atoms: C_15  and  N_16
REMARK    9  A    between atoms: C_19  and  C_20
REMARK                            x       y       z     vdW  Elec       q    Type
REMARK                         _______ _______ _______ _____ _____    ______ ____
ROOT
ATOM      1  C   UNL     1      47.982   5.849  14.079  0.00  0.00    +0.000 A 
ATOM      2  C   UNL     1      47.102   4.786  14.302  0.00  0.00    +0.000 A 
ATOM      3  C   UNL     1      46.049   4.529  13.419  0.00  0.00    +0.000 A 
ATOM      4  C   UNL     1      45.844   5.331  12.300  0.00  0.00    +0.000 A 
ATOM      5  C   UNL     1      46.725   6.387  12.064  0.00  0.00    +0.000 A 
ATOM      6  C   UNL     1      47.800   6.655  12.937  0.00  0.00    +0.000 A 
ENDROOT
BRANCH   6   7
ATOM      7  C   UNL     1      48.708   7.784  12.551  0.00  0.00    +0.000 C 
ATOM      8  N   UNL     1      49.430   7.674  11.400  0.00  0.00    +0.000 N 
ATOM      9  O   UNL     1      48.795   8.802  13.229  0.00  0.00    +0.000 OA
ATOM     10  H   UNL     1      49.421   6.823  10.852  0.00  0.00    +0.000 HD
ATOM     11  H   UNL     1      50.046   8.431  11.140  0.00  0.00    +0.000 HD
ENDBRANCH   6   7
BRANCH   1  13
ATOM     12  C   UNL     1      48.601   6.610  16.258  0.00  0.00    +0.000 C 
ATOM     13  O   UNL     1      48.984   6.179  14.957  0.00  0.00    +0.000 OA
ENDBRANCH   1  13
BRANCH   4  14
ATOM     14  O   UNL     1      44.833   5.182  11.388  0.00  0.00    +0.000 OA
BRANCH  14  15
ATOM     15  C   UNL     1      45.198   5.309  10.009  0.00  0.00    +0.000 C 
BRANCH  15  16
ATOM     16  C   UNL     1      44.315   4.399   9.155  0.00  0.00    +0.000 C 
BRANCH  16  17
ATOM     17  C   UNL     1      45.130   3.314   8.494  0.00  0.00    +0.000 A 
ATOM     18  C   UNL     1      45.201   2.034   9.055  0.00  0.00    +0.000 A 
ATOM     19  C   UNL     1      45.914   1.020   8.413  0.00  0.00    +0.000 A 
ATOM     20  C   UNL     1      46.554   1.272   7.199  0.00  0.00    +0.000 A 
ATOM     21  C   UNL     1      46.488   2.541   6.612  0.00  0.00    +0.000 A 
ATOM     22  C   UNL     1      45.778   3.557   7.274  0.00  0.00    +0.000 A 
BRANCH  21  23
ATOM     23  C   UNL     1      47.174   2.823   5.299  0.00  0.00    +0.000 C 
BRANCH  23  24
ATOM     24  N   UNL     1      48.524   2.269   5.271  0.00  0.00    +0.000 NA
ATOM     25  H   UNL     1      49.040   2.632   6.071  0.00  0.00    +0.000 HD
ATOM     26  H   UNL     1      49.005   2.605   4.440  0.00  0.00    +0.000 HD
ENDBRANCH  23  24
ENDBRANCH  21  23
ENDBRANCH  16  17
ENDBRANCH  15  16
ENDBRANCH  14  15
ENDBRANCH   4  14
TORSDOF 8
ENDMDL
MODEL 5
REMARK VINA RESULT:    -5.986      3.967      7.549
REMARK INTER + INTRA:          -9.798
REMARK INTER:                  -8.966
REMARK INTRA:                  -0.832
REMARK UNBOUND:                -1.187
REMARK  Name = 
REMARK  9 active torsions:
REMARK  status: ('A' for Active; 'I' for Inactive)
REMARK    1  A    between atoms: C_1  and  O_2
REMARK    2  A    between atoms: O_2  and  C_3
REMARK    3  A    between atoms: C_6  and  O_7
REMARK    4  A    between atoms: O_7  and  C_8
REMARK    5  A    between atoms: C_8  and  C_9
REMARK    6  A    between atoms: C_9  and  C_10
REMARK    7  A    between atoms: C_14  and  C_15
REMARK    8  A    between atoms: C_15  and  N_16
REMARK    9  A    between atoms: C_19  and  C_20
REMARK                            x       y       z     vdW  Elec       q    Type
REMARK                         _______ _______ _______ _____ _____    ______ ____
ROOT
ATOM      1  C   UNL     1      45.714   6.164  12.167  0.00  0.00    +0.000 A 
ATOM      2  C   UNL     1      47.039   6.591  12.289  0.00  0.00    +0.000 A 
ATOM      3  C   UNL     1      47.861   6.097  13.306  0.00  0.00    +0.000 A 
ATOM      4  C   UNL     1      47.379   5.173  14.228  0.00  0.00    +0.000 A 
ATOM      5  C   UNL     1      46.060   4.732  14.105  0.00  0.00    +0.000 A 
ATOM      6  C   UNL     1      45.218   5.210  13.079  0.00  0.00    +0.000 A 
ENDROOT
BRANCH   6   7
ATOM      7  C   UNL     1      43.840   4.625  13.020  0.00  0.00    +0.000 C 
ATOM      8  N   UNL     1      42.771   5.470  13.064  0.00  0.00    +0.000 N 
ATOM      9  O   UNL     1      43.656   3.417  12.909  0.00  0.00    +0.000 OA
ATOM     10  H   UNL     1      42.892   6.465  13.212  0.00  0.00    +0.000 HD
ATOM     11  H   UNL     1      41.841   5.079  13.029  0.00  0.00    +0.000 HD
ENDBRANCH   6   7
BRANCH   1  13
ATOM     12  C   UNL     1      44.541   8.062  11.311  0.00  0.00    +0.000 C 
ATOM     13  O   UNL     1      44.853   6.676  11.228  0.00  0.00    +0.000 OA
ENDBRANCH   1  13
BRANCH   4  14
ATOM     14  O   UNL     1      48.090   4.644  15.272  0.00  0.00    +0.000 OA
BRANCH  14  15
ATOM     15  C   UNL     1      47.448   3.600  16.014  0.00  0.00    +0.000 C 
BRANCH  15  16
ATOM     16  C   UNL     1      47.800   3.728  17.496  0.00  0.00    +0.000 C 
BRANCH  16  17
ATOM     17  C   UNL     1      49.295   3.677  17.706  0.00  0.00    +0.000 A 
ATOM     18  C   UNL     1      49.975   4.770  18.254  0.00  0.00    +0.000 A 
ATOM     19  C   UNL     1      51.349   4.699  18.494  0.00  0.00    +0.000 A 
ATOM     20  C   UNL     1      52.053   3.532  18.199  0.00  0.00    +0.000 A 
ATOM     21  C   UNL     1      51.393   2.421  17.661  0.00  0.00    +0.000 A 
ATOM     22  C   UNL     1      50.013   2.509  17.412  0.00  0.00    +0.000 A 
BRANCH  21  23
ATOM     23  C   UNL     1      52.145   1.153  17.341  0.00  0.00    +0.000 C 
BRANCH  23  24
ATOM     24  N   UNL     1      51.715   0.047  18.190  0.00  0.00    +0.000 NA
ATOM     25  H   UNL     1      52.446  -0.142  18.874  0.00  0.00    +0.000 HD
ATOM     26  H   UNL     1      51.626  -0.794  17.623  0.00  0.00    +0.000 HD
ENDBRANCH  23  24
ENDBRANCH  21  23
ENDBRANCH  16  17
ENDBRANCH  15  16
ENDBRANCH  14  15
ENDBRANCH   4  14
TORSDOF 8
ENDMDL
MODEL 6
REMARK VINA RESULT:    -5.791      2.057      2.804
REMARK INTER + INTRA:          -9.517
REMARK INTER:                  -8.597
REMARK INTRA:                  -0.920
REMARK UNBOUND:                -1.187
REMARK  Name = 
REMARK  9 active torsions:
REMARK  status: ('A' for Active; 'I' for Inactive)
REMARK    1  A    between atoms: C_1  and  O_2
REMARK    2  A    between atoms: O_2  and  C_3
REMARK    3  A    between atoms: C_6  and  O_7
REMARK    4  A    between atoms: O_7  and  C_8
REMARK    5  A    between atoms: C_8  and  C_9
REMARK    6  A    between atoms: C_9  and  C_10
REMARK    7  A    between atoms: C_14  and  C_15
REMARK    8  A    between atoms: C_15  and  N_16
REMARK    9  A    between atoms: C_19  and  C_20
REMARK                            x       y       z     vdW  Elec       q    Type
REMARK                         _______ _______ _______ _____ _____    ______ ____
ROOT
ATOM      1  C   UNL     1      47.392   8.996  12.506  0.00  0.00    +0.000 A 
ATOM      2  C   UNL     1      46.139   9.519  12.174  0.00  0.00    +0.000 A 
ATOM      3  C   UNL     1      45.028   8.683  12.028  0.00  0.00    +0.000 A 
ATOM      4  C   UNL     1      45.143   7.307  12.201  0.00  0.00    +0.000 A 
ATOM      5  C   UNL     1      46.388   6.777  12.544  0.00  0.00    +0.000 A 
ATOM      6  C   UNL     1      47.518   7.606  12.707  0.00  0.00    +0.000 A 
ENDROOT
BRANCH   6   7
ATOM      7  C   UNL     1      48.788   6.928  13.126  0.00  0.00    +0.000 C 
ATOM      8  N   UNL     1      49.868   6.999  12.297  0.00  0.00    +0.000 N 
ATOM      9  O   UNL     1      48.881   6.338  14.198  0.00  0.00    +0.000 OA
ATOM     10  H   UNL     1      49.803   7.430  11.383  0.00  0.00    +0.000 HD
ATOM     11  H   UNL     1      50.723   6.539  12.574  0.00  0.00    +0.000 HD
ENDBRANCH   6   7
BRANCH   1  13
ATOM     12  C   UNL     1      49.003  10.359  11.386  0.00  0.00    +0.000 C 
ATOM     13  O   UNL     1      48.521   9.772  12.589  0.00  0.00    +0.000 OA
ENDBRANCH   1  13
BRANCH   4  14
ATOM     14  O   UNL     1      44.128   6.398  12.060  0.00  0.00    +0.000 OA
BRANCH  14  15
ATOM     15  C   UNL     1      44.501   5.094  11.601  0.00  0.00    +0.000 C 
BRANCH  15  16
ATOM     16  C   UNL     1      43.861   4.822  10.240  0.00  0.00    +0.000 C 
BRANCH  16  17
ATOM     17  C   UNL     1      44.680   3.837   9.441  0.00  0.00    +0.000 A 
ATOM     18  C   UNL     1      44.539   2.460   9.646  0.00  0.00    +0.000 A 
ATOM     19  C   UNL     1      45.261   1.552   8.870  0.00  0.00    +0.000 A 
ATOM     20  C   UNL     1      46.123   2.011   7.873  0.00  0.00    +0.000 A 
ATOM     21  C   UNL     1      46.272   3.384   7.640  0.00  0.00    +0.000 A 
ATOM     22  C   UNL     1      45.550   4.287   8.437  0.00  0.00    +0.000 A 
BRANCH  21  23
ATOM     23  C   UNL     1      47.198   3.890   6.563  0.00  0.00    +0.000 C 
BRANCH  23  24
ATOM     24  N   UNL     1      47.075   3.103   5.339  0.00  0.00    +0.000 NA
ATOM     25  H   UNL     1      47.289   3.704   4.544  0.00  0.00    +0.000 HD
ATOM     26  H   UNL     1      46.107   2.810   5.228  0.00  0.00    +0.000 HD
ENDBRANCH  23  24
ENDBRANCH  21  23
ENDBRANCH  16  17
ENDBRANCH  15  16
ENDBRANCH  14  15
ENDBRANCH   4  14
TORSDOF 8
ENDMDL
MODEL 7
REMARK VINA RESULT:    -5.621      3.488      7.537
REMARK INTER + INTRA:          -9.273
REMARK INTER:                  -8.343
REMARK INTRA:                  -0.930
REMARK UNBOUND:                -1.187
REMARK  Name = 
REMARK  9 active torsions:
REMARK  status: ('A' for Active; 'I' for Inactive)
REMARK    1  A    between atoms: C_1  and  O_2
REMARK    2  A    between atoms: O_2  and  C_3
REMARK    3  A    between atoms: C_6  and  O_7
REMARK    4  A    between atoms: O_7  and  C_8
REMARK    5  A    between atoms: C_8  and  C_9
REMARK    6  A    between atoms: C_9  and  C_10
REMARK    7  A    between atoms: C_14  and  C_15
REMARK    8  A    between atoms: C_15  and  N_16
REMARK    9  A    between atoms: C_19  and  C_20
REMARK                            x       y       z     vdW  Elec       q    Type
REMARK                         _______ _______ _______ _____ _____    ______ ____
ROOT
ATOM      1  C   UNL     1      44.783   5.498  12.813  0.00  0.00    +0.000 A 
ATOM      2  C   UNL     1      45.545   4.512  13.447  0.00  0.00    +0.000 A 
ATOM      3  C   UNL     1      46.901   4.718  13.720  0.00  0.00    +0.000 A 
ATOM      4  C   UNL     1      47.529   5.907  13.359  0.00  0.00    +0.000 A 
ATOM      5  C   UNL     1      46.772   6.901  12.737  0.00  0.00    +0.000 A 
ATOM      6  C   UNL     1      45.401   6.716  12.463  0.00  0.00    +0.000 A 
ENDROOT
BRANCH   6   7
ATOM      7  C   UNL     1      44.683   7.873  11.837  0.00  0.00    +0.000 C 
ATOM      8  N   UNL     1      43.636   7.617  11.004  0.00  0.00    +0.000 N 
ATOM      9  O   UNL     1      45.001   9.034  12.076  0.00  0.00    +0.000 OA
ATOM     10  H   UNL     1      43.388   6.669  10.745  0.00  0.00    +0.000 HD
ATOM     11  H   UNL     1      43.154   8.394  10.577  0.00  0.00    +0.000 HD
ENDBRANCH   6   7
BRANCH   1  13
ATOM     12  C   UNL     1      43.160   4.172  11.665  0.00  0.00    +0.000 C 
ATOM     13  O   UNL     1      43.469   5.309  12.464  0.00  0.00    +0.000 OA
ENDBRANCH   1  13
BRANCH   4  14
ATOM     14  O   UNL     1      48.852   6.201  13.558  0.00  0.00    +0.000 OA
BRANCH  14  15
ATOM     15  C   UNL     1      49.137   7.471  14.156  0.00  0.00    +0.000 C 
BRANCH  15  16
ATOM     16  C   UNL     1      48.726   7.453  15.629  0.00  0.00    +0.000 C 
BRANCH  16  17
ATOM     17  C   UNL     1      49.314   6.259  16.342  0.00  0.00    +0.000 A 
ATOM     18  C   UNL     1      50.688   6.185  16.596  0.00  0.00    +0.000 A 
ATOM     19  C   UNL     1      51.220   5.104  17.301  0.00  0.00    +0.000 A 
ATOM     20  C   UNL     1      50.382   4.092  17.770  0.00  0.00    +0.000 A 
ATOM     21  C   UNL     1      49.002   4.149  17.539  0.00  0.00    +0.000 A 
ATOM     22  C   UNL     1      48.481   5.235  16.817  0.00  0.00    +0.000 A 
BRANCH  21  23
ATOM     23  C   UNL     1      48.088   3.061  18.044  0.00  0.00    +0.000 C 
BRANCH  23  24
ATOM     24  N   UNL     1      46.743   3.193  17.492  0.00  0.00    +0.000 NA
ATOM     25  H   UNL     1      46.453   2.289  17.123  0.00  0.00    +0.000 HD
ATOM     26  H   UNL     1      46.769   3.832  16.700  0.00  0.00    +0.000 HD
ENDBRANCH  23  24
ENDBRANCH  21  23
ENDBRANCH  16  17
ENDBRANCH  15  16
ENDBRANCH  14  15
ENDBRANCH   4  14
TORSDOF 8
ENDMDL
MODEL 8
REMARK VINA RESULT:    -5.503      3.463      6.304
REMARK INTER + INTRA:          -9.103
REMARK INTER:                  -8.397
REMARK INTRA:                  -0.706
REMARK UNBOUND:                -1.187
REMARK  Name = 
REMARK  9 active torsions:
REMARK  status: ('A' for Active; 'I' for Inactive)
REMARK    1  A    between atoms: C_1  and  O_2
REMARK    2  A    between atoms: O_2  and  C_3
REMARK    3  A    between atoms: C_6  and  O_7
REMARK    4  A    between atoms: O_7  and  C_8
REMARK    5  A    between atoms: C_8  and  C_9
REMARK    6  A    between atoms: C_9  and  C_10
REMARK    7  A    between atoms: C_14  and  C_15
REMARK    8  A    between atoms: C_15  and  N_16
REMARK    9  A    between atoms: C_19  and  C_20
REMARK                            x       y       z     vdW  Elec       q    Type
REMARK                         _______ _______ _______ _____ _____    ______ ____
ROOT
ATOM      1  C   UNL     1      45.282   4.690  12.737  0.00  0.00    +0.000 A 
ATOM      2  C   UNL     1      44.953   5.451  11.611  0.00  0.00    +0.000 A 
ATOM      3  C   UNL     1      45.819   6.441  11.137  0.00  0.00    +0.000 A 
ATOM      4  C   UNL     1      47.025   6.702  11.780  0.00  0.00    +0.000 A 
ATOM      5  C   UNL     1      47.366   5.938  12.898  0.00  0.00    +0.000 A 
ATOM      6  C   UNL     1      46.512   4.927  13.384  0.00  0.00    +0.000 A 
ENDROOT
BRANCH   6   7
ATOM      7  C   UNL     1      47.009   4.142  14.560  0.00  0.00    +0.000 C 
ATOM      8  N   UNL     1      46.947   4.711  15.796  0.00  0.00    +0.000 N 
ATOM      9  O   UNL     1      47.443   3.001  14.436  0.00  0.00    +0.000 OA
ATOM     10  H   UNL     1      46.647   5.670  15.920  0.00  0.00    +0.000 HD
ATOM     11  H   UNL     1      47.286   4.186  16.590  0.00  0.00    +0.000 HD
ENDBRANCH   6   7
BRANCH   1  13
ATOM     12  C   UNL     1      43.655   2.978  12.374  0.00  0.00    +0.000 C 
ATOM     13  O   UNL     1      44.430   3.758  13.277  0.00  0.00    +0.000 OA
ENDBRANCH   1  13
BRANCH   4  14
ATOM     14  O   UNL     1      47.932   7.661  11.414  0.00  0.00    +0.000 OA
BRANCH  14  15
ATOM     15  C   UNL     1      48.176   8.701  12.366  0.00  0.00    +0.000 C 
BRANCH  15  16
ATOM     16  C   UNL     1      46.855   9.146  12.996  0.00  0.00    +0.000 C 
BRANCH  16  17
ATOM     17  C   UNL     1      46.095  10.067  12.071  0.00  0.00    +0.000 A 
ATOM     18  C   UNL     1      46.765  11.051  11.337  0.00  0.00    +0.000 A 
ATOM     19  C   UNL     1      46.066  11.866  10.445  0.00  0.00    +0.000 A 
ATOM     20  C   UNL     1      44.692  11.698  10.270  0.00  0.00    +0.000 A 
ATOM     21  C   UNL     1      44.001  10.712  10.985  0.00  0.00    +0.000 A 
ATOM     22  C   UNL     1      44.714   9.907  11.889  0.00  0.00    +0.000 A 
BRANCH  21  23
ATOM     23  C   UNL     1      42.516  10.520  10.801  0.00  0.00    +0.000 C 
BRANCH  23  24
ATOM     24  N   UNL     1      42.134   9.120  10.958  0.00  0.00    +0.000 NA
ATOM     25  H   UNL     1      41.272   8.959  10.440  0.00  0.00    +0.000 HD
ATOM     26  H   UNL     1      41.920   8.941  11.937  0.00  0.00    +0.000 HD
ENDBRANCH  23  24
ENDBRANCH  21  23
ENDBRANCH  16  17
ENDBRANCH  15  16
ENDBRANCH  14  15
ENDBRANCH   4  14
TORSDOF 8
ENDMDL
MODEL 9
REMARK VINA RESULT:    -5.431      3.803      7.535
REMARK INTER + INTRA:          -8.999
REMARK INTER:                  -7.507
REMARK INTRA:                  -1.492
REMARK UNBOUND:                -1.187
REMARK  Name = 
REMARK  9 active torsions:
REMARK  status: ('A' for Active; 'I' for Inactive)
REMARK    1  A    between atoms: C_1  and  O_2
REMARK    2  A    between atoms: O_2  and  C_3
REMARK    3  A    between atoms: C_6  and  O_7
REMARK    4  A    between atoms: O_7  and  C_8
REMARK    5  A    between atoms: C_8  and  C_9
REMARK    6  A    between atoms: C_9  and  C_10
REMARK    7  A    between atoms: C_14  and  C_15
REMARK    8  A    between atoms: C_15  and  N_16
REMARK    9  A    between atoms: C_19  and  C_20
REMARK                            x       y       z     vdW  Elec       q    Type
REMARK                         _______ _______ _______ _____ _____    ______ ____
ROOT
ATOM      1  C   UNL     1      46.934   6.440  12.554  0.00  0.00    +0.000 A 
ATOM      2  C   UNL     1      47.576   7.680  12.486  0.00  0.00    +0.000 A 
ATOM      3  C   UNL     1      48.480   8.075  13.476  0.00  0.00    +0.000 A 
ATOM      4  C   UNL     1      48.757   7.247  14.561  0.00  0.00    +0.000 A 
ATOM      5  C   UNL     1      48.129   6.003  14.630  0.00  0.00    +0.000 A 
ATOM      6  C   UNL     1      47.222   5.582  13.634  0.00  0.00    +0.000 A 
ENDROOT
BRANCH   6   7
ATOM      7  C   UNL     1      46.651   4.205  13.791  0.00  0.00    +0.000 C 
ATOM      8  N   UNL     1      45.345   4.001  13.459  0.00  0.00    +0.000 N 
ATOM      9  O   UNL     1      47.333   3.265  14.186  0.00  0.00    +0.000 OA
ATOM     10  H   UNL     1      44.744   4.769  13.186  0.00  0.00    +0.000 HD
ATOM     11  H   UNL     1      44.955   3.076  13.569  0.00  0.00    +0.000 HD
ENDBRANCH   6   7
BRANCH   1  13
ATOM     12  C   UNL     1      44.940   6.959  11.344  0.00  0.00    +0.000 C 
ATOM     13  O   UNL     1      45.988   6.044  11.641  0.00  0.00    +0.000 OA
ENDBRANCH   1  13
BRANCH   4  14
ATOM     14  O   UNL     1      49.605   7.546  15.594  0.00  0.00    +0.000 OA
BRANCH  14  15
ATOM     15  C   UNL     1      48.991   7.942  16.826  0.00  0.00    +0.000 C 
BRANCH  15  16
ATOM     16  C   UNL     1      49.758   7.339  18.003  0.00  0.00    +0.000 C 
BRANCH  16  17
ATOM     17  C   UNL     1      49.918   5.846  17.840  0.00  0.00    +0.000 A 
ATOM     18  C   UNL     1      51.181   5.284  17.623  0.00  0.00    +0.000 A 
ATOM     19  C   UNL     1      51.330   3.900  17.524  0.00  0.00    +0.000 A 
ATOM     20  C   UNL     1      50.221   3.063  17.654  0.00  0.00    +0.000 A 
ATOM     21  C   UNL     1      48.949   3.601  17.884  0.00  0.00    +0.000 A 
ATOM     22  C   UNL     1      48.810   4.996  17.967  0.00  0.00    +0.000 A 
BRANCH  21  23
ATOM     23  C   UNL     1      47.745   2.705  18.028  0.00  0.00    +0.000 C 
BRANCH  23  24
ATOM     24  N   UNL     1      46.594   3.233  17.301  0.00  0.00    +0.000 NA
ATOM     25  H   UNL     1      46.748   4.225  17.127  0.00  0.00    +0.000 HD
ATOM     26  H   UNL     1      45.769   3.169  17.892  0.00  0.00    +0.000 HD
ENDBRANCH  23  24
ENDBRANCH  21  23
ENDBRANCH  16  17
ENDBRANCH  15  16
ENDBRANCH  14  15
ENDBRANCH   4  14
TORSDOF 8
ENDMDL
