MODEL 1
REMARK VINA RESULT:    -8.492      0.000      0.000
REMARK INTER + INTRA:         -12.530
REMARK INTER:                 -11.471
REMARK INTRA:                  -1.059
REMARK UNBOUND:                -1.059
REMARK  Name = 
REMARK  6 active torsions:
REMARK  status: ('A' for Active; 'I' for Inactive)
REMARK    1  A    between atoms: C_2  and  C_4
REMARK    2  A    between atoms: C_7  and  C_8
REMARK    3  A    between atoms: C_8  and  C_9
REMARK    4  A    between atoms: C_9  and  O_10
REMARK    5  A    between atoms: O_10  and  C_11
REMARK    6  A    between atoms: C_15  and  C_16
REMARK                            x       y       z     vdW  Elec       q    Type
REMARK                         _______ _______ _______ _____ _____    ______ ____
ROOT
ATOM      1  C   UNL     1      43.330   3.792  11.588  0.00  0.00    +0.000 C 
ENDROOT
BRANCH   1   2
ATOM      2  C   UNL     1      43.595   4.553  10.292  0.00  0.00    +0.000 C 
BRANCH   2   6
ATOM      3  C   UNL     1      46.446   2.493   7.784  0.00  0.00    +0.000 A 
ATOM      4  C   UNL     1      46.326   3.884   7.713  0.00  0.00    +0.000 A 
ATOM      5  C   UNL     1      45.404   4.549   8.526  0.00  0.00    +0.000 A 
ATOM      6  C   UNL     1      44.595   3.833   9.419  0.00  0.00    +0.000 A 
ATOM      7  C   UNL     1      44.696   2.435   9.459  0.00  0.00    +0.000 A 
ATOM      8  C   UNL     1      45.614   1.768   8.644  0.00  0.00    +0.000 A 
BRANCH   3  10
ATOM      9  N   UNL     1      48.482   2.460   6.449  0.00  0.00    +0.000 N 
ATOM     10  C   UNL     1      47.431   1.746   6.954  0.00  0.00    +0.000 C 
ATOM     11  O   UNL     1      47.334   0.542   6.767  0.00  0.00    +0.000 OA
ATOM     12  H   UNL     1      49.206   1.919   5.994  0.00  0.00    +0.000 HD
ATOM     13  H   UNL     1      48.730   3.375   6.799  0.00  0.00    +0.000 HD
ENDBRANCH   3  10
ENDBRANCH   2   6
ENDBRANCH   1   2
BRANCH   1  14
ATOM     14  O   UNL     1      43.505   4.679  12.697  0.00  0.00    +0.000 OA
BRANCH  14  15
ATOM     15  C   UNL     1      44.786   5.121  12.915  0.00  0.00    +0.000 A 
ATOM     16  C   UNL     1      45.862   4.321  13.295  0.00  0.00    +0.000 A 
ATOM     17  C   UNL     1      47.120   4.886  13.479  0.00  0.00    +0.000 A 
ATOM     18  C   UNL     1      47.313   6.251  13.262  0.00  0.00    +0.000 A 
ATOM     19  C   UNL     1      46.261   7.082  12.837  0.00  0.00    +0.000 A 
ATOM     20  C   UNL     1      44.988   6.493  12.707  0.00  0.00    +0.000 A 
BRANCH  19  21
ATOM     21  C   UNL     1      46.507   8.493  12.449  0.00  0.00    +0.000 A 
ATOM     22  C   UNL     1      47.818   8.949  12.214  0.00  0.00    +0.000 A 
ATOM     23  C   UNL     1      48.078  10.243  11.757  0.00  0.00    +0.000 A 
ATOM     24  C   UNL     1      47.023  11.118  11.519  0.00  0.00    +0.000 A 
ATOM     25  C   UNL     1      45.717  10.701  11.760  0.00  0.00    +0.000 A 
ATOM     26  C   UNL     1      45.462   9.407  12.229  0.00  0.00    +0.000 A 
ENDBRANCH  19  21
ENDBRANCH  14  15
ENDBRANCH   1  14
TORSDOF 6
ENDMDL
MODEL 2
REMARK VINA RESULT:    -8.377      1.925      3.936
REMARK INTER + INTRA:         -12.374
REMARK INTER:                 -11.230
REMARK INTRA:                  -1.145
REMARK UNBOUND:                -1.059
REMARK  Name = 
REMARK  6 active torsions:
REMARK  status: ('A' for Active; 'I' for Inactive)
REMARK    1  A    between atoms: C_2  and  C_4
REMARK    2  A    between atoms: C_7  and  C_8
REMARK    3  A    between atoms: C_8  and  C_9
REMARK    4  A    between atoms: C_9  and  O_10
REMARK    5  A    between atoms: O_10  and  C_11
REMARK    6  A    between atoms: C_15  and  C_16
REMARK                            x       y       z     vdW  Elec       q    Type
REMARK                         _______ _______ _______ _____ _____    ______ ____
ROOT
ATOM      1  C   UNL     1      43.563   5.179  10.821  0.00  0.00    +0.000 C 
ENDROOT
BRANCH   1   2
ATOM      2  C   UNL     1      43.724   3.669  10.657  0.00  0.00    +0.000 C 
BRANCH   2   6
ATOM      3  C   UNL     1      46.502   2.699   7.495  0.00  0.00    +0.000 A 
ATOM      4  C   UNL     1      46.096   4.023   7.690  0.00  0.00    +0.000 A 
ATOM      5  C   UNL     1      45.198   4.335   8.715  0.00  0.00    +0.000 A 
ATOM      6  C   UNL     1      44.699   3.330   9.555  0.00  0.00    +0.000 A 
ATOM      7  C   UNL     1      45.084   2.001   9.331  0.00  0.00    +0.000 A 
ATOM      8  C   UNL     1      45.977   1.686   8.304  0.00  0.00    +0.000 A 
BRANCH   3  10
ATOM      9  N   UNL     1      47.449   3.064   5.281  0.00  0.00    +0.000 N 
ATOM     10  C   UNL     1      47.475   2.324   6.431  0.00  0.00    +0.000 C 
ATOM     11  O   UNL     1      48.290   1.428   6.591  0.00  0.00    +0.000 OA
ATOM     12  H   UNL     1      48.194   2.881   4.622  0.00  0.00    +0.000 HD
ATOM     13  H   UNL     1      46.984   3.959   5.226  0.00  0.00    +0.000 HD
ENDBRANCH   3  10
ENDBRANCH   2   6
ENDBRANCH   1   2
BRANCH   1  14
ATOM     14  O   UNL     1      43.903   5.544  12.161  0.00  0.00    +0.000 OA
BRANCH  14  15
ATOM     15  C   UNL     1      45.230   5.802  12.395  0.00  0.00    +0.000 A 
ATOM     16  C   UNL     1      46.053   6.589  11.591  0.00  0.00    +0.000 A 
ATOM     17  C   UNL     1      47.386   6.785  11.937  0.00  0.00    +0.000 A 
ATOM     18  C   UNL     1      47.898   6.212  13.101  0.00  0.00    +0.000 A 
ATOM     19  C   UNL     1      47.088   5.446  13.960  0.00  0.00    +0.000 A 
ATOM     20  C   UNL     1      45.756   5.224  13.559  0.00  0.00    +0.000 A 
BRANCH  19  21
ATOM     21  C   UNL     1      47.591   4.980  15.276  0.00  0.00    +0.000 A 
ATOM     22  C   UNL     1      47.308   3.676  15.725  0.00  0.00    +0.000 A 
ATOM     23  C   UNL     1      47.842   3.174  16.914  0.00  0.00    +0.000 A 
ATOM     24  C   UNL     1      48.683   3.970  17.685  0.00  0.00    +0.000 A 
ATOM     25  C   UNL     1      48.967   5.269  17.276  0.00  0.00    +0.000 A 
ATOM     26  C   UNL     1      48.419   5.773  16.089  0.00  0.00    +0.000 A 
ENDBRANCH  19  21
ENDBRANCH  14  15
ENDBRANCH   1  14
TORSDOF 6
ENDMDL
MODEL 3
REMARK VINA RESULT:    -8.017      3.340      7.133
REMARK INTER + INTRA:         -11.888
REMARK INTER:                 -10.630
REMARK INTRA:                  -1.259
REMARK UNBOUND:                -1.059
REMARK  Name = 
REMARK  6 active torsions:
REMARK  status: ('A' for Active; 'I' for Inactive)
REMARK    1  A    between atoms: C_2  and  C_4
REMARK    2  A    between atoms: C_7  and  C_8
REMARK    3  A    between atoms: C_8  and  C_9
REMARK    4  A    between atoms: C_9  and  O_10
REMARK    5  A    between atoms: O_10  and  C_11
REMARK    6  A    between atoms: C_15  and  C_16
REMARK                            x       y       z     vdW  Elec       q    Type
REMARK                         _______ _______ _______ _____ _____    ______ ____
ROOT
ATOM      1  C   UNL     1      45.575   7.538  12.470  0.00  0.00    +0.000 C 
ENDROOT
BRANCH   1   2
ATOM      2  C   UNL     1      47.055   7.186  12.600  0.00  0.00    +0.000 C 
BRANCH   2   6
ATOM      3  C   UNL     1      47.721   4.128  15.577  0.00  0.00    +0.000 A 
ATOM      4  C   UNL     1      48.262   5.406  15.751  0.00  0.00    +0.000 A 
ATOM      5  C   UNL     1      48.044   6.394  14.787  0.00  0.00    +0.000 A 
ATOM      6  C   UNL     1      47.283   6.118  13.643  0.00  0.00    +0.000 A 
ATOM      7  C   UNL     1      46.773   4.825  13.460  0.00  0.00    +0.000 A 
ATOM      8  C   UNL     1      46.994   3.834  14.419  0.00  0.00    +0.000 A 
BRANCH   3  10
ATOM      9  N   UNL     1      46.962   2.957  17.573  0.00  0.00    +0.000 N 
ATOM     10  C   UNL     1      47.908   3.052  16.590  0.00  0.00    +0.000 C 
ATOM     11  O   UNL     1      48.836   2.260  16.524  0.00  0.00    +0.000 OA
ATOM     12  H   UNL     1      47.033   2.148  18.177  0.00  0.00    +0.000 HD
ATOM     13  H   UNL     1      46.062   3.411  17.502  0.00  0.00    +0.000 HD
ENDBRANCH   3  10
ENDBRANCH   2   6
ENDBRANCH   1   2
BRANCH   1  14
ATOM     14  O   UNL     1      45.128   7.209  11.152  0.00  0.00    +0.000 OA
BRANCH  14  15
ATOM     15  C   UNL     1      44.684   5.923  10.972  0.00  0.00    +0.000 A 
ATOM     16  C   UNL     1      43.589   5.350  11.618  0.00  0.00    +0.000 A 
ATOM     17  C   UNL     1      43.229   4.034  11.346  0.00  0.00    +0.000 A 
ATOM     18  C   UNL     1      43.949   3.291  10.409  0.00  0.00    +0.000 A 
ATOM     19  C   UNL     1      45.032   3.849   9.706  0.00  0.00    +0.000 A 
ATOM     20  C   UNL     1      45.404   5.167  10.038  0.00  0.00    +0.000 A 
BRANCH  19  21
ATOM     21  C   UNL     1      45.686   3.113   8.595  0.00  0.00    +0.000 A 
ATOM     22  C   UNL     1      46.206   3.810   7.488  0.00  0.00    +0.000 A 
ATOM     23  C   UNL     1      46.909   3.160   6.471  0.00  0.00    +0.000 A 
ATOM     24  C   UNL     1      47.114   1.786   6.541  0.00  0.00    +0.000 A 
ATOM     25  C   UNL     1      46.595   1.067   7.615  0.00  0.00    +0.000 A 
ATOM     26  C   UNL     1      45.881   1.722   8.626  0.00  0.00    +0.000 A 
ENDBRANCH  19  21
ENDBRANCH  14  15
ENDBRANCH   1  14
TORSDOF 6
ENDMDL
MODEL 4
REMARK VINA RESULT:    -7.738      1.681      2.628
REMARK INTER + INTRA:         -11.511
REMARK INTER:                 -10.532
REMARK INTRA:                  -0.979
REMARK UNBOUND:                -1.059
REMARK  Name = 
REMARK  6 active torsions:
REMARK  status: ('A' for Active; 'I' for Inactive)
REMARK    1  A    between atoms: C_2  and  C_4
REMARK    2  A    between atoms: C_7  and  C_8
REMARK    3  A    between atoms: C_8  and  C_9
REMARK    4  A    between atoms: C_9  and  O_10
REMARK    5  A    between atoms: O_10  and  C_11
REMARK    6  A    between atoms: C_15  and  C_16
REMARK                            x       y       z     vdW  Elec       q    Type
REMARK                         _______ _______ _______ _____ _____    ______ ____
ROOT
ATOM      1  C   UNL     1      44.130   4.495  11.786  0.00  0.00    +0.000 C 
ENDROOT
BRANCH   1   2
ATOM      2  C   UNL     1      43.736   4.613  10.315  0.00  0.00    +0.000 C 
BRANCH   2   6
ATOM      3  C   UNL     1      46.472   2.472   7.748  0.00  0.00    +0.000 A 
ATOM      4  C   UNL     1      46.394   3.866   7.682  0.00  0.00    +0.000 A 
ATOM      5  C   UNL     1      45.509   4.557   8.514  0.00  0.00    +0.000 A 
ATOM      6  C   UNL     1      44.696   3.864   9.421  0.00  0.00    +0.000 A 
ATOM      7  C   UNL     1      44.755   2.464   9.457  0.00  0.00    +0.000 A 
ATOM      8  C   UNL     1      45.635   1.770   8.623  0.00  0.00    +0.000 A 
BRANCH   3  10
ATOM      9  N   UNL     1      48.512   2.365   6.422  0.00  0.00    +0.000 N 
ATOM     10  C   UNL     1      47.417   1.697   6.897  0.00  0.00    +0.000 C 
ATOM     11  O   UNL     1      47.251   0.508   6.668  0.00  0.00    +0.000 OA
ATOM     12  H   UNL     1      49.206   1.798   5.952  0.00  0.00    +0.000 HD
ATOM     13  H   UNL     1      48.811   3.251   6.804  0.00  0.00    +0.000 HD
ENDBRANCH   3  10
ENDBRANCH   2   6
ENDBRANCH   1   2
BRANCH   1  14
ATOM     14  O   UNL     1      45.517   4.812  11.927  0.00  0.00    +0.000 OA
BRANCH  14  15
ATOM     15  C   UNL     1      45.810   6.132  12.163  0.00  0.00    +0.000 A 
ATOM     16  C   UNL     1      44.896   7.100  12.574  0.00  0.00    +0.000 A 
ATOM     17  C   UNL     1      45.315   8.409  12.789  0.00  0.00    +0.000 A 
ATOM     18  C   UNL     1      46.657   8.751  12.617  0.00  0.00    +0.000 A 
ATOM     19  C   UNL     1      47.616   7.792  12.245  0.00  0.00    +0.000 A 
ATOM     20  C   UNL     1      47.155   6.487  11.986  0.00  0.00    +0.000 A 
BRANCH  19  21
ATOM     21  C   UNL     1      49.063   8.123  12.226  0.00  0.00    +0.000 A 
ATOM     22  C   UNL     1      49.667   8.744  13.336  0.00  0.00    +0.000 A 
ATOM     23  C   UNL     1      51.042   8.984  13.388  0.00  0.00    +0.000 A 
ATOM     24  C   UNL     1      51.852   8.601  12.325  0.00  0.00    +0.000 A 
ATOM     25  C   UNL     1      51.281   8.002  11.206  0.00  0.00    +0.000 A 
ATOM     26  C   UNL     1      49.901   7.774  11.152  0.00  0.00    +0.000 A 
ENDBRANCH  19  21
ENDBRANCH  14  15
ENDBRANCH   1  14
TORSDOF 6
ENDMDL
MODEL 5
REMARK VINA RESULT:    -7.443      1.171      1.606
REMARK INTER + INTRA:         -11.112
REMARK INTER:                 -10.337
REMARK INTRA:                  -0.776
REMARK UNBOUND:                -1.059
REMARK  Name = 
REMARK  6 active torsions:
REMARK  status: ('A' for Active; 'I' for Inactive)
REMARK    1  A    between atoms: C_2  and  C_4
REMARK    2  A    between atoms: C_7  and  C_8
REMARK    3  A    between atoms: C_8  and  C_9
REMARK    4  A    between atoms: C_9  and  O_10
REMARK    5  A    between atoms: O_10  and  C_11
REMARK    6  A    between atoms: C_15  and  C_16
REMARK                            x       y       z     vdW  Elec       q    Type
REMARK                         _______ _______ _______ _____ _____    ______ ____
ROOT
ATOM      1  C   UNL     1      44.149   4.157  11.948  0.00  0.00    +0.000 C 
ENDROOT
BRANCH   1   2
ATOM      2  C   UNL     1      43.487   3.772  10.627  0.00  0.00    +0.000 C 
BRANCH   2   6
ATOM      3  C   UNL     1      46.405   2.716   7.622  0.00  0.00    +0.000 A 
ATOM      4  C   UNL     1      45.962   4.038   7.735  0.00  0.00    +0.000 A 
ATOM      5  C   UNL     1      45.019   4.377   8.709  0.00  0.00    +0.000 A 
ATOM      6  C   UNL     1      44.511   3.403   9.580  0.00  0.00    +0.000 A 
ATOM      7  C   UNL     1      44.934   2.075   9.437  0.00  0.00    +0.000 A 
ATOM      8  C   UNL     1      45.873   1.731   8.461  0.00  0.00    +0.000 A 
BRANCH   3  10
ATOM      9  N   UNL     1      47.515   3.079   5.485  0.00  0.00    +0.000 N 
ATOM     10  C   UNL     1      47.426   2.314   6.614  0.00  0.00    +0.000 C 
ATOM     11  O   UNL     1      48.181   1.373   6.804  0.00  0.00    +0.000 OA
ATOM     12  H   UNL     1      48.292   2.871   4.870  0.00  0.00    +0.000 HD
ATOM     13  H   UNL     1      47.101   3.999   5.422  0.00  0.00    +0.000 HD
ENDBRANCH   3  10
ENDBRANCH   2   6
ENDBRANCH   1   2
BRANCH   1  14
ATOM     14  O   UNL     1      45.546   4.372  11.728  0.00  0.00    +0.000 OA
BRANCH  14  15
ATOM     15  C   UNL     1      46.067   5.524  12.261  0.00  0.00    +0.000 A 
ATOM     16  C   UNL     1      47.174   5.593  13.105  0.00  0.00    +0.000 A 
ATOM     17  C   UNL     1      47.616   6.825  13.577  0.00  0.00    +0.000 A 
ATOM     18  C   UNL     1      46.964   7.997  13.190  0.00  0.00    +0.000 A 
ATOM     19  C   UNL     1      45.870   7.970  12.306  0.00  0.00    +0.000 A 
ATOM     20  C   UNL     1      45.415   6.706  11.883  0.00  0.00    +0.000 A 
BRANCH  19  21
ATOM     21  C   UNL     1      45.288   9.225  11.768  0.00  0.00    +0.000 A 
ATOM     22  C   UNL     1      45.951  10.454  11.951  0.00  0.00    +0.000 A 
ATOM     23  C   UNL     1      45.480  11.638  11.379  0.00  0.00    +0.000 A 
ATOM     24  C   UNL     1      44.328  11.619  10.600  0.00  0.00    +0.000 A 
ATOM     25  C   UNL     1      43.641  10.423  10.415  0.00  0.00    +0.000 A 
ATOM     26  C   UNL     1      44.110   9.240  11.001  0.00  0.00    +0.000 A 
ENDBRANCH  19  21
ENDBRANCH  14  15
ENDBRANCH   1  14
TORSDOF 6
ENDMDL
MODEL 6
REMARK VINA RESULT:    -7.425      2.914      7.064
REMARK INTER + INTRA:         -11.088
REMARK INTER:                 -10.203
REMARK INTRA:                  -0.885
REMARK UNBOUND:                -1.059
REMARK  Name = 
REMARK  6 active torsions:
REMARK  status: ('A' for Active; 'I' for Inactive)
REMARK    1  A    between atoms: C_2  and  C_4
REMARK    2  A    between atoms: C_7  and  C_8
REMARK    3  A    between atoms: C_8  and  C_9
REMARK    4  A    between atoms: C_9  and  O_10
REMARK    5  A    between atoms: O_10  and  C_11
REMARK    6  A    between atoms: C_15  and  C_16
REMARK                            x       y       z     vdW  Elec       q    Type
REMARK                         _______ _______ _______ _____ _____    ______ ____
ROOT
ATOM      1  C   UNL     1      45.105   6.830  12.563  0.00  0.00    +0.000 C 
ENDROOT
BRANCH   1   2
ATOM      2  C   UNL     1      45.537   8.288  12.429  0.00  0.00    +0.000 C 
BRANCH   2   6
ATOM      3  C   UNL     1      49.761   8.624  11.594  0.00  0.00    +0.000 A 
ATOM      4  C   UNL     1      49.173   7.363  11.736  0.00  0.00    +0.000 A 
ATOM      5  C   UNL     1      47.806   7.257  12.005  0.00  0.00    +0.000 A 
ATOM      6  C   UNL     1      47.013   8.406  12.132  0.00  0.00    +0.000 A 
ATOM      7  C   UNL     1      47.617   9.666  12.022  0.00  0.00    +0.000 A 
ATOM      8  C   UNL     1      48.985   9.775  11.758  0.00  0.00    +0.000 A 
BRANCH   3  10
ATOM      9  N   UNL     1      51.993   7.668  11.393  0.00  0.00    +0.000 N 
ATOM     10  C   UNL     1      51.209   8.784  11.283  0.00  0.00    +0.000 C 
ATOM     11  O   UNL     1      51.673   9.849  10.904  0.00  0.00    +0.000 OA
ATOM     12  H   UNL     1      52.944   7.761  11.061  0.00  0.00    +0.000 HD
ATOM     13  H   UNL     1      51.602   6.738  11.441  0.00  0.00    +0.000 HD
ENDBRANCH   3  10
ENDBRANCH   2   6
ENDBRANCH   1   2
BRANCH   1  14
ATOM     14  O   UNL     1      44.250   6.491  11.467  0.00  0.00    +0.000 OA
BRANCH  14  15
ATOM     15  C   UNL     1      44.137   5.153  11.186  0.00  0.00    +0.000 A 
ATOM     16  C   UNL     1      43.276   4.264  11.827  0.00  0.00    +0.000 A 
ATOM     17  C   UNL     1      43.245   2.926  11.447  0.00  0.00    +0.000 A 
ATOM     18  C   UNL     1      44.059   2.475  10.408  0.00  0.00    +0.000 A 
ATOM     19  C   UNL     1      44.910   3.351   9.709  0.00  0.00    +0.000 A 
ATOM     20  C   UNL     1      44.956   4.689  10.148  0.00  0.00    +0.000 A 
BRANCH  19  21
ATOM     21  C   UNL     1      45.647   2.903   8.501  0.00  0.00    +0.000 A 
ATOM     22  C   UNL     1      45.968   3.821   7.483  0.00  0.00    +0.000 A 
ATOM     23  C   UNL     1      46.740   3.454   6.378  0.00  0.00    +0.000 A 
ATOM     24  C   UNL     1      47.217   2.153   6.268  0.00  0.00    +0.000 A 
ATOM     25  C   UNL     1      46.900   1.219   7.250  0.00  0.00    +0.000 A 
ATOM     26  C   UNL     1      46.115   1.587   8.350  0.00  0.00    +0.000 A 
ENDBRANCH  19  21
ENDBRANCH  14  15
ENDBRANCH   1  14
TORSDOF 6
ENDMDL
MODEL 7
REMARK VINA RESULT:    -7.086      4.556      8.484
REMARK INTER + INTRA:         -10.631
REMARK INTER:                  -9.926
REMARK INTRA:                  -0.705
REMARK UNBOUND:                -1.059
REMARK  Name = 
REMARK  6 active torsions:
REMARK  status: ('A' for Active; 'I' for Inactive)
REMARK    1  A    between atoms: C_2  and  C_4
REMARK    2  A    between atoms: C_7  and  C_8
REMARK    3  A    between atoms: C_8  and  C_9
REMARK    4  A    between atoms: C_9  and  O_10
REMARK    5  A    between atoms: O_10  and  C_11
REMARK    6  A    between atoms: C_15  and  C_16
REMARK                            x       y       z     vdW  Elec       q    Type
REMARK                         _______ _______ _______ _____ _____    ______ ____
ROOT
ATOM      1  C   UNL     1      46.540   4.713  14.144  0.00  0.00    +0.000 C 
ENDROOT
BRANCH   1   2
ATOM      2  C   UNL     1      47.414   3.628  14.768  0.00  0.00    +0.000 C 
BRANCH   2   6
ATOM      3  C   UNL     1      48.408   4.560  18.867  0.00  0.00    +0.000 A 
ATOM      4  C   UNL     1      47.974   3.275  18.525  0.00  0.00    +0.000 A 
ATOM      5  C   UNL     1      47.654   2.976  17.198  0.00  0.00    +0.000 A 
ATOM      6  C   UNL     1      47.766   3.953  16.200  0.00  0.00    +0.000 A 
ATOM      7  C   UNL     1      48.169   5.247  16.557  0.00  0.00    +0.000 A 
ATOM      8  C   UNL     1      48.484   5.551  17.883  0.00  0.00    +0.000 A 
BRANCH   3  10
ATOM      9  N   UNL     1      49.285   6.172  20.468  0.00  0.00    +0.000 N 
ATOM     10  C   UNL     1      48.781   4.917  20.264  0.00  0.00    +0.000 C 
ATOM     11  O   UNL     1      48.606   4.145  21.194  0.00  0.00    +0.000 OA
ATOM     12  H   UNL     1      49.417   6.443  21.434  0.00  0.00    +0.000 HD
ATOM     13  H   UNL     1      49.192   6.908  19.783  0.00  0.00    +0.000 HD
ENDBRANCH   3  10
ENDBRANCH   2   6
ENDBRANCH   1   2
BRANCH   1  14
ATOM     14  O   UNL     1      45.188   4.249  14.084  0.00  0.00    +0.000 OA
BRANCH  14  15
ATOM     15  C   UNL     1      44.533   4.462  12.897  0.00  0.00    +0.000 A 
ATOM     16  C   UNL     1      43.405   5.265  12.731  0.00  0.00    +0.000 A 
ATOM     17  C   UNL     1      42.832   5.411  11.472  0.00  0.00    +0.000 A 
ATOM     18  C   UNL     1      43.397   4.772  10.368  0.00  0.00    +0.000 A 
ATOM     19  C   UNL     1      44.558   3.988  10.489  0.00  0.00    +0.000 A 
ATOM     20  C   UNL     1      45.089   3.819  11.783  0.00  0.00    +0.000 A 
BRANCH  19  21
ATOM     21  C   UNL     1      45.248   3.449   9.290  0.00  0.00    +0.000 A 
ATOM     22  C   UNL     1      45.788   4.322   8.326  0.00  0.00    +0.000 A 
ATOM     23  C   UNL     1      46.523   3.852   7.235  0.00  0.00    +0.000 A 
ATOM     24  C   UNL     1      46.742   2.486   7.085  0.00  0.00    +0.000 A 
ATOM     25  C   UNL     1      46.206   1.598   8.013  0.00  0.00    +0.000 A 
ATOM     26  C   UNL     1      45.458   2.073   9.098  0.00  0.00    +0.000 A 
ENDBRANCH  19  21
ENDBRANCH  14  15
ENDBRANCH   1  14
TORSDOF 6
ENDMDL
MODEL 8
REMARK VINA RESULT:    -6.852      3.789      7.513
REMARK INTER + INTRA:         -10.314
REMARK INTER:                  -9.030
REMARK INTRA:                  -1.284
REMARK UNBOUND:                -1.059
REMARK  Name = 
REMARK  6 active torsions:
REMARK  status: ('A' for Active; 'I' for Inactive)
REMARK    1  A    between atoms: C_2  and  C_4
REMARK    2  A    between atoms: C_7  and  C_8
REMARK    3  A    between atoms: C_8  and  C_9
REMARK    4  A    between atoms: C_9  and  O_10
REMARK    5  A    between atoms: O_10  and  C_11
REMARK    6  A    between atoms: C_15  and  C_16
REMARK                            x       y       z     vdW  Elec       q    Type
REMARK                         _______ _______ _______ _____ _____    ______ ____
ROOT
ATOM      1  C   UNL     1      49.448   7.200  12.907  0.00  0.00    +0.000 C 
ENDROOT
BRANCH   1   2
ATOM      2  C   UNL     1      49.291   7.652  14.357  0.00  0.00    +0.000 C 
BRANCH   2   6
ATOM      3  C   UNL     1      47.971   4.422  16.903  0.00  0.00    +0.000 A 
ATOM      4  C   UNL     1      47.359   4.632  15.663  0.00  0.00    +0.000 A 
ATOM      5  C   UNL     1      47.789   5.677  14.841  0.00  0.00    +0.000 A 
ATOM      6  C   UNL     1      48.833   6.520  15.245  0.00  0.00    +0.000 A 
ATOM      7  C   UNL     1      49.417   6.324  16.504  0.00  0.00    +0.000 A 
ATOM      8  C   UNL     1      48.987   5.283  17.331  0.00  0.00    +0.000 A 
BRANCH   3  10
ATOM      9  N   UNL     1      48.317   3.107  18.924  0.00  0.00    +0.000 N 
ATOM     10  C   UNL     1      47.562   3.307  17.802  0.00  0.00    +0.000 C 
ATOM     11  O   UNL     1      46.571   2.628  17.575  0.00  0.00    +0.000 OA
ATOM     12  H   UNL     1      47.957   2.431  19.585  0.00  0.00    +0.000 HD
ATOM     13  H   UNL     1      48.963   3.803  19.270  0.00  0.00    +0.000 HD
ENDBRANCH   3  10
ENDBRANCH   2   6
ENDBRANCH   1   2
BRANCH   1  14
ATOM     14  O   UNL     1      48.728   8.096  12.056  0.00  0.00    +0.000 OA
BRANCH  14  15
ATOM     15  C   UNL     1      47.375   7.883  11.967  0.00  0.00    +0.000 A 
ATOM     16  C   UNL     1      46.389   8.781  12.370  0.00  0.00    +0.000 A 
ATOM     17  C   UNL     1      45.044   8.454  12.223  0.00  0.00    +0.000 A 
ATOM     18  C   UNL     1      44.680   7.235  11.650  0.00  0.00    +0.000 A 
ATOM     19  C   UNL     1      45.646   6.321  11.192  0.00  0.00    +0.000 A 
ATOM     20  C   UNL     1      46.999   6.657  11.400  0.00  0.00    +0.000 A 
BRANCH  19  21
ATOM     21  C   UNL     1      45.255   5.106  10.436  0.00  0.00    +0.000 A 
ATOM     22  C   UNL     1      45.612   4.964   9.081  0.00  0.00    +0.000 A 
ATOM     23  C   UNL     1      45.341   3.796   8.366  0.00  0.00    +0.000 A 
ATOM     24  C   UNL     1      44.707   2.730   8.995  0.00  0.00    +0.000 A 
ATOM     25  C   UNL     1      44.327   2.847  10.329  0.00  0.00    +0.000 A 
ATOM     26  C   UNL     1      44.589   4.026  11.039  0.00  0.00    +0.000 A 
ENDBRANCH  19  21
ENDBRANCH  14  15
ENDBRANCH   1  14
TORSDOF 6
ENDMDL
MODEL 9
REMARK VINA RESULT:    -6.683      2.983      6.796
REMARK INTER + INTRA:         -10.086
REMARK INTER:                  -9.186
REMARK INTRA:                  -0.900
REMARK UNBOUND:                -1.059
REMARK  Name = 
REMARK  6 active torsions:
REMARK  status: ('A' for Active; 'I' for Inactive)
REMARK    1  A    between atoms: C_2  and  C_4
REMARK    2  A    between atoms: C_7  and  C_8
REMARK    3  A    between atoms: C_8  and  C_9
REMARK    4  A    between atoms: C_9  and  O_10
REMARK    5  A    between atoms: O_10  and  C_11
REMARK    6  A    between atoms: C_15  and  C_16
REMARK                            x       y       z     vdW  Elec       q    Type
REMARK                         _______ _______ _______ _____ _____    ______ ____
ROOT
ATOM      1  C   UNL     1      45.068   7.409  12.058  0.00  0.00    +0.000 C 
ENDROOT
BRANCH   1   2
ATOM      2  C   UNL     1      45.825   8.515  12.789  0.00  0.00    +0.000 C 
BRANCH   2   6
ATOM      3  C   UNL     1      49.950   8.711  11.521  0.00  0.00    +0.000 A 
ATOM      4  C   UNL     1      49.158   9.864  11.512  0.00  0.00    +0.000 A 
ATOM      5  C   UNL     1      47.824   9.798  11.924  0.00  0.00    +0.000 A 
ATOM      6  C   UNL     1      47.269   8.584  12.350  0.00  0.00    +0.000 A 
ATOM      7  C   UNL     1      48.059   7.427  12.323  0.00  0.00    +0.000 A 
ATOM      8  C   UNL     1      49.392   7.488  11.907  0.00  0.00    +0.000 A 
BRANCH   3  10
ATOM      9  N   UNL     1      52.150   7.667  11.475  0.00  0.00    +0.000 N 
ATOM     10  C   UNL     1      51.382   8.739  11.113  0.00  0.00    +0.000 C 
ATOM     11  O   UNL     1      51.844   9.653  10.446  0.00  0.00    +0.000 OA
ATOM     12  H   UNL     1      53.084   7.641  11.087  0.00  0.00    +0.000 HD
ATOM     13  H   UNL     1      51.746   6.794  11.784  0.00  0.00    +0.000 HD
ENDBRANCH   3  10
ENDBRANCH   2   6
ENDBRANCH   1   2
BRANCH   1  14
ATOM     14  O   UNL     1      44.957   6.270  12.915  0.00  0.00    +0.000 OA
BRANCH  14  15
ATOM     15  C   UNL     1      44.553   5.104  12.315  0.00  0.00    +0.000 A 
ATOM     16  C   UNL     1      43.485   4.311  12.732  0.00  0.00    +0.000 A 
ATOM     17  C   UNL     1      43.164   3.150  12.035  0.00  0.00    +0.000 A 
ATOM     18  C   UNL     1      43.897   2.788  10.904  0.00  0.00    +0.000 A 
ATOM     19  C   UNL     1      44.954   3.585  10.429  0.00  0.00    +0.000 A 
ATOM     20  C   UNL     1      45.287   4.728  11.182  0.00  0.00    +0.000 A 
BRANCH  19  21
ATOM     21  C   UNL     1      45.620   3.286   9.136  0.00  0.00    +0.000 A 
ATOM     22  C   UNL     1      45.868   1.954   8.754  0.00  0.00    +0.000 A 
ATOM     23  C   UNL     1      46.407   1.633   7.506  0.00  0.00    +0.000 A 
ATOM     24  C   UNL     1      46.708   2.645   6.602  0.00  0.00    +0.000 A 
ATOM     25  C   UNL     1      46.491   3.973   6.958  0.00  0.00    +0.000 A 
ATOM     26  C   UNL     1      45.962   4.291   8.215  0.00  0.00    +0.000 A 
ENDBRANCH  19  21
ENDBRANCH  14  15
ENDBRANCH   1  14
TORSDOF 6
ENDMDL
