MODEL 1
REMARK VINA RESULT:    -8.715      0.000      0.000
REMARK INTER + INTRA:         -14.171
REMARK INTER:                 -13.300
REMARK INTRA:                  -0.871
REMARK UNBOUND:                -0.871
REMARK  Name = 
REMARK  10 active torsions:
REMARK  status: ('A' for Active; 'I' for Inactive)
REMARK    1  A    between atoms: C_1  and  O_2
REMARK    2  A    between atoms: O_2  and  C_3
REMARK    3  A    between atoms: C_3  and  C_4
REMARK    4  A    between atoms: C_4  and  N_5
REMARK    5  A    between atoms: C_4  and  C_13
REMARK    6  A    between atoms: N_5  and  C_6
REMARK    7  A    between atoms: C_6  and  C_7
REMARK    8  A    between atoms: C_16  and  C_17
REMARK    9  A    between atoms: C_17  and  N_18
REMARK   10  A    between atoms: C_19  and  C_21
REMARK                            x       y       z     vdW  Elec       q    Type
REMARK                         _______ _______ _______ _____ _____    ______ ____
ROOT
ATOM      1  C   UNL     1      45.531   4.629  11.981  0.00  0.00    +0.000 A 
ATOM      2  C   UNL     1      46.089   5.770  11.373  0.00  0.00    +0.000 A 
ATOM      3  C   UNL     1      47.066   6.528  12.025  0.00  0.00    +0.000 A 
ATOM      4  C   UNL     1      47.556   6.129  13.273  0.00  0.00    +0.000 A 
ATOM      5  C   UNL     1      47.007   4.998  13.884  0.00  0.00    +0.000 A 
ATOM      6  C   UNL     1      45.999   4.268  13.255  0.00  0.00    +0.000 A 
ENDROOT
BRANCH   1   7
ATOM      7  C   UNL     1      44.378   3.884  11.300  0.00  0.00    +0.000 C 
BRANCH   7   8
ATOM      8  N   UNL     1      44.836   2.608  10.693  0.00  0.00    +0.000 NA
ATOM      9  H   UNL     1      44.445   1.827  11.213  0.00  0.00    +0.000 HD
BRANCH   8  10
ATOM     10  C   UNL     1      44.444   2.497   9.285  0.00  0.00    +0.000 C 
BRANCH  10  11
ATOM     11  C   UNL     1      45.590   2.484   8.301  0.00  0.00    +0.000 A 
ATOM     12  C   UNL     1      46.327   1.297   8.139  0.00  0.00    +0.000 A 
ATOM     13  C   UNL     1      47.327   1.201   7.173  0.00  0.00    +0.000 A 
ATOM     14  C   UNL     1      47.596   2.294   6.349  0.00  0.00    +0.000 A 
ATOM     15  C   UNL     1      46.871   3.474   6.497  0.00  0.00    +0.000 A 
ATOM     16  C   UNL     1      45.867   3.569   7.463  0.00  0.00    +0.000 A 
ENDBRANCH  10  11
ENDBRANCH   8  10
ENDBRANCH   7   8
BRANCH   7  17
ATOM     17  C   UNL     1      43.679   4.805  10.251  0.00  0.00    +0.000 C 
BRANCH  17  19
ATOM     18  C   UNL     1      42.373   5.329  12.133  0.00  0.00    +0.000 C 
ATOM     19  O   UNL     1      42.789   5.761  10.839  0.00  0.00    +0.000 OA
ENDBRANCH  17  19
ENDBRANCH   7  17
ENDBRANCH   1   7
BRANCH   4  20
ATOM     20  C   UNL     1      48.626   6.913  13.979  0.00  0.00    +0.000 C 
BRANCH  20  21
ATOM     21  N   UNL     1      48.316   7.086  15.374  0.00  0.00    +0.000 N 
ATOM     22  C   UNL     1      49.199   6.677  16.338  0.00  0.00    +0.000 C 
ATOM     23  O   UNL     1      50.293   6.196  16.053  0.00  0.00    +0.000 OA
ATOM     24  H   UNL     1      47.347   7.258  15.622  0.00  0.00    +0.000 HD
BRANCH  22  25
ATOM     25  C   UNL     1      48.803   6.895  17.733  0.00  0.00    +0.000 A 
ATOM     26  C   UNL     1      48.484   8.177  18.160  0.00  0.00    +0.000 A 
ATOM     27  S   UNL     1      47.992   8.254  19.789  0.00  0.00    +0.000 S 
ATOM     28  C   UNL     1      48.239   6.583  19.998  0.00  0.00    +0.000 A 
ATOM     29  N   UNL     1      48.019   5.990  21.201  0.00  0.00    +0.000 NA
ATOM     30  C   UNL     1      48.274   4.727  21.229  0.00  0.00    +0.000 A 
ATOM     31  N   UNL     1      48.727   3.998  20.159  0.00  0.00    +0.000 N 
ATOM     32  C   UNL     1      48.937   4.546  18.915  0.00  0.00    +0.000 A 
ATOM     33  O   UNL     1      49.308   3.857  17.971  0.00  0.00    +0.000 OA
ATOM     34  C   UNL     1      48.674   5.972  18.836  0.00  0.00    +0.000 A 
ATOM     35  H   UNL     1      48.901   3.008  20.247  0.00  0.00    +0.000 HD
ENDBRANCH  22  25
ENDBRANCH  20  21
ENDBRANCH   4  20
TORSDOF 9
ENDMDL
MODEL 2
REMARK VINA RESULT:    -8.526      1.501      2.275
REMARK INTER + INTRA:         -13.883
REMARK INTER:                 -12.593
REMARK INTRA:                  -1.290
REMARK UNBOUND:                -0.871
REMARK  Name = 
REMARK  10 active torsions:
REMARK  status: ('A' for Active; 'I' for Inactive)
REMARK    1  A    between atoms: C_1  and  O_2
REMARK    2  A    between atoms: O_2  and  C_3
REMARK    3  A    between atoms: C_3  and  C_4
REMARK    4  A    between atoms: C_4  and  N_5
REMARK    5  A    between atoms: C_4  and  C_13
REMARK    6  A    between atoms: N_5  and  C_6
REMARK    7  A    between atoms: C_6  and  C_7
REMARK    8  A    between atoms: C_16  and  C_17
REMARK    9  A    between atoms: C_17  and  N_18
REMARK   10  A    between atoms: C_19  and  C_21
REMARK                            x       y       z     vdW  Elec       q    Type
REMARK                         _______ _______ _______ _____ _____    ______ ____
ROOT
ATOM      1  C   UNL     1      45.881   5.374  11.745  0.00  0.00    +0.000 A 
ATOM      2  C   UNL     1      46.120   4.807  13.011  0.00  0.00    +0.000 A 
ATOM      3  C   UNL     1      47.083   5.345  13.870  0.00  0.00    +0.000 A 
ATOM      4  C   UNL     1      47.783   6.501  13.512  0.00  0.00    +0.000 A 
ATOM      5  C   UNL     1      47.552   7.071  12.258  0.00  0.00    +0.000 A 
ATOM      6  C   UNL     1      46.626   6.507  11.380  0.00  0.00    +0.000 A 
ENDROOT
BRANCH   1   7
ATOM      7  C   UNL     1      44.909   4.696  10.773  0.00  0.00    +0.000 C 
BRANCH   7   8
ATOM      8  N   UNL     1      45.172   5.101   9.367  0.00  0.00    +0.000 NA
ATOM      9  H   UNL     1      46.172   5.232   9.235  0.00  0.00    +0.000 HD
BRANCH   8  10
ATOM     10  C   UNL     1      44.684   4.106   8.409  0.00  0.00    +0.000 C 
BRANCH  10  11
ATOM     11  C   UNL     1      45.735   3.162   7.874  0.00  0.00    +0.000 A 
ATOM     12  C   UNL     1      45.774   1.845   8.369  0.00  0.00    +0.000 A 
ATOM     13  C   UNL     1      46.656   0.907   7.837  0.00  0.00    +0.000 A 
ATOM     14  C   UNL     1      47.508   1.274   6.795  0.00  0.00    +0.000 A 
ATOM     15  C   UNL     1      47.477   2.573   6.294  0.00  0.00    +0.000 A 
ATOM     16  C   UNL     1      46.590   3.513   6.825  0.00  0.00    +0.000 A 
ENDBRANCH  10  11
ENDBRANCH   8  10
ENDBRANCH   7   8
BRANCH   7  17
ATOM     17  C   UNL     1      43.432   4.984  11.190  0.00  0.00    +0.000 C 
BRANCH  17  19
ATOM     18  C   UNL     1      43.340   2.694  11.708  0.00  0.00    +0.000 C 
ATOM     19  O   UNL     1      42.890   3.996  12.074  0.00  0.00    +0.000 OA
ENDBRANCH  17  19
ENDBRANCH   7  17
ENDBRANCH   1   7
BRANCH   4  20
ATOM     20  C   UNL     1      48.802   7.114  14.433  0.00  0.00    +0.000 C 
BRANCH  20  21
ATOM     21  N   UNL     1      48.504   6.825  15.811  0.00  0.00    +0.000 N 
ATOM     22  C   UNL     1      49.456   6.273  16.627  0.00  0.00    +0.000 C 
ATOM     23  O   UNL     1      50.597   6.048  16.232  0.00  0.00    +0.000 OA
ATOM     24  H   UNL     1      47.527   6.785  16.082  0.00  0.00    +0.000 HD
BRANCH  22  25
ATOM     25  C   UNL     1      49.067   6.015  18.017  0.00  0.00    +0.000 A 
ATOM     26  C   UNL     1      49.284   4.758  18.566  0.00  0.00    +0.000 A 
ATOM     27  S   UNL     1      48.830   4.637  20.203  0.00  0.00    +0.000 S 
ATOM     28  C   UNL     1      48.279   6.247  20.224  0.00  0.00    +0.000 A 
ATOM     29  N   UNL     1      47.734   6.783  21.348  0.00  0.00    +0.000 NA
ATOM     30  C   UNL     1      47.330   8.000  21.217  0.00  0.00    +0.000 A 
ATOM     31  N   UNL     1      47.424   8.735  20.063  0.00  0.00    +0.000 N 
ATOM     32  C   UNL     1      47.993   8.247  18.911  0.00  0.00    +0.000 A 
ATOM     33  O   UNL     1      48.094   8.945  17.906  0.00  0.00    +0.000 OA
ATOM     34  C   UNL     1      48.454   6.874  19.003  0.00  0.00    +0.000 A 
ATOM     35  H   UNL     1      47.094   9.689  20.030  0.00  0.00    +0.000 HD
ENDBRANCH  22  25
ENDBRANCH  20  21
ENDBRANCH   4  20
TORSDOF 9
ENDMDL
MODEL 3
REMARK VINA RESULT:    -8.275      1.526      1.884
REMARK INTER + INTRA:         -13.499
REMARK INTER:                 -12.247
REMARK INTRA:                  -1.253
REMARK UNBOUND:                -0.871
REMARK  Name = 
REMARK  10 active torsions:
REMARK  status: ('A' for Active; 'I' for Inactive)
REMARK    1  A    between atoms: C_1  and  O_2
REMARK    2  A    between atoms: O_2  and  C_3
REMARK    3  A    between atoms: C_3  and  C_4
REMARK    4  A    between atoms: C_4  and  N_5
REMARK    5  A    between atoms: C_4  and  C_13
REMARK    6  A    between atoms: N_5  and  C_6
REMARK    7  A    between atoms: C_6  and  C_7
REMARK    8  A    between atoms: C_16  and  C_17
REMARK    9  A    between atoms: C_17  and  N_18
REMARK   10  A    between atoms: C_19  and  C_21
REMARK                            x       y       z     vdW  Elec       q    Type
REMARK                         _______ _______ _______ _____ _____    ______ ____
ROOT
ATOM      1  C   UNL     1      45.571   5.997  11.678  0.00  0.00    +0.000 A 
ATOM      2  C   UNL     1      46.737   5.651  12.385  0.00  0.00    +0.000 A 
ATOM      3  C   UNL     1      47.433   6.602  13.137  0.00  0.00    +0.000 A 
ATOM      4  C   UNL     1      46.944   7.907  13.253  0.00  0.00    +0.000 A 
ATOM      5  C   UNL     1      45.787   8.260  12.554  0.00  0.00    +0.000 A 
ATOM      6  C   UNL     1      45.118   7.324  11.765  0.00  0.00    +0.000 A 
ENDROOT
BRANCH   1   7
ATOM      7  C   UNL     1      44.894   4.969  10.764  0.00  0.00    +0.000 C 
BRANCH   7   8
ATOM      8  N   UNL     1      45.260   5.182   9.340  0.00  0.00    +0.000 NA
ATOM      9  H   UNL     1      46.272   5.205   9.250  0.00  0.00    +0.000 HD
BRANCH   8  10
ATOM     10  C   UNL     1      44.721   4.131   8.471  0.00  0.00    +0.000 C 
BRANCH  10  11
ATOM     11  C   UNL     1      45.749   3.185   7.897  0.00  0.00    +0.000 A 
ATOM     12  C   UNL     1      45.811   1.871   8.396  0.00  0.00    +0.000 A 
ATOM     13  C   UNL     1      46.670   0.931   7.831  0.00  0.00    +0.000 A 
ATOM     14  C   UNL     1      47.476   1.294   6.752  0.00  0.00    +0.000 A 
ATOM     15  C   UNL     1      47.422   2.590   6.247  0.00  0.00    +0.000 A 
ATOM     16  C   UNL     1      46.559   3.532   6.810  0.00  0.00    +0.000 A 
ENDBRANCH  10  11
ENDBRANCH   8  10
ENDBRANCH   7   8
BRANCH   7  17
ATOM     17  C   UNL     1      43.347   4.989  10.973  0.00  0.00    +0.000 C 
BRANCH  17  19
ATOM     18  C   UNL     1      43.359   2.795  11.816  0.00  0.00    +0.000 C 
ATOM     19  O   UNL     1      42.908   4.131  12.032  0.00  0.00    +0.000 OA
ENDBRANCH  17  19
ENDBRANCH   7  17
ENDBRANCH   1   7
BRANCH   4  20
ATOM     20  C   UNL     1      47.660   8.939  14.080  0.00  0.00    +0.000 C 
BRANCH  20  21
ATOM     21  N   UNL     1      47.890   8.469  15.420  0.00  0.00    +0.000 N 
ATOM     22  C   UNL     1      49.165   8.365  15.911  0.00  0.00    +0.000 C 
ATOM     23  O   UNL     1      50.143   8.707  15.251  0.00  0.00    +0.000 OA
ATOM     24  H   UNL     1      47.133   7.974  15.881  0.00  0.00    +0.000 HD
BRANCH  22  25
ATOM     25  C   UNL     1      49.306   7.881  17.288  0.00  0.00    +0.000 A 
ATOM     26  C   UNL     1      49.730   8.757  18.279  0.00  0.00    +0.000 A 
ATOM     27  S   UNL     1      49.790   8.057  19.831  0.00  0.00    +0.000 S 
ATOM     28  C   UNL     1      49.302   6.544  19.226  0.00  0.00    +0.000 A 
ATOM     29  N   UNL     1      49.174   5.471  20.050  0.00  0.00    +0.000 NA
ATOM     30  C   UNL     1      48.828   4.380  19.458  0.00  0.00    +0.000 A 
ATOM     31  N   UNL     1      48.593   4.263  18.112  0.00  0.00    +0.000 N 
ATOM     32  C   UNL     1      48.681   5.325  17.242  0.00  0.00    +0.000 A 
ATOM     33  O   UNL     1      48.428   5.192  16.049  0.00  0.00    +0.000 OA
ATOM     34  C   UNL     1      49.080   6.575  17.861  0.00  0.00    +0.000 A 
ATOM     35  H   UNL     1      48.317   3.378  17.711  0.00  0.00    +0.000 HD
ENDBRANCH  22  25
ENDBRANCH  20  21
ENDBRANCH   4  20
TORSDOF 9
ENDMDL
MODEL 4
REMARK VINA RESULT:    -7.803      2.298      2.917
REMARK INTER + INTRA:         -12.780
REMARK INTER:                 -11.717
REMARK INTRA:                  -1.063
REMARK UNBOUND:                -0.871
REMARK  Name = 
REMARK  10 active torsions:
REMARK  status: ('A' for Active; 'I' for Inactive)
REMARK    1  A    between atoms: C_1  and  O_2
REMARK    2  A    between atoms: O_2  and  C_3
REMARK    3  A    between atoms: C_3  and  C_4
REMARK    4  A    between atoms: C_4  and  N_5
REMARK    5  A    between atoms: C_4  and  C_13
REMARK    6  A    between atoms: N_5  and  C_6
REMARK    7  A    between atoms: C_6  and  C_7
REMARK    8  A    between atoms: C_16  and  C_17
REMARK    9  A    between atoms: C_17  and  N_18
REMARK   10  A    between atoms: C_19  and  C_21
REMARK                            x       y       z     vdW  Elec       q    Type
REMARK                         _______ _______ _______ _____ _____    ______ ____
ROOT
ATOM      1  C   UNL     1      45.521   4.382  12.583  0.00  0.00    +0.000 A 
ATOM      2  C   UNL     1      46.127   3.921  13.767  0.00  0.00    +0.000 A 
ATOM      3  C   UNL     1      47.042   4.716  14.464  0.00  0.00    +0.000 A 
ATOM      4  C   UNL     1      47.323   6.015  14.031  0.00  0.00    +0.000 A 
ATOM      5  C   UNL     1      46.727   6.481  12.857  0.00  0.00    +0.000 A 
ATOM      6  C   UNL     1      45.850   5.671  12.134  0.00  0.00    +0.000 A 
ENDROOT
BRANCH   1   7
ATOM      7  C   UNL     1      44.616   3.448  11.772  0.00  0.00    +0.000 C 
BRANCH   7   8
ATOM      8  N   UNL     1      45.366   2.778  10.677  0.00  0.00    +0.000 NA
ATOM      9  H   UNL     1      45.226   1.773  10.737  0.00  0.00    +0.000 HD
BRANCH   8  10
ATOM     10  C   UNL     1      44.943   3.247   9.355  0.00  0.00    +0.000 C 
BRANCH  10  11
ATOM     11  C   UNL     1      45.763   2.726   8.198  0.00  0.00    +0.000 A 
ATOM     12  C   UNL     1      46.078   3.605   7.145  0.00  0.00    +0.000 A 
ATOM     13  C   UNL     1      46.916   3.204   6.105  0.00  0.00    +0.000 A 
ATOM     14  C   UNL     1      47.455   1.918   6.111  0.00  0.00    +0.000 A 
ATOM     15  C   UNL     1      47.153   1.040   7.150  0.00  0.00    +0.000 A 
ATOM     16  C   UNL     1      46.317   1.442   8.193  0.00  0.00    +0.000 A 
ENDBRANCH  10  11
ENDBRANCH   8  10
ENDBRANCH   7   8
BRANCH   7  17
ATOM     17  C   UNL     1      43.376   4.225  11.230  0.00  0.00    +0.000 C 
BRANCH  17  19
ATOM     18  C   UNL     1      42.149   6.143  11.813  0.00  0.00    +0.000 C 
ATOM     19  O   UNL     1      42.620   4.873  12.260  0.00  0.00    +0.000 OA
ENDBRANCH  17  19
ENDBRANCH   7  17
ENDBRANCH   1   7
BRANCH   4  20
ATOM     20  C   UNL     1      48.281   6.898  14.782  0.00  0.00    +0.000 C 
BRANCH  20  21
ATOM     21  N   UNL     1      49.342   6.131  15.381  0.00  0.00    +0.000 N 
ATOM     22  C   UNL     1      49.497   6.105  16.741  0.00  0.00    +0.000 C 
ATOM     23  O   UNL     1      48.721   6.690  17.494  0.00  0.00    +0.000 OA
ATOM     24  H   UNL     1      50.110   5.844  14.783  0.00  0.00    +0.000 HD
BRANCH  22  25
ATOM     25  C   UNL     1      50.601   5.295  17.266  0.00  0.00    +0.000 A 
ATOM     26  C   UNL     1      51.705   5.925  17.825  0.00  0.00    +0.000 A 
ATOM     27  S   UNL     1      52.872   4.846  18.437  0.00  0.00    +0.000 S 
ATOM     28  C   UNL     1      51.968   3.496  17.930  0.00  0.00    +0.000 A 
ATOM     29  N   UNL     1      52.427   2.233  18.133  0.00  0.00    +0.000 NA
ATOM     30  C   UNL     1      51.659   1.305  17.673  0.00  0.00    +0.000 A 
ATOM     31  N   UNL     1      50.468   1.525  17.029  0.00  0.00    +0.000 N 
ATOM     32  C   UNL     1      49.949   2.782  16.826  0.00  0.00    +0.000 A 
ATOM     33  O   UNL     1      48.862   2.941  16.278  0.00  0.00    +0.000 OA
ATOM     34  C   UNL     1      50.783   3.863  17.317  0.00  0.00    +0.000 A 
ATOM     35  H   UNL     1      49.910   0.752  16.698  0.00  0.00    +0.000 HD
ENDBRANCH  22  25
ENDBRANCH  20  21
ENDBRANCH   4  20
TORSDOF 9
ENDMDL
MODEL 5
REMARK VINA RESULT:    -7.585      4.931      6.337
REMARK INTER + INTRA:         -12.446
REMARK INTER:                 -11.311
REMARK INTRA:                  -1.135
REMARK UNBOUND:                -0.871
REMARK  Name = 
REMARK  10 active torsions:
REMARK  status: ('A' for Active; 'I' for Inactive)
REMARK    1  A    between atoms: C_1  and  O_2
REMARK    2  A    between atoms: O_2  and  C_3
REMARK    3  A    between atoms: C_3  and  C_4
REMARK    4  A    between atoms: C_4  and  N_5
REMARK    5  A    between atoms: C_4  and  C_13
REMARK    6  A    between atoms: N_5  and  C_6
REMARK    7  A    between atoms: C_6  and  C_7
REMARK    8  A    between atoms: C_16  and  C_17
REMARK    9  A    between atoms: C_17  and  N_18
REMARK   10  A    between atoms: C_19  and  C_21
REMARK                            x       y       z     vdW  Elec       q    Type
REMARK                         _______ _______ _______ _____ _____    ______ ____
ROOT
ATOM      1  C   UNL     1      45.508   6.605  11.620  0.00  0.00    +0.000 A 
ATOM      2  C   UNL     1      46.842   6.425  12.030  0.00  0.00    +0.000 A 
ATOM      3  C   UNL     1      47.623   7.511  12.437  0.00  0.00    +0.000 A 
ATOM      4  C   UNL     1      47.070   8.793  12.506  0.00  0.00    +0.000 A 
ATOM      5  C   UNL     1      45.746   8.981  12.100  0.00  0.00    +0.000 A 
ATOM      6  C   UNL     1      44.981   7.906  11.649  0.00  0.00    +0.000 A 
ENDROOT
BRANCH   1   7
ATOM      7  C   UNL     1      44.711   5.419  11.063  0.00  0.00    +0.000 C 
BRANCH   7   8
ATOM      8  N   UNL     1      45.153   5.062   9.690  0.00  0.00    +0.000 NA
ATOM      9  H   UNL     1      46.168   5.002   9.667  0.00  0.00    +0.000 HD
BRANCH   8  10
ATOM     10  C   UNL     1      44.582   3.788   9.244  0.00  0.00    +0.000 C 
BRANCH  10  11
ATOM     11  C   UNL     1      45.457   2.988   8.308  0.00  0.00    +0.000 A 
ATOM     12  C   UNL     1      46.039   3.640   7.205  0.00  0.00    +0.000 A 
ATOM     13  C   UNL     1      46.934   2.973   6.370  0.00  0.00    +0.000 A 
ATOM     14  C   UNL     1      47.262   1.643   6.633  0.00  0.00    +0.000 A 
ATOM     15  C   UNL     1      46.694   0.987   7.723  0.00  0.00    +0.000 A 
ATOM     16  C   UNL     1      45.801   1.656   8.562  0.00  0.00    +0.000 A 
ENDBRANCH  10  11
ENDBRANCH   8  10
ENDBRANCH   7   8
BRANCH   7  17
ATOM     17  C   UNL     1      43.180   5.719  11.117  0.00  0.00    +0.000 C 
BRANCH  17  19
ATOM     18  C   UNL     1      43.302   4.267  12.961  0.00  0.00    +0.000 C 
ATOM     19  O   UNL     1      42.569   5.329  12.353  0.00  0.00    +0.000 OA
ENDBRANCH  17  19
ENDBRANCH   7  17
ENDBRANCH   1   7
BRANCH   4  20
ATOM     20  C   UNL     1      47.882   9.971  12.969  0.00  0.00    +0.000 C 
BRANCH  20  21
ATOM     21  N   UNL     1      49.240   9.889  12.497  0.00  0.00    +0.000 N 
ATOM     22  C   UNL     1      49.583  10.408  11.276  0.00  0.00    +0.000 C 
ATOM     23  O   UNL     1      48.768  10.995  10.569  0.00  0.00    +0.000 OA
ATOM     24  H   UNL     1      49.854   9.219  12.948  0.00  0.00    +0.000 HD
BRANCH  22  25
ATOM     25  C   UNL     1      50.989  10.284  10.877  0.00  0.00    +0.000 A 
ATOM     26  C   UNL     1      51.727  11.430  10.613  0.00  0.00    +0.000 A 
ATOM     27  S   UNL     1      53.354  11.119  10.216  0.00  0.00    +0.000 S 
ATOM     28  C   UNL     1      53.118   9.439  10.331  0.00  0.00    +0.000 A 
ATOM     29  N   UNL     1      54.135   8.572  10.083  0.00  0.00    +0.000 NA
ATOM     30  C   UNL     1      53.812   7.328  10.176  0.00  0.00    +0.000 A 
ATOM     31  N   UNL     1      52.561   6.868  10.499  0.00  0.00    +0.000 N 
ATOM     32  C   UNL     1      51.508   7.704  10.787  0.00  0.00    +0.000 A 
ATOM     33  O   UNL     1      50.411   7.259  11.108  0.00  0.00    +0.000 OA
ATOM     34  C   UNL     1      51.819   9.118  10.684  0.00  0.00    +0.000 A 
ATOM     35  H   UNL     1      52.375   5.878  10.562  0.00  0.00    +0.000 HD
ENDBRANCH  22  25
ENDBRANCH  20  21
ENDBRANCH   4  20
TORSDOF 9
ENDMDL
MODEL 6
REMARK VINA RESULT:    -7.571      1.860      3.102
REMARK INTER + INTRA:         -12.425
REMARK INTER:                 -11.337
REMARK INTRA:                  -1.087
REMARK UNBOUND:                -0.871
REMARK  Name = 
REMARK  10 active torsions:
REMARK  status: ('A' for Active; 'I' for Inactive)
REMARK    1  A    between atoms: C_1  and  O_2
REMARK    2  A    between atoms: O_2  and  C_3
REMARK    3  A    between atoms: C_3  and  C_4
REMARK    4  A    between atoms: C_4  and  N_5
REMARK    5  A    between atoms: C_4  and  C_13
REMARK    6  A    between atoms: N_5  and  C_6
REMARK    7  A    between atoms: C_6  and  C_7
REMARK    8  A    between atoms: C_16  and  C_17
REMARK    9  A    between atoms: C_17  and  N_18
REMARK   10  A    between atoms: C_19  and  C_21
REMARK                            x       y       z     vdW  Elec       q    Type
REMARK                         _______ _______ _______ _____ _____    ______ ____
ROOT
ATOM      1  C   UNL     1      45.583   4.625  12.659  0.00  0.00    +0.000 A 
ATOM      2  C   UNL     1      46.253   3.681  13.460  0.00  0.00    +0.000 A 
ATOM      3  C   UNL     1      47.283   4.070  14.322  0.00  0.00    +0.000 A 
ATOM      4  C   UNL     1      47.624   5.420  14.452  0.00  0.00    +0.000 A 
ATOM      5  C   UNL     1      46.965   6.363  13.660  0.00  0.00    +0.000 A 
ATOM      6  C   UNL     1      45.969   5.971  12.765  0.00  0.00    +0.000 A 
ENDROOT
BRANCH   1   7
ATOM      7  C   UNL     1      44.542   4.160  11.634  0.00  0.00    +0.000 C 
BRANCH   7   8
ATOM      8  N   UNL     1      44.975   2.918  10.943  0.00  0.00    +0.000 NA
ATOM      9  H   UNL     1      44.710   2.110  11.500  0.00  0.00    +0.000 HD
BRANCH   8  10
ATOM     10  C   UNL     1      44.385   2.799   9.607  0.00  0.00    +0.000 C 
BRANCH  10  11
ATOM     11  C   UNL     1      45.373   2.557   8.490  0.00  0.00    +0.000 A 
ATOM     12  C   UNL     1      45.709   3.629   7.643  0.00  0.00    +0.000 A 
ATOM     13  C   UNL     1      46.689   3.487   6.662  0.00  0.00    +0.000 A 
ATOM     14  C   UNL     1      47.352   2.267   6.522  0.00  0.00    +0.000 A 
ATOM     15  C   UNL     1      47.030   1.199   7.356  0.00  0.00    +0.000 A 
ATOM     16  C   UNL     1      46.050   1.343   8.340  0.00  0.00    +0.000 A 
ENDBRANCH  10  11
ENDBRANCH   8  10
ENDBRANCH   7   8
BRANCH   7  17
ATOM     17  C   UNL     1      44.224   5.304  10.621  0.00  0.00    +0.000 C 
BRANCH  17  19
ATOM     18  C   UNL     1      42.291   5.385  11.955  0.00  0.00    +0.000 C 
ATOM     19  O   UNL     1      43.071   6.074  10.980  0.00  0.00    +0.000 OA
ENDBRANCH  17  19
ENDBRANCH   7  17
ENDBRANCH   1   7
BRANCH   4  20
ATOM     20  C   UNL     1      48.709   5.864  15.394  0.00  0.00    +0.000 C 
BRANCH  20  21
ATOM     21  N   UNL     1      48.196   6.755  16.401  0.00  0.00    +0.000 N 
ATOM     22  C   UNL     1      48.741   6.771  17.657  0.00  0.00    +0.000 C 
ATOM     23  O   UNL     1      49.704   6.068  17.955  0.00  0.00    +0.000 OA
ATOM     24  H   UNL     1      47.278   7.159  16.247  0.00  0.00    +0.000 HD
BRANCH  22  25
ATOM     25  C   UNL     1      48.160   7.713  18.619  0.00  0.00    +0.000 A 
ATOM     26  C   UNL     1      47.812   7.267  19.887  0.00  0.00    +0.000 A 
ATOM     27  S   UNL     1      47.203   8.492  20.901  0.00  0.00    +0.000 S 
ATOM     28  C   UNL     1      47.334   9.654  19.665  0.00  0.00    +0.000 A 
ATOM     29  N   UNL     1      46.947  10.940  19.873  0.00  0.00    +0.000 NA
ATOM     30  C   UNL     1      47.071  11.709  18.845  0.00  0.00    +0.000 A 
ATOM     31  N   UNL     1      47.551  11.308  17.624  0.00  0.00    +0.000 N 
ATOM     32  C   UNL     1      47.981  10.026  17.374  0.00  0.00    +0.000 A 
ATOM     33  O   UNL     1      48.439   9.711  16.280  0.00  0.00    +0.000 OA
ATOM     34  C   UNL     1      47.851   9.119  18.499  0.00  0.00    +0.000 A 
ATOM     35  H   UNL     1      47.629  11.963  16.860  0.00  0.00    +0.000 HD
ENDBRANCH  22  25
ENDBRANCH  20  21
ENDBRANCH   4  20
TORSDOF 9
ENDMDL
MODEL 7
REMARK VINA RESULT:    -7.244      3.447      8.767
REMARK INTER + INTRA:         -11.927
REMARK INTER:                  -9.949
REMARK INTRA:                  -1.977
REMARK UNBOUND:                -0.871
REMARK  Name = 
REMARK  10 active torsions:
REMARK  status: ('A' for Active; 'I' for Inactive)
REMARK    1  A    between atoms: C_1  and  O_2
REMARK    2  A    between atoms: O_2  and  C_3
REMARK    3  A    between atoms: C_3  and  C_4
REMARK    4  A    between atoms: C_4  and  N_5
REMARK    5  A    between atoms: C_4  and  C_13
REMARK    6  A    between atoms: N_5  and  C_6
REMARK    7  A    between atoms: C_6  and  C_7
REMARK    8  A    between atoms: C_16  and  C_17
REMARK    9  A    between atoms: C_17  and  N_18
REMARK   10  A    between atoms: C_19  and  C_21
REMARK                            x       y       z     vdW  Elec       q    Type
REMARK                         _______ _______ _______ _____ _____    ______ ____
ROOT
ATOM      1  C   UNL     1      48.724   7.760  16.306  0.00  0.00    +0.000 A 
ATOM      2  C   UNL     1      49.015   6.669  15.465  0.00  0.00    +0.000 A 
ATOM      3  C   UNL     1      48.872   6.771  14.078  0.00  0.00    +0.000 A 
ATOM      4  C   UNL     1      48.497   7.985  13.493  0.00  0.00    +0.000 A 
ATOM      5  C   UNL     1      48.205   9.072  14.321  0.00  0.00    +0.000 A 
ATOM      6  C   UNL     1      48.302   8.957  15.707  0.00  0.00    +0.000 A 
ENDROOT
BRANCH   1   7
ATOM      7  C   UNL     1      48.772   7.587  17.829  0.00  0.00    +0.000 C 
BRANCH   7   8
ATOM      8  N   UNL     1      47.487   7.060  18.358  0.00  0.00    +0.000 NA
ATOM      9  H   UNL     1      46.864   6.848  17.583  0.00  0.00    +0.000 HD
BRANCH   8  10
ATOM     10  C   UNL     1      47.681   5.853  19.167  0.00  0.00    +0.000 C 
BRANCH  10  11
ATOM     11  C   UNL     1      48.126   4.632  18.400  0.00  0.00    +0.000 A 
ATOM     12  C   UNL     1      47.255   4.084  17.439  0.00  0.00    +0.000 A 
ATOM     13  C   UNL     1      47.657   3.021  16.633  0.00  0.00    +0.000 A 
ATOM     14  C   UNL     1      48.942   2.495  16.774  0.00  0.00    +0.000 A 
ATOM     15  C   UNL     1      49.813   3.030  17.720  0.00  0.00    +0.000 A 
ATOM     16  C   UNL     1      49.412   4.098  18.525  0.00  0.00    +0.000 A 
ENDBRANCH  10  11
ENDBRANCH   8  10
ENDBRANCH   7   8
BRANCH   7  17
ATOM     17  C   UNL     1      49.173   8.930  18.517  0.00  0.00    +0.000 C 
BRANCH  17  19
ATOM     18  C   UNL     1      48.456   9.782  20.586  0.00  0.00    +0.000 C 
ATOM     19  O   UNL     1      48.093   9.547  19.226  0.00  0.00    +0.000 OA
ENDBRANCH  17  19
ENDBRANCH   7  17
ENDBRANCH   1   7
BRANCH   4  20
ATOM     20  C   UNL     1      48.364   8.125  12.002  0.00  0.00    +0.000 C 
BRANCH  20  21
ATOM     21  N   UNL     1      47.677   6.998  11.429  0.00  0.00    +0.000 N 
ATOM     22  C   UNL     1      46.308   6.966  11.389  0.00  0.00    +0.000 C 
ATOM     23  O   UNL     1      45.626   7.905  11.794  0.00  0.00    +0.000 OA
ATOM     24  H   UNL     1      48.202   6.138  11.309  0.00  0.00    +0.000 HD
BRANCH  22  25
ATOM     25  C   UNL     1      45.691   5.782  10.783  0.00  0.00    +0.000 A 
ATOM     26  C   UNL     1      45.852   5.548   9.424  0.00  0.00    +0.000 A 
ATOM     27  S   UNL     1      45.122   4.105   8.887  0.00  0.00    +0.000 S 
ATOM     28  C   UNL     1      44.520   3.768  10.441  0.00  0.00    +0.000 A 
ATOM     29  N   UNL     1      43.768   2.660  10.673  0.00  0.00    +0.000 NA
ATOM     30  C   UNL     1      43.351   2.541  11.887  0.00  0.00    +0.000 A 
ATOM     31  N   UNL     1      43.620   3.430  12.896  0.00  0.00    +0.000 N 
ATOM     32  C   UNL     1      44.399   4.549  12.718  0.00  0.00    +0.000 A 
ATOM     33  O   UNL     1      44.650   5.305  13.652  0.00  0.00    +0.000 OA
ATOM     34  C   UNL     1      44.885   4.734  11.363  0.00  0.00    +0.000 A 
ATOM     35  H   UNL     1      43.267   3.274  13.829  0.00  0.00    +0.000 HD
ENDBRANCH  22  25
ENDBRANCH  20  21
ENDBRANCH   4  20
TORSDOF 9
ENDMDL
MODEL 8
REMARK VINA RESULT:    -7.165      3.086      9.113
REMARK INTER + INTRA:         -11.805
REMARK INTER:                  -9.932
REMARK INTRA:                  -1.873
REMARK UNBOUND:                -0.871
REMARK  Name = 
REMARK  10 active torsions:
REMARK  status: ('A' for Active; 'I' for Inactive)
REMARK    1  A    between atoms: C_1  and  O_2
REMARK    2  A    between atoms: O_2  and  C_3
REMARK    3  A    between atoms: C_3  and  C_4
REMARK    4  A    between atoms: C_4  and  N_5
REMARK    5  A    between atoms: C_4  and  C_13
REMARK    6  A    between atoms: N_5  and  C_6
REMARK    7  A    between atoms: C_6  and  C_7
REMARK    8  A    between atoms: C_16  and  C_17
REMARK    9  A    between atoms: C_17  and  N_18
REMARK   10  A    between atoms: C_19  and  C_21
REMARK                            x       y       z     vdW  Elec       q    Type
REMARK                         _______ _______ _______ _____ _____    ______ ____
ROOT
ATOM      1  C   UNL     1      48.859   8.184  16.289  0.00  0.00    +0.000 A 
ATOM      2  C   UNL     1      49.302   7.076  15.541  0.00  0.00    +0.000 A 
ATOM      3  C   UNL     1      48.943   6.923  14.199  0.00  0.00    +0.000 A 
ATOM      4  C   UNL     1      48.186   7.906  13.553  0.00  0.00    +0.000 A 
ATOM      5  C   UNL     1      47.741   9.008  14.288  0.00  0.00    +0.000 A 
ATOM      6  C   UNL     1      48.059   9.138  15.639  0.00  0.00    +0.000 A 
ENDROOT
BRANCH   1   7
ATOM      7  C   UNL     1      49.164   8.268  17.789  0.00  0.00    +0.000 C 
BRANCH   7   8
ATOM      8  N   UNL     1      49.924   7.079  18.257  0.00  0.00    +0.000 NA
ATOM      9  H   UNL     1      50.645   7.375  18.910  0.00  0.00    +0.000 HD
BRANCH   8  10
ATOM     10  C   UNL     1      49.056   6.094  18.908  0.00  0.00    +0.000 C 
BRANCH  10  11
ATOM     11  C   UNL     1      48.989   4.749  18.225  0.00  0.00    +0.000 A 
ATOM     12  C   UNL     1      47.777   4.355  17.628  0.00  0.00    +0.000 A 
ATOM     13  C   UNL     1      47.691   3.171  16.898  0.00  0.00    +0.000 A 
ATOM     14  C   UNL     1      48.822   2.367  16.751  0.00  0.00    +0.000 A 
ATOM     15  C   UNL     1      50.028   2.748  17.335  0.00  0.00    +0.000 A 
ATOM     16  C   UNL     1      50.116   3.936  18.063  0.00  0.00    +0.000 A 
ENDBRANCH  10  11
ENDBRANCH   8  10
ENDBRANCH   7   8
BRANCH   7  17
ATOM     17  C   UNL     1      47.848   8.469  18.603  0.00  0.00    +0.000 C 
BRANCH  17  19
ATOM     18  C   UNL     1      47.681  10.785  18.968  0.00  0.00    +0.000 C 
ATOM     19  O   UNL     1      47.937   9.519  19.573  0.00  0.00    +0.000 OA
ENDBRANCH  17  19
ENDBRANCH   7  17
ENDBRANCH   1   7
BRANCH   4  20
ATOM     20  C   UNL     1      47.812   7.776  12.103  0.00  0.00    +0.000 C 
BRANCH  20  21
ATOM     21  N   UNL     1      47.097   6.552  11.853  0.00  0.00    +0.000 N 
ATOM     22  C   UNL     1      45.733   6.506  11.979  0.00  0.00    +0.000 C 
ATOM     23  O   UNL     1      45.075   7.505  12.261  0.00  0.00    +0.000 OA
ATOM     24  H   UNL     1      47.630   5.688  11.851  0.00  0.00    +0.000 HD
BRANCH  22  25
ATOM     25  C   UNL     1      45.086   5.220  11.702  0.00  0.00    +0.000 A 
ATOM     26  C   UNL     1      44.410   4.562  12.721  0.00  0.00    +0.000 A 
ATOM     27  S   UNL     1      43.668   3.111  12.225  0.00  0.00    +0.000 S 
ATOM     28  C   UNL     1      44.267   3.283  10.642  0.00  0.00    +0.000 A 
ATOM     29  N   UNL     1      44.010   2.346   9.693  0.00  0.00    +0.000 NA
ATOM     30  C   UNL     1      44.548   2.584   8.546  0.00  0.00    +0.000 A 
ATOM     31  N   UNL     1      45.322   3.679   8.259  0.00  0.00    +0.000 N 
ATOM     32  C   UNL     1      45.586   4.669   9.176  0.00  0.00    +0.000 A 
ATOM     33  O   UNL     1      46.252   5.655   8.875  0.00  0.00    +0.000 OA
ATOM     34  C   UNL     1      45.010   4.441  10.489  0.00  0.00    +0.000 A 
ATOM     35  H   UNL     1      45.709   3.810   7.336  0.00  0.00    +0.000 HD
ENDBRANCH  22  25
ENDBRANCH  20  21
ENDBRANCH   4  20
TORSDOF 9
ENDMDL
MODEL 9
REMARK VINA RESULT:    -6.727      2.150      2.892
REMARK INTER + INTRA:         -11.138
REMARK INTER:                 -10.094
REMARK INTRA:                  -1.043
REMARK UNBOUND:                -0.871
REMARK  Name = 
REMARK  10 active torsions:
REMARK  status: ('A' for Active; 'I' for Inactive)
REMARK    1  A    between atoms: C_1  and  O_2
REMARK    2  A    between atoms: O_2  and  C_3
REMARK    3  A    between atoms: C_3  and  C_4
REMARK    4  A    between atoms: C_4  and  N_5
REMARK    5  A    between atoms: C_4  and  C_13
REMARK    6  A    between atoms: N_5  and  C_6
REMARK    7  A    between atoms: C_6  and  C_7
REMARK    8  A    between atoms: C_16  and  C_17
REMARK    9  A    between atoms: C_17  and  N_18
REMARK   10  A    between atoms: C_19  and  C_21
REMARK                            x       y       z     vdW  Elec       q    Type
REMARK                         _______ _______ _______ _____ _____    ______ ____
ROOT
ATOM      1  C   UNL     1      45.624   6.240  12.557  0.00  0.00    +0.000 A 
ATOM      2  C   UNL     1      46.694   7.101  12.866  0.00  0.00    +0.000 A 
ATOM      3  C   UNL     1      47.592   6.793  13.892  0.00  0.00    +0.000 A 
ATOM      4  C   UNL     1      47.482   5.587  14.590  0.00  0.00    +0.000 A 
ATOM      5  C   UNL     1      46.422   4.727  14.290  0.00  0.00    +0.000 A 
ATOM      6  C   UNL     1      45.498   5.055  13.299  0.00  0.00    +0.000 A 
ENDROOT
BRANCH   1   7
ATOM      7  C   UNL     1      44.583   6.657  11.511  0.00  0.00    +0.000 C 
BRANCH   7   8
ATOM      8  N   UNL     1      44.874   6.055  10.183  0.00  0.00    +0.000 NA
ATOM      9  H   UNL     1      45.872   6.108  10.000  0.00  0.00    +0.000 HD
BRANCH   8  10
ATOM     10  C   UNL     1      44.441   4.656  10.108  0.00  0.00    +0.000 C 
BRANCH  10  11
ATOM     11  C   UNL     1      45.257   3.783   9.184  0.00  0.00    +0.000 A 
ATOM     12  C   UNL     1      45.172   2.386   9.327  0.00  0.00    +0.000 A 
ATOM     13  C   UNL     1      45.824   1.534   8.437  0.00  0.00    +0.000 A 
ATOM     14  C   UNL     1      46.566   2.073   7.385  0.00  0.00    +0.000 A 
ATOM     15  C   UNL     1      46.656   3.455   7.232  0.00  0.00    +0.000 A 
ATOM     16  C   UNL     1      46.000   4.308   8.122  0.00  0.00    +0.000 A 
ENDBRANCH  10  11
ENDBRANCH   8  10
ENDBRANCH   7   8
BRANCH   7  17
ATOM     17  C   UNL     1      44.483   8.212  11.431  0.00  0.00    +0.000 C 
BRANCH  17  19
ATOM     18  C   UNL     1      43.144  10.077  10.928  0.00  0.00    +0.000 C 
ATOM     19  O   UNL     1      43.305   8.670  10.757  0.00  0.00    +0.000 OA
ENDBRANCH  17  19
ENDBRANCH   7  17
ENDBRANCH   1   7
BRANCH   4  20
ATOM     20  C   UNL     1      48.454   5.222  15.678  0.00  0.00    +0.000 C 
BRANCH  20  21
ATOM     21  N   UNL     1      48.025   5.728  16.955  0.00  0.00    +0.000 N 
ATOM     22  C   UNL     1      48.823   5.590  18.060  0.00  0.00    +0.000 C 
ATOM     23  O   UNL     1      49.938   5.078  17.994  0.00  0.00    +0.000 OA
ATOM     24  H   UNL     1      47.038   5.934  17.072  0.00  0.00    +0.000 HD
BRANCH  22  25
ATOM     25  C   UNL     1      48.309   6.138  19.320  0.00  0.00    +0.000 A 
ATOM     26  C   UNL     1      48.211   5.314  20.433  0.00  0.00    +0.000 A 
ATOM     27  S   UNL     1      47.650   6.112  21.829  0.00  0.00    +0.000 S 
ATOM     28  C   UNL     1      47.469   7.577  20.983  0.00  0.00    +0.000 A 
ATOM     29  N   UNL     1      46.994   8.688  21.605  0.00  0.00    +0.000 NA
ATOM     30  C   UNL     1      46.877   9.720  20.841  0.00  0.00    +0.000 A 
ATOM     31  N   UNL     1      47.197   9.745  19.508  0.00  0.00    +0.000 N 
ATOM     32  C   UNL     1      47.708   8.656  18.841  0.00  0.00    +0.000 A 
ATOM     33  O   UNL     1      48.017   8.724  17.655  0.00  0.00    +0.000 OA
ATOM     34  C   UNL     1      47.847   7.464  19.657  0.00  0.00    +0.000 A 
ATOM     35  H   UNL     1      47.088  10.590  18.967  0.00  0.00    +0.000 HD
ENDBRANCH  22  25
ENDBRANCH  20  21
ENDBRANCH   4  20
TORSDOF 9
ENDMDL
