MODEL 1
REMARK VINA RESULT:    -7.883      0.000      0.000
REMARK INTER + INTRA:         -13.263
REMARK INTER:                 -12.030
REMARK INTRA:                  -1.233
REMARK UNBOUND:                -1.233
REMARK  Name = 
REMARK  11 active torsions:
REMARK  status: ('A' for Active; 'I' for Inactive)
REMARK    1  A    between atoms: C_1  and  O_2
REMARK    2  A    between atoms: O_2  and  C_3
REMARK    3  A    between atoms: C_6  and  C_7
REMARK    4  A    between atoms: C_7  and  O_8
REMARK    5  A    between atoms: O_8  and  C_9
REMARK    6  A    between atoms: C_9  and  C_10
REMARK    7  A    between atoms: C_13  and  C_14
REMARK    8  A    between atoms: C_14  and  N_15
REMARK    9  A    between atoms: C_16  and  C_18
REMARK   10  A    between atoms: C_25  and  O_26
REMARK   11  A    between atoms: O_26  and  C_27
REMARK                            x       y       z     vdW  Elec       q    Type
REMARK                         _______ _______ _______ _____ _____    ______ ____
ROOT
ATOM      1  C   UNL     1      44.534   4.574  12.445  0.00  0.00    +0.000 A 
ATOM      2  C   UNL     1      44.561   5.976  12.441  0.00  0.00    +0.000 A 
ATOM      3  C   UNL     1      45.715   6.672  12.819  0.00  0.00    +0.000 A 
ATOM      4  C   UNL     1      46.874   5.980  13.191  0.00  0.00    +0.000 A 
ATOM      5  C   UNL     1      46.844   4.579  13.201  0.00  0.00    +0.000 A 
ATOM      6  C   UNL     1      45.687   3.883  12.837  0.00  0.00    +0.000 A 
ENDROOT
BRANCH   1   7
ATOM      7  C   UNL     1      43.282   3.830  12.051  0.00  0.00    +0.000 C 
BRANCH   7   8
ATOM      8  O   UNL     1      43.523   3.109  10.847  0.00  0.00    +0.000 OA
BRANCH   8   9
ATOM      9  C   UNL     1      43.926   3.974   9.786  0.00  0.00    +0.000 C 
BRANCH   9  13
ATOM     10  C   UNL     1      46.965   2.115   7.321  0.00  0.00    +0.000 A 
ATOM     11  C   UNL     1      46.202   1.340   8.193  0.00  0.00    +0.000 A 
ATOM     12  C   UNL     1      45.225   1.940   8.996  0.00  0.00    +0.000 A 
ATOM     13  C   UNL     1      45.001   3.323   8.949  0.00  0.00    +0.000 A 
ATOM     14  C   UNL     1      45.757   4.090   8.054  0.00  0.00    +0.000 A 
ATOM     15  C   UNL     1      46.733   3.490   7.252  0.00  0.00    +0.000 A 
BRANCH  10  17
ATOM     16  C   UNL     1      48.061   2.285   5.220  0.00  0.00    +0.000 C 
ATOM     17  O   UNL     1      47.953   1.657   6.492  0.00  0.00    +0.000 OA
ENDBRANCH  10  17
ENDBRANCH   9  13
ENDBRANCH   8   9
ENDBRANCH   7   8
ENDBRANCH   1   7
BRANCH   4  18
ATOM     18  C   UNL     1      48.121   6.719  13.606  0.00  0.00    +0.000 C 
BRANCH  18  19
ATOM     19  N   UNL     1      48.212   6.829  15.041  0.00  0.00    +0.000 N 
ATOM     20  C   UNL     1      49.412   7.027  15.673  0.00  0.00    +0.000 C 
ATOM     21  O   UNL     1      50.453   7.213  15.050  0.00  0.00    +0.000 OA
ATOM     22  H   UNL     1      47.430   6.501  15.592  0.00  0.00    +0.000 HD
BRANCH  20  23
ATOM     23  C   UNL     1      49.371   7.079  17.142  0.00  0.00    +0.000 A 
ATOM     24  C   UNL     1      49.583   8.298  17.774  0.00  0.00    +0.000 A 
ATOM     25  S   UNL     1      49.413   8.226  19.463  0.00  0.00    +0.000 S 
ATOM     26  C   UNL     1      49.116   6.555  19.412  0.00  0.00    +0.000 A 
ATOM     27  N   UNL     1      48.897   5.891  20.566  0.00  0.00    +0.000 NA
ATOM     28  C   UNL     1      48.701   4.574  20.419  0.00  0.00    +0.000 A 
ATOM     29  C   UNL     1      48.720   3.896  19.217  0.00  0.00    +0.000 A 
ATOM     30  C   UNL     1      48.947   4.612  18.039  0.00  0.00    +0.000 A 
ATOM     31  C   UNL     1      49.140   6.022  18.122  0.00  0.00    +0.000 A 
BRANCH  30  32
ATOM     32  O   UNL     1      49.003   4.030  16.799  0.00  0.00    +0.000 OA
ATOM     33  C   UNL     1      47.928   3.182  16.412  0.00  0.00    +0.000 C 
ENDBRANCH  30  32
ENDBRANCH  20  23
ENDBRANCH  18  19
ENDBRANCH   4  18
TORSDOF 9
ENDMDL
MODEL 2
REMARK VINA RESULT:    -7.701      1.654      2.748
REMARK INTER + INTRA:         -12.986
REMARK INTER:                 -11.586
REMARK INTRA:                  -1.400
REMARK UNBOUND:                -1.233
REMARK  Name = 
REMARK  11 active torsions:
REMARK  status: ('A' for Active; 'I' for Inactive)
REMARK    1  A    between atoms: C_1  and  O_2
REMARK    2  A    between atoms: O_2  and  C_3
REMARK    3  A    between atoms: C_6  and  C_7
REMARK    4  A    between atoms: C_7  and  O_8
REMARK    5  A    between atoms: O_8  and  C_9
REMARK    6  A    between atoms: C_9  and  C_10
REMARK    7  A    between atoms: C_13  and  C_14
REMARK    8  A    between atoms: C_14  and  N_15
REMARK    9  A    between atoms: C_16  and  C_18
REMARK   10  A    between atoms: C_25  and  O_26
REMARK   11  A    between atoms: O_26  and  C_27
REMARK                            x       y       z     vdW  Elec       q    Type
REMARK                         _______ _______ _______ _____ _____    ______ ____
ROOT
ATOM      1  C   UNL     1      44.627   5.580  11.929  0.00  0.00    +0.000 A 
ATOM      2  C   UNL     1      45.476   6.621  11.528  0.00  0.00    +0.000 A 
ATOM      3  C   UNL     1      46.654   6.896  12.232  0.00  0.00    +0.000 A 
ATOM      4  C   UNL     1      47.018   6.123  13.341  0.00  0.00    +0.000 A 
ATOM      5  C   UNL     1      46.165   5.087  13.744  0.00  0.00    +0.000 A 
ATOM      6  C   UNL     1      44.981   4.820  13.050  0.00  0.00    +0.000 A 
ENDROOT
BRANCH   1   7
ATOM      7  C   UNL     1      43.350   5.297  11.174  0.00  0.00    +0.000 C 
BRANCH   7   8
ATOM      8  O   UNL     1      43.669   4.741   9.903  0.00  0.00    +0.000 OA
BRANCH   8   9
ATOM      9  C   UNL     1      43.974   3.350   9.997  0.00  0.00    +0.000 C 
BRANCH   9  13
ATOM     10  C   UNL     1      47.051   2.241   7.156  0.00  0.00    +0.000 A 
ATOM     11  C   UNL     1      46.666   3.575   7.285  0.00  0.00    +0.000 A 
ATOM     12  C   UNL     1      45.667   3.934   8.196  0.00  0.00    +0.000 A 
ATOM     13  C   UNL     1      45.029   2.968   8.986  0.00  0.00    +0.000 A 
ATOM     14  C   UNL     1      45.436   1.634   8.866  0.00  0.00    +0.000 A 
ATOM     15  C   UNL     1      46.435   1.276   7.954  0.00  0.00    +0.000 A 
BRANCH  10  17
ATOM     16  C   UNL     1      48.086   2.375   5.022  0.00  0.00    +0.000 C 
ATOM     17  O   UNL     1      48.003   1.757   6.301  0.00  0.00    +0.000 OA
ENDBRANCH  10  17
ENDBRANCH   9  13
ENDBRANCH   8   9
ENDBRANCH   7   8
ENDBRANCH   1   7
BRANCH   4  18
ATOM     18  C   UNL     1      48.281   6.414  14.110  0.00  0.00    +0.000 C 
BRANCH  18  19
ATOM     19  N   UNL     1      48.006   6.618  15.512  0.00  0.00    +0.000 N 
ATOM     20  C   UNL     1      48.866   6.179  16.485  0.00  0.00    +0.000 C 
ATOM     21  O   UNL     1      49.953   5.675  16.215  0.00  0.00    +0.000 OA
ATOM     22  H   UNL     1      47.060   6.852  15.780  0.00  0.00    +0.000 HD
BRANCH  20  23
ATOM     23  C   UNL     1      48.447   6.413  17.874  0.00  0.00    +0.000 A 
ATOM     24  C   UNL     1      48.411   5.337  18.752  0.00  0.00    +0.000 A 
ATOM     25  S   UNL     1      48.001   5.772  20.343  0.00  0.00    +0.000 S 
ATOM     26  C   UNL     1      47.795   7.398  19.900  0.00  0.00    +0.000 A 
ATOM     27  N   UNL     1      47.428   8.293  20.838  0.00  0.00    +0.000 NA
ATOM     28  C   UNL     1      47.265   9.542  20.380  0.00  0.00    +0.000 A 
ATOM     29  C   UNL     1      47.434   9.936  19.067  0.00  0.00    +0.000 A 
ATOM     30  C   UNL     1      47.817   8.985  18.119  0.00  0.00    +0.000 A 
ATOM     31  C   UNL     1      48.031   7.642  18.545  0.00  0.00    +0.000 A 
BRANCH  30  32
ATOM     32  O   UNL     1      47.993   9.271  16.789  0.00  0.00    +0.000 OA
ATOM     33  C   UNL     1      49.174   9.968  16.409  0.00  0.00    +0.000 C 
ENDBRANCH  30  32
ENDBRANCH  20  23
ENDBRANCH  18  19
ENDBRANCH   4  18
TORSDOF 9
ENDMDL
MODEL 3
REMARK VINA RESULT:    -7.301      1.290      1.731
REMARK INTER + INTRA:         -12.375
REMARK INTER:                 -10.884
REMARK INTRA:                  -1.491
REMARK UNBOUND:                -1.233
REMARK  Name = 
REMARK  11 active torsions:
REMARK  status: ('A' for Active; 'I' for Inactive)
REMARK    1  A    between atoms: C_1  and  O_2
REMARK    2  A    between atoms: O_2  and  C_3
REMARK    3  A    between atoms: C_6  and  C_7
REMARK    4  A    between atoms: C_7  and  O_8
REMARK    5  A    between atoms: O_8  and  C_9
REMARK    6  A    between atoms: C_9  and  C_10
REMARK    7  A    between atoms: C_13  and  C_14
REMARK    8  A    between atoms: C_14  and  N_15
REMARK    9  A    between atoms: C_16  and  C_18
REMARK   10  A    between atoms: C_25  and  O_26
REMARK   11  A    between atoms: O_26  and  C_27
REMARK                            x       y       z     vdW  Elec       q    Type
REMARK                         _______ _______ _______ _____ _____    ______ ____
ROOT
ATOM      1  C   UNL     1      45.391   6.726  12.084  0.00  0.00    +0.000 A 
ATOM      2  C   UNL     1      46.588   5.999  12.121  0.00  0.00    +0.000 A 
ATOM      3  C   UNL     1      47.744   6.549  12.687  0.00  0.00    +0.000 A 
ATOM      4  C   UNL     1      47.721   7.832  13.248  0.00  0.00    +0.000 A 
ATOM      5  C   UNL     1      46.525   8.561  13.204  0.00  0.00    +0.000 A 
ATOM      6  C   UNL     1      45.374   8.017  12.626  0.00  0.00    +0.000 A 
ENDROOT
BRANCH   1   7
ATOM      7  C   UNL     1      44.152   6.133  11.459  0.00  0.00    +0.000 C 
BRANCH   7   8
ATOM      8  O   UNL     1      44.336   4.732  11.289  0.00  0.00    +0.000 OA
BRANCH   8   9
ATOM      9  C   UNL     1      43.749   4.265  10.075  0.00  0.00    +0.000 C 
BRANCH   9  13
ATOM     10  C   UNL     1      46.662   2.270   7.564  0.00  0.00    +0.000 A 
ATOM     11  C   UNL     1      45.857   1.528   8.427  0.00  0.00    +0.000 A 
ATOM     12  C   UNL     1      44.921   2.170   9.244  0.00  0.00    +0.000 A 
ATOM     13  C   UNL     1      44.780   3.565   9.222  0.00  0.00    +0.000 A 
ATOM     14  C   UNL     1      45.577   4.301   8.337  0.00  0.00    +0.000 A 
ATOM     15  C   UNL     1      46.512   3.657   7.520  0.00  0.00    +0.000 A 
BRANCH  10  17
ATOM     16  C   UNL     1      47.727   2.380   5.444  0.00  0.00    +0.000 C 
ATOM     17  O   UNL     1      47.617   1.768   6.723  0.00  0.00    +0.000 OA
ENDBRANCH  10  17
ENDBRANCH   9  13
ENDBRANCH   8   9
ENDBRANCH   7   8
ENDBRANCH   1   7
BRANCH   4  18
ATOM     18  C   UNL     1      48.961   8.438  13.855  0.00  0.00    +0.000 C 
BRANCH  18  19
ATOM     19  N   UNL     1      49.198   7.925  15.183  0.00  0.00    +0.000 N 
ATOM     20  C   UNL     1      50.424   7.442  15.559  0.00  0.00    +0.000 C 
ATOM     21  O   UNL     1      51.404   7.506  14.821  0.00  0.00    +0.000 OA
ATOM     22  H   UNL     1      48.395   7.685  15.748  0.00  0.00    +0.000 HD
BRANCH  20  23
ATOM     23  C   UNL     1      50.521   6.911  16.926  0.00  0.00    +0.000 A 
ATOM     24  C   UNL     1      51.465   7.452  17.789  0.00  0.00    +0.000 A 
ATOM     25  S   UNL     1      51.399   6.808  19.360  0.00  0.00    +0.000 S 
ATOM     26  C   UNL     1      50.152   5.741  18.924  0.00  0.00    +0.000 A 
ATOM     27  N   UNL     1      49.655   4.897  19.851  0.00  0.00    +0.000 NA
ATOM     28  C   UNL     1      48.695   4.079  19.399  0.00  0.00    +0.000 A 
ATOM     29  C   UNL     1      48.222   4.048  18.102  0.00  0.00    +0.000 A 
ATOM     30  C   UNL     1      48.756   4.936  17.165  0.00  0.00    +0.000 A 
ATOM     31  C   UNL     1      49.764   5.850  17.587  0.00  0.00    +0.000 A 
BRANCH  30  32
ATOM     32  O   UNL     1      48.368   4.972  15.850  0.00  0.00    +0.000 OA
ATOM     33  C   UNL     1      47.159   4.309  15.495  0.00  0.00    +0.000 C 
ENDBRANCH  30  32
ENDBRANCH  20  23
ENDBRANCH  18  19
ENDBRANCH   4  18
TORSDOF 9
ENDMDL
MODEL 4
REMARK VINA RESULT:    -6.769      1.983      2.703
REMARK INTER + INTRA:         -11.564
REMARK INTER:                 -10.300
REMARK INTRA:                  -1.264
REMARK UNBOUND:                -1.233
REMARK  Name = 
REMARK  11 active torsions:
REMARK  status: ('A' for Active; 'I' for Inactive)
REMARK    1  A    between atoms: C_1  and  O_2
REMARK    2  A    between atoms: O_2  and  C_3
REMARK    3  A    between atoms: C_6  and  C_7
REMARK    4  A    between atoms: C_7  and  O_8
REMARK    5  A    between atoms: O_8  and  C_9
REMARK    6  A    between atoms: C_9  and  C_10
REMARK    7  A    between atoms: C_13  and  C_14
REMARK    8  A    between atoms: C_14  and  N_15
REMARK    9  A    between atoms: C_16  and  C_18
REMARK   10  A    between atoms: C_25  and  O_26
REMARK   11  A    between atoms: O_26  and  C_27
REMARK                            x       y       z     vdW  Elec       q    Type
REMARK                         _______ _______ _______ _____ _____    ______ ____
ROOT
ATOM      1  C   UNL     1      46.063   4.804  13.002  0.00  0.00    +0.000 A 
ATOM      2  C   UNL     1      46.556   5.999  12.460  0.00  0.00    +0.000 A 
ATOM      3  C   UNL     1      47.504   6.762  13.151  0.00  0.00    +0.000 A 
ATOM      4  C   UNL     1      47.993   6.337  14.392  0.00  0.00    +0.000 A 
ATOM      5  C   UNL     1      47.495   5.146  14.936  0.00  0.00    +0.000 A 
ATOM      6  C   UNL     1      46.537   4.390  14.253  0.00  0.00    +0.000 A 
ENDROOT
BRANCH   1   7
ATOM      7  C   UNL     1      45.030   3.993  12.259  0.00  0.00    +0.000 C 
BRANCH   7   8
ATOM      8  O   UNL     1      44.355   4.831  11.327  0.00  0.00    +0.000 OA
BRANCH   8   9
ATOM      9  C   UNL     1      43.706   4.072  10.307  0.00  0.00    +0.000 C 
BRANCH   9  13
ATOM     10  C   UNL     1      46.655   2.469   7.568  0.00  0.00    +0.000 A 
ATOM     11  C   UNL     1      46.444   3.845   7.642  0.00  0.00    +0.000 A 
ATOM     12  C   UNL     1      45.487   4.365   8.520  0.00  0.00    +0.000 A 
ATOM     13  C   UNL     1      44.717   3.519   9.332  0.00  0.00    +0.000 A 
ATOM     14  C   UNL     1      44.951   2.140   9.268  0.00  0.00    +0.000 A 
ATOM     15  C   UNL     1      45.908   1.622   8.389  0.00  0.00    +0.000 A 
BRANCH  10  17
ATOM     16  C   UNL     1      47.656   2.324   5.419  0.00  0.00    +0.000 C 
ATOM     17  O   UNL     1      47.549   1.834   6.750  0.00  0.00    +0.000 OA
ENDBRANCH  10  17
ENDBRANCH   9  13
ENDBRANCH   8   9
ENDBRANCH   7   8
ENDBRANCH   1   7
BRANCH   4  18
ATOM     18  C   UNL     1      49.010   7.154  15.148  0.00  0.00    +0.000 C 
BRANCH  18  19
ATOM     19  N   UNL     1      48.416   7.798  16.295  0.00  0.00    +0.000 N 
ATOM     20  C   UNL     1      48.922   8.964  16.807  0.00  0.00    +0.000 C 
ATOM     21  O   UNL     1      49.844   9.568  16.264  0.00  0.00    +0.000 OA
ATOM     22  H   UNL     1      47.790   7.254  16.873  0.00  0.00    +0.000 HD
BRANCH  20  23
ATOM     23  C   UNL     1      48.250   9.494  18.002  0.00  0.00    +0.000 A 
ATOM     24  C   UNL     1      47.770  10.797  17.978  0.00  0.00    +0.000 A 
ATOM     25  S   UNL     1      46.936  11.241  19.389  0.00  0.00    +0.000 S 
ATOM     26  C   UNL     1      47.241   9.732  20.105  0.00  0.00    +0.000 A 
ATOM     27  N   UNL     1      46.781   9.489  21.349  0.00  0.00    +0.000 NA
ATOM     28  C   UNL     1      47.099   8.281  21.832  0.00  0.00    +0.000 A 
ATOM     29  C   UNL     1      47.842   7.327  21.165  0.00  0.00    +0.000 A 
ATOM     30  C   UNL     1      48.303   7.608  19.876  0.00  0.00    +0.000 A 
ATOM     31  C   UNL     1      47.978   8.867  19.293  0.00  0.00    +0.000 A 
BRANCH  30  32
ATOM     32  O   UNL     1      49.062   6.736  19.138  0.00  0.00    +0.000 OA
ATOM     33  C   UNL     1      50.438   6.604  19.474  0.00  0.00    +0.000 C 
ENDBRANCH  30  32
ENDBRANCH  20  23
ENDBRANCH  18  19
ENDBRANCH   4  18
TORSDOF 9
ENDMDL
MODEL 5
REMARK VINA RESULT:    -6.322      3.233      4.076
REMARK INTER + INTRA:         -10.881
REMARK INTER:                  -9.738
REMARK INTRA:                  -1.143
REMARK UNBOUND:                -1.233
REMARK  Name = 
REMARK  11 active torsions:
REMARK  status: ('A' for Active; 'I' for Inactive)
REMARK    1  A    between atoms: C_1  and  O_2
REMARK    2  A    between atoms: O_2  and  C_3
REMARK    3  A    between atoms: C_6  and  C_7
REMARK    4  A    between atoms: C_7  and  O_8
REMARK    5  A    between atoms: O_8  and  C_9
REMARK    6  A    between atoms: C_9  and  C_10
REMARK    7  A    between atoms: C_13  and  C_14
REMARK    8  A    between atoms: C_14  and  N_15
REMARK    9  A    between atoms: C_16  and  C_18
REMARK   10  A    between atoms: C_25  and  O_26
REMARK   11  A    between atoms: O_26  and  C_27
REMARK                            x       y       z     vdW  Elec       q    Type
REMARK                         _______ _______ _______ _____ _____    ______ ____
ROOT
ATOM      1  C   UNL     1      47.163   5.003  14.488  0.00  0.00    +0.000 A 
ATOM      2  C   UNL     1      47.980   6.117  14.247  0.00  0.00    +0.000 A 
ATOM      3  C   UNL     1      48.793   6.642  15.258  0.00  0.00    +0.000 A 
ATOM      4  C   UNL     1      48.823   6.050  16.527  0.00  0.00    +0.000 A 
ATOM      5  C   UNL     1      48.002   4.941  16.769  0.00  0.00    +0.000 A 
ATOM      6  C   UNL     1      47.178   4.425  15.763  0.00  0.00    +0.000 A 
ENDROOT
BRANCH   1   7
ATOM      7  C   UNL     1      46.277   4.452  13.399  0.00  0.00    +0.000 C 
BRANCH   7   8
ATOM      8  O   UNL     1      45.430   5.488  12.912  0.00  0.00    +0.000 OA
BRANCH   8   9
ATOM      9  C   UNL     1      44.285   4.963  12.241  0.00  0.00    +0.000 C 
BRANCH   9  13
ATOM     10  C   UNL     1      45.370   3.643   8.260  0.00  0.00    +0.000 A 
ATOM     11  C   UNL     1      45.778   4.895   8.718  0.00  0.00    +0.000 A 
ATOM     12  C   UNL     1      45.423   5.326  10.000  0.00  0.00    +0.000 A 
ATOM     13  C   UNL     1      44.645   4.520  10.844  0.00  0.00    +0.000 A 
ATOM     14  C   UNL     1      44.257   3.256  10.385  0.00  0.00    +0.000 A 
ATOM     15  C   UNL     1      44.613   2.825   9.102  0.00  0.00    +0.000 A 
BRANCH  10  17
ATOM     16  C   UNL     1      47.010   3.034   6.653  0.00  0.00    +0.000 C 
ATOM     17  O   UNL     1      45.640   3.107   7.031  0.00  0.00    +0.000 OA
ENDBRANCH  10  17
ENDBRANCH   9  13
ENDBRANCH   8   9
ENDBRANCH   7   8
ENDBRANCH   1   7
BRANCH   4  18
ATOM     18  C   UNL     1      49.691   6.610  17.626  0.00  0.00    +0.000 C 
BRANCH  18  19
ATOM     19  N   UNL     1      50.730   5.680  17.998  0.00  0.00    +0.000 N 
ATOM     20  C   UNL     1      51.911   5.608  17.307  0.00  0.00    +0.000 C 
ATOM     21  O   UNL     1      52.184   6.389  16.400  0.00  0.00    +0.000 OA
ATOM     22  H   UNL     1      50.482   4.909  18.602  0.00  0.00    +0.000 HD
BRANCH  20  23
ATOM     23  C   UNL     1      52.869   4.590  17.763  0.00  0.00    +0.000 A 
ATOM     24  C   UNL     1      54.121   4.998  18.203  0.00  0.00    +0.000 A 
ATOM     25  S   UNL     1      55.084   3.726  18.787  0.00  0.00    +0.000 S 
ATOM     26  C   UNL     1      53.888   2.581  18.413  0.00  0.00    +0.000 A 
ATOM     27  N   UNL     1      54.120   1.278  18.673  0.00  0.00    +0.000 NA
ATOM     28  C   UNL     1      53.126   0.455  18.315  0.00  0.00    +0.000 A 
ATOM     29  C   UNL     1      51.945   0.847  17.716  0.00  0.00    +0.000 A 
ATOM     30  C   UNL     1      51.733   2.204  17.462  0.00  0.00    +0.000 A 
ATOM     31  C   UNL     1      52.742   3.136  17.841  0.00  0.00    +0.000 A 
BRANCH  30  32
ATOM     32  O   UNL     1      50.603   2.692  16.856  0.00  0.00    +0.000 OA
ATOM     33  C   UNL     1      49.442   1.870  16.853  0.00  0.00    +0.000 C 
ENDBRANCH  30  32
ENDBRANCH  20  23
ENDBRANCH  18  19
ENDBRANCH   4  18
TORSDOF 9
ENDMDL
MODEL 6
REMARK VINA RESULT:    -6.094      2.798      4.469
REMARK INTER + INTRA:         -10.533
REMARK INTER:                  -9.169
REMARK INTRA:                  -1.364
REMARK UNBOUND:                -1.233
REMARK  Name = 
REMARK  11 active torsions:
REMARK  status: ('A' for Active; 'I' for Inactive)
REMARK    1  A    between atoms: C_1  and  O_2
REMARK    2  A    between atoms: O_2  and  C_3
REMARK    3  A    between atoms: C_6  and  C_7
REMARK    4  A    between atoms: C_7  and  O_8
REMARK    5  A    between atoms: O_8  and  C_9
REMARK    6  A    between atoms: C_9  and  C_10
REMARK    7  A    between atoms: C_13  and  C_14
REMARK    8  A    between atoms: C_14  and  N_15
REMARK    9  A    between atoms: C_16  and  C_18
REMARK   10  A    between atoms: C_25  and  O_26
REMARK   11  A    between atoms: O_26  and  C_27
REMARK                            x       y       z     vdW  Elec       q    Type
REMARK                         _______ _______ _______ _____ _____    ______ ____
ROOT
ATOM      1  C   UNL     1      47.964   7.766  13.387  0.00  0.00    +0.000 A 
ATOM      2  C   UNL     1      48.026   8.978  14.088  0.00  0.00    +0.000 A 
ATOM      3  C   UNL     1      48.555   9.031  15.383  0.00  0.00    +0.000 A 
ATOM      4  C   UNL     1      49.051   7.875  15.998  0.00  0.00    +0.000 A 
ATOM      5  C   UNL     1      48.982   6.663  15.299  0.00  0.00    +0.000 A 
ATOM      6  C   UNL     1      48.442   6.607  14.010  0.00  0.00    +0.000 A 
ENDROOT
BRANCH   1   7
ATOM      7  C   UNL     1      47.380   7.713  11.997  0.00  0.00    +0.000 C 
BRANCH   7   8
ATOM      8  O   UNL     1      46.005   8.079  12.051  0.00  0.00    +0.000 OA
BRANCH   8   9
ATOM      9  C   UNL     1      45.258   7.205  12.896  0.00  0.00    +0.000 C 
BRANCH   9  13
ATOM     10  C   UNL     1      44.277   3.502  10.872  0.00  0.00    +0.000 A 
ATOM     11  C   UNL     1      45.222   3.510  11.897  0.00  0.00    +0.000 A 
ATOM     12  C   UNL     1      45.546   4.706  12.547  0.00  0.00    +0.000 A 
ATOM     13  C   UNL     1      44.940   5.916  12.178  0.00  0.00    +0.000 A 
ATOM     14  C   UNL     1      43.976   5.895  11.163  0.00  0.00    +0.000 A 
ATOM     15  C   UNL     1      43.653   4.699  10.514  0.00  0.00    +0.000 A 
BRANCH  10  17
ATOM     16  C   UNL     1      44.743   1.981   9.108  0.00  0.00    +0.000 C 
ATOM     17  O   UNL     1      43.878   2.409  10.153  0.00  0.00    +0.000 OA
ENDBRANCH  10  17
ENDBRANCH   9  13
ENDBRANCH   8   9
ENDBRANCH   7   8
ENDBRANCH   1   7
BRANCH   4  18
ATOM     18  C   UNL     1      49.617   7.918  17.395  0.00  0.00    +0.000 C 
BRANCH  18  19
ATOM     19  N   UNL     1      50.541   6.833  17.620  0.00  0.00    +0.000 N 
ATOM     20  C   UNL     1      50.548   6.128  18.795  0.00  0.00    +0.000 C 
ATOM     21  O   UNL     1      49.714   6.320  19.676  0.00  0.00    +0.000 OA
ATOM     22  H   UNL     1      51.348   6.764  17.016  0.00  0.00    +0.000 HD
BRANCH  20  23
ATOM     23  C   UNL     1      51.566   5.074  18.913  0.00  0.00    +0.000 A 
ATOM     24  C   UNL     1      52.702   5.322  19.673  0.00  0.00    +0.000 A 
ATOM     25  S   UNL     1      53.743   3.986  19.797  0.00  0.00    +0.000 S 
ATOM     26  C   UNL     1      52.746   3.052  18.788  0.00  0.00    +0.000 A 
ATOM     27  N   UNL     1      53.107   1.786  18.498  0.00  0.00    +0.000 NA
ATOM     28  C   UNL     1      52.269   1.145  17.672  0.00  0.00    +0.000 A 
ATOM     29  C   UNL     1      51.123   1.687  17.124  0.00  0.00    +0.000 A 
ATOM     30  C   UNL     1      50.775   3.001  17.446  0.00  0.00    +0.000 A 
ATOM     31  C   UNL     1      51.612   3.731  18.339  0.00  0.00    +0.000 A 
BRANCH  30  32
ATOM     32  O   UNL     1      49.669   3.636  16.941  0.00  0.00    +0.000 OA
ATOM     33  C   UNL     1      48.395   3.260  17.452  0.00  0.00    +0.000 C 
ENDBRANCH  30  32
ENDBRANCH  20  23
ENDBRANCH  18  19
ENDBRANCH   4  18
TORSDOF 9
ENDMDL
MODEL 7
REMARK VINA RESULT:    -5.936      2.673      4.419
REMARK INTER + INTRA:         -10.292
REMARK INTER:                  -9.252
REMARK INTRA:                  -1.041
REMARK UNBOUND:                -1.233
REMARK  Name = 
REMARK  11 active torsions:
REMARK  status: ('A' for Active; 'I' for Inactive)
REMARK    1  A    between atoms: C_1  and  O_2
REMARK    2  A    between atoms: O_2  and  C_3
REMARK    3  A    between atoms: C_6  and  C_7
REMARK    4  A    between atoms: C_7  and  O_8
REMARK    5  A    between atoms: O_8  and  C_9
REMARK    6  A    between atoms: C_9  and  C_10
REMARK    7  A    between atoms: C_13  and  C_14
REMARK    8  A    between atoms: C_14  and  N_15
REMARK    9  A    between atoms: C_16  and  C_18
REMARK   10  A    between atoms: C_25  and  O_26
REMARK   11  A    between atoms: O_26  and  C_27
REMARK                            x       y       z     vdW  Elec       q    Type
REMARK                         _______ _______ _______ _____ _____    ______ ____
ROOT
ATOM      1  C   UNL     1      47.051   4.776  14.728  0.00  0.00    +0.000 A 
ATOM      2  C   UNL     1      47.773   5.976  14.651  0.00  0.00    +0.000 A 
ATOM      3  C   UNL     1      48.642   6.357  15.680  0.00  0.00    +0.000 A 
ATOM      4  C   UNL     1      48.823   5.536  16.800  0.00  0.00    +0.000 A 
ATOM      5  C   UNL     1      48.096   4.341  16.879  0.00  0.00    +0.000 A 
ATOM      6  C   UNL     1      47.217   3.966  15.858  0.00  0.00    +0.000 A 
ENDROOT
BRANCH   1   7
ATOM      7  C   UNL     1      46.105   4.378  13.623  0.00  0.00    +0.000 C 
BRANCH   7   8
ATOM      8  O   UNL     1      45.406   5.531  13.164  0.00  0.00    +0.000 OA
BRANCH   8   9
ATOM      9  C   UNL     1      44.245   5.180  12.411  0.00  0.00    +0.000 C 
BRANCH   9  13
ATOM     10  C   UNL     1      45.403   3.754   8.487  0.00  0.00    +0.000 A 
ATOM     11  C   UNL     1      45.851   4.994   8.941  0.00  0.00    +0.000 A 
ATOM     12  C   UNL     1      45.472   5.460  10.205  0.00  0.00    +0.000 A 
ATOM     13  C   UNL     1      44.632   4.701  11.033  0.00  0.00    +0.000 A 
ATOM     14  C   UNL     1      44.204   3.448  10.578  0.00  0.00    +0.000 A 
ATOM     15  C   UNL     1      44.583   2.983   9.314  0.00  0.00    +0.000 A 
BRANCH  10  17
ATOM     16  C   UNL     1      47.061   3.153   6.896  0.00  0.00    +0.000 C 
ATOM     17  O   UNL     1      45.690   3.189   7.275  0.00  0.00    +0.000 OA
ENDBRANCH  10  17
ENDBRANCH   9  13
ENDBRANCH   8   9
ENDBRANCH   7   8
ENDBRANCH   1   7
BRANCH   4  18
ATOM     18  C   UNL     1      49.751   5.939  17.918  0.00  0.00    +0.000 C 
BRANCH  18  19
ATOM     19  N   UNL     1      49.205   7.032  18.684  0.00  0.00    +0.000 N 
ATOM     20  C   UNL     1      48.174   6.846  19.567  0.00  0.00    +0.000 C 
ATOM     21  O   UNL     1      47.725   5.731  19.820  0.00  0.00    +0.000 OA
ATOM     22  H   UNL     1      49.409   7.974  18.379  0.00  0.00    +0.000 HD
BRANCH  20  23
ATOM     23  C   UNL     1      47.682   8.050  20.254  0.00  0.00    +0.000 A 
ATOM     24  C   UNL     1      47.329   7.959  21.594  0.00  0.00    +0.000 A 
ATOM     25  S   UNL     1      46.870   9.444  22.279  0.00  0.00    +0.000 S 
ATOM     26  C   UNL     1      47.066  10.246  20.795  0.00  0.00    +0.000 A 
ATOM     27  N   UNL     1      46.812  11.569  20.724  0.00  0.00    +0.000 NA
ATOM     28  C   UNL     1      46.969  12.099  19.504  0.00  0.00    +0.000 A 
ATOM     29  C   UNL     1      47.346  11.400  18.375  0.00  0.00    +0.000 A 
ATOM     30  C   UNL     1      47.605  10.031  18.481  0.00  0.00    +0.000 A 
ATOM     31  C   UNL     1      47.479   9.409  19.757  0.00  0.00    +0.000 A 
BRANCH  30  32
ATOM     32  O   UNL     1      47.967   9.245  17.417  0.00  0.00    +0.000 OA
ATOM     33  C   UNL     1      48.786   9.826  16.409  0.00  0.00    +0.000 C 
ENDBRANCH  30  32
ENDBRANCH  20  23
ENDBRANCH  18  19
ENDBRANCH   4  18
TORSDOF 9
ENDMDL
MODEL 8
REMARK VINA RESULT:    -5.884      2.044      3.250
REMARK INTER + INTRA:         -10.213
REMARK INTER:                  -8.737
REMARK INTRA:                  -1.476
REMARK UNBOUND:                -1.233
REMARK  Name = 
REMARK  11 active torsions:
REMARK  status: ('A' for Active; 'I' for Inactive)
REMARK    1  A    between atoms: C_1  and  O_2
REMARK    2  A    between atoms: O_2  and  C_3
REMARK    3  A    between atoms: C_6  and  C_7
REMARK    4  A    between atoms: C_7  and  O_8
REMARK    5  A    between atoms: O_8  and  C_9
REMARK    6  A    between atoms: C_9  and  C_10
REMARK    7  A    between atoms: C_13  and  C_14
REMARK    8  A    between atoms: C_14  and  N_15
REMARK    9  A    between atoms: C_16  and  C_18
REMARK   10  A    between atoms: C_25  and  O_26
REMARK   11  A    between atoms: O_26  and  C_27
REMARK                            x       y       z     vdW  Elec       q    Type
REMARK                         _______ _______ _______ _____ _____    ______ ____
ROOT
ATOM      1  C   UNL     1      46.767   8.542  12.678  0.00  0.00    +0.000 A 
ATOM      2  C   UNL     1      47.052   8.745  14.035  0.00  0.00    +0.000 A 
ATOM      3  C   UNL     1      48.318   8.450  14.554  0.00  0.00    +0.000 A 
ATOM      4  C   UNL     1      49.333   7.964  13.721  0.00  0.00    +0.000 A 
ATOM      5  C   UNL     1      49.045   7.755  12.366  0.00  0.00    +0.000 A 
ATOM      6  C   UNL     1      47.777   8.036  11.850  0.00  0.00    +0.000 A 
ENDROOT
BRANCH   1   7
ATOM      7  C   UNL     1      45.396   8.848  12.127  0.00  0.00    +0.000 C 
BRANCH   7   8
ATOM      8  O   UNL     1      44.933   7.733  11.372  0.00  0.00    +0.000 OA
BRANCH   8   9
ATOM      9  C   UNL     1      44.544   6.649  12.215  0.00  0.00    +0.000 C 
BRANCH   9  13
ATOM     10  C   UNL     1      44.460   2.964   9.938  0.00  0.00    +0.000 A 
ATOM     11  C   UNL     1      43.716   3.079  11.111  0.00  0.00    +0.000 A 
ATOM     12  C   UNL     1      43.747   4.265  11.852  0.00  0.00    +0.000 A 
ATOM     13  C   UNL     1      44.530   5.353  11.440  0.00  0.00    +0.000 A 
ATOM     14  C   UNL     1      45.257   5.238  10.250  0.00  0.00    +0.000 A 
ATOM     15  C   UNL     1      45.225   4.051   9.510  0.00  0.00    +0.000 A 
BRANCH  10  17
ATOM     16  C   UNL     1      45.775   1.603   8.503  0.00  0.00    +0.000 C 
ATOM     17  O   UNL     1      44.524   1.863   9.129  0.00  0.00    +0.000 OA
ENDBRANCH  10  17
ENDBRANCH   9  13
ENDBRANCH   8   9
ENDBRANCH   7   8
ENDBRANCH   1   7
BRANCH   4  18
ATOM     18  C   UNL     1      50.699   7.637  14.270  0.00  0.00    +0.000 C 
BRANCH  18  19
ATOM     19  N   UNL     1      50.627   7.251  15.658  0.00  0.00    +0.000 N 
ATOM     20  C   UNL     1      51.706   6.716  16.312  0.00  0.00    +0.000 C 
ATOM     21  O   UNL     1      52.810   6.624  15.782  0.00  0.00    +0.000 OA
ATOM     22  H   UNL     1      49.712   7.135  16.071  0.00  0.00    +0.000 HD
BRANCH  20  23
ATOM     23  C   UNL     1      51.488   6.326  17.713  0.00  0.00    +0.000 A 
ATOM     24  C   UNL     1      52.402   6.741  18.673  0.00  0.00    +0.000 A 
ATOM     25  S   UNL     1      51.973   6.298  20.256  0.00  0.00    +0.000 S 
ATOM     26  C   UNL     1      50.588   5.485  19.707  0.00  0.00    +0.000 A 
ATOM     27  N   UNL     1      49.787   4.873  20.603  0.00  0.00    +0.000 NA
ATOM     28  C   UNL     1      48.738   4.236  20.065  0.00  0.00    +0.000 A 
ATOM     29  C   UNL     1      48.455   4.168  18.715  0.00  0.00    +0.000 A 
ATOM     30  C   UNL     1      49.302   4.815  17.813  0.00  0.00    +0.000 A 
ATOM     31  C   UNL     1      50.425   5.531  18.321  0.00  0.00    +0.000 A 
BRANCH  30  32
ATOM     32  O   UNL     1      49.119   4.792  16.454  0.00  0.00    +0.000 OA
ATOM     33  C   UNL     1      47.784   4.740  15.963  0.00  0.00    +0.000 C 
ENDBRANCH  30  32
ENDBRANCH  20  23
ENDBRANCH  18  19
ENDBRANCH   4  18
TORSDOF 9
ENDMDL
MODEL 9
REMARK VINA RESULT:    -5.722      3.035      4.216
REMARK INTER + INTRA:          -9.967
REMARK INTER:                  -8.822
REMARK INTRA:                  -1.145
REMARK UNBOUND:                -1.233
REMARK  Name = 
REMARK  11 active torsions:
REMARK  status: ('A' for Active; 'I' for Inactive)
REMARK    1  A    between atoms: C_1  and  O_2
REMARK    2  A    between atoms: O_2  and  C_3
REMARK    3  A    between atoms: C_6  and  C_7
REMARK    4  A    between atoms: C_7  and  O_8
REMARK    5  A    between atoms: O_8  and  C_9
REMARK    6  A    between atoms: C_9  and  C_10
REMARK    7  A    between atoms: C_13  and  C_14
REMARK    8  A    between atoms: C_14  and  N_15
REMARK    9  A    between atoms: C_16  and  C_18
REMARK   10  A    between atoms: C_25  and  O_26
REMARK   11  A    between atoms: O_26  and  C_27
REMARK                            x       y       z     vdW  Elec       q    Type
REMARK                         _______ _______ _______ _____ _____    ______ ____
ROOT
ATOM      1  C   UNL     1      47.085   4.838  14.409  0.00  0.00    +0.000 A 
ATOM      2  C   UNL     1      47.746   6.040  14.119  0.00  0.00    +0.000 A 
ATOM      3  C   UNL     1      48.557   6.661  15.077  0.00  0.00    +0.000 A 
ATOM      4  C   UNL     1      48.740   6.081  16.338  0.00  0.00    +0.000 A 
ATOM      5  C   UNL     1      48.074   4.884  16.629  0.00  0.00    +0.000 A 
ATOM      6  C   UNL     1      47.253   4.270  15.677  0.00  0.00    +0.000 A 
ENDROOT
BRANCH   1   7
ATOM      7  C   UNL     1      46.201   4.181  13.377  0.00  0.00    +0.000 C 
BRANCH   7   8
ATOM      8  O   UNL     1      45.392   5.172  12.753  0.00  0.00    +0.000 OA
BRANCH   8   9
ATOM      9  C   UNL     1      44.307   4.590  12.031  0.00  0.00    +0.000 C 
BRANCH   9  13
ATOM     10  C   UNL     1      45.524   3.455   8.031  0.00  0.00    +0.000 A 
ATOM     11  C   UNL     1      44.792   2.567   8.818  0.00  0.00    +0.000 A 
ATOM     12  C   UNL     1      44.404   2.928  10.113  0.00  0.00    +0.000 A 
ATOM     13  C   UNL     1      44.749   4.177  10.648  0.00  0.00    +0.000 A 
ATOM     14  C   UNL     1      45.467   5.071   9.843  0.00  0.00    +0.000 A 
ATOM     15  C   UNL     1      45.854   4.709   8.549  0.00  0.00    +0.000 A 
BRANCH  10  17
ATOM     16  C   UNL     1      47.210   2.535   6.633  0.00  0.00    +0.000 C 
ATOM     17  O   UNL     1      45.971   3.224   6.759  0.00  0.00    +0.000 OA
ENDBRANCH  10  17
ENDBRANCH   9  13
ENDBRANCH   8   9
ENDBRANCH   7   8
ENDBRANCH   1   7
BRANCH   4  18
ATOM     18  C   UNL     1      49.606   6.744  17.380  0.00  0.00    +0.000 C 
BRANCH  18  19
ATOM     19  N   UNL     1      49.143   8.079  17.674  0.00  0.00    +0.000 N 
ATOM     20  C   UNL     1      49.963   9.013  18.251  0.00  0.00    +0.000 C 
ATOM     21  O   UNL     1      51.153   8.794  18.461  0.00  0.00    +0.000 OA
ATOM     22  H   UNL     1      48.146   8.241  17.692  0.00  0.00    +0.000 HD
BRANCH  20  23
ATOM     23  C   UNL     1      49.356  10.321  18.536  0.00  0.00    +0.000 A 
ATOM     24  C   UNL     1      50.014  11.470  18.115  0.00  0.00    +0.000 A 
ATOM     25  S   UNL     1      49.153  12.900  18.429  0.00  0.00    +0.000 S 
ATOM     26  C   UNL     1      47.904  12.040  19.193  0.00  0.00    +0.000 A 
ATOM     27  N   UNL     1      46.853  12.717  19.698  0.00  0.00    +0.000 NA
ATOM     28  C   UNL     1      45.938  11.949  20.305  0.00  0.00    +0.000 A 
ATOM     29  C   UNL     1      46.015  10.577  20.443  0.00  0.00    +0.000 A 
ATOM     30  C   UNL     1      47.116   9.904  19.907  0.00  0.00    +0.000 A 
ATOM     31  C   UNL     1      48.114  10.660  19.227  0.00  0.00    +0.000 A 
BRANCH  30  32
ATOM     32  O   UNL     1      47.295   8.548  20.006  0.00  0.00    +0.000 OA
ATOM     33  C   UNL     1      47.434   7.989  21.307  0.00  0.00    +0.000 C 
ENDBRANCH  30  32
ENDBRANCH  20  23
ENDBRANCH  18  19
ENDBRANCH   4  18
TORSDOF 9
ENDMDL
