MODEL 1
REMARK VINA RESULT:    -7.944      0.000      0.000
REMARK INTER + INTRA:         -11.687
REMARK INTER:                 -10.731
REMARK INTRA:                  -0.956
REMARK UNBOUND:                -0.956
REMARK  Name = 
REMARK  8 active torsions:
REMARK  status: ('A' for Active; 'I' for Inactive)
REMARK    1  A    between atoms: C_1  and  O_2
REMARK    2  A    between atoms: O_2  and  C_3
REMARK    3  A    between atoms: C_7  and  C_8
REMARK    4  A    between atoms: C_8  and  C_9
REMARK    5  A    between atoms: C_8  and  C_10
REMARK    6  A    between atoms: C_10  and  O_11
REMARK    7  A    between atoms: O_11  and  C_12
REMARK    8  A    between atoms: C_15  and  C_16
REMARK                            x       y       z     vdW  Elec       q    Type
REMARK                         _______ _______ _______ _____ _____    ______ ____
ROOT
ATOM      1  O   UNL     1      43.530   3.590  10.498  0.00  0.00    +0.000 OA
ENDROOT
BRANCH   1   2
ATOM      2  C   UNL     1      44.443   3.232   9.525  0.00  0.00    +0.000 A 
ATOM      3  C   UNL     1      44.960   4.248   8.739  0.00  0.00    +0.000 A 
ATOM      4  C   UNL     1      45.920   3.918   7.781  0.00  0.00    +0.000 A 
ATOM      5  C   UNL     1      46.334   2.586   7.639  0.00  0.00    +0.000 A 
ATOM      6  C   UNL     1      45.740   1.647   8.466  0.00  0.00    +0.000 A 
ATOM      7  N   UNL     1      44.807   1.937   9.401  0.00  0.00    +0.000 NA
BRANCH   5   8
ATOM      8  C   UNL     1      47.381   2.249   6.646  0.00  0.00    +0.000 C 
ATOM      9  N   UNL     1      47.498   3.012   5.517  0.00  0.00    +0.000 N 
ATOM     10  O   UNL     1      48.132   1.297   6.820  0.00  0.00    +0.000 OA
ATOM     11  H   UNL     1      46.939   3.815   5.274  0.00  0.00    +0.000 HD
ATOM     12  H   UNL     1      48.220   2.737   4.863  0.00  0.00    +0.000 HD
ENDBRANCH   5   8
ENDBRANCH   1   2
BRANCH   1  13
ATOM     13  C   UNL     1      43.529   5.002  10.743  0.00  0.00    +0.000 C 
BRANCH  13  14
ATOM     14  C   UNL     1      43.742   5.286  12.240  0.00  0.00    +0.000 C 
ATOM     15  C   UNL     1      43.359   4.070  13.093  0.00  0.00    +0.000 C 
BRANCH  14  20
ATOM     16  C   UNL     1      47.313   5.659  13.623  0.00  0.00    +0.000 A 
ATOM     17  C   UNL     1      47.892   6.468  12.648  0.00  0.00    +0.000 A 
ATOM     18  C   UNL     1      47.121   6.935  11.581  0.00  0.00    +0.000 A 
ATOM     19  C   UNL     1      45.773   6.585  11.479  0.00  0.00    +0.000 A 
ATOM     20  C   UNL     1      45.172   5.767  12.447  0.00  0.00    +0.000 A 
ATOM     21  C   UNL     1      45.959   5.323  13.522  0.00  0.00    +0.000 A 
BRANCH  16  23
ATOM     22  C   UNL     1      47.181   4.281  15.555  0.00  0.00    +0.000 C 
ATOM     23  O   UNL     1      47.953   5.116  14.703  0.00  0.00    +0.000 OA
ENDBRANCH  16  23
ENDBRANCH  14  20
ENDBRANCH  13  14
ENDBRANCH   1  13
TORSDOF 6
ENDMDL
MODEL 2
REMARK VINA RESULT:    -7.482      1.100      1.890
REMARK INTER + INTRA:         -11.064
REMARK INTER:                 -10.138
REMARK INTRA:                  -0.925
REMARK UNBOUND:                -0.956
REMARK  Name = 
REMARK  8 active torsions:
REMARK  status: ('A' for Active; 'I' for Inactive)
REMARK    1  A    between atoms: C_1  and  O_2
REMARK    2  A    between atoms: O_2  and  C_3
REMARK    3  A    between atoms: C_7  and  C_8
REMARK    4  A    between atoms: C_8  and  C_9
REMARK    5  A    between atoms: C_8  and  C_10
REMARK    6  A    between atoms: C_10  and  O_11
REMARK    7  A    between atoms: O_11  and  C_12
REMARK    8  A    between atoms: C_15  and  C_16
REMARK                            x       y       z     vdW  Elec       q    Type
REMARK                         _______ _______ _______ _____ _____    ______ ____
ROOT
ATOM      1  O   UNL     1      43.708   3.717  10.444  0.00  0.00    +0.000 OA
ENDROOT
BRANCH   1   2
ATOM      2  C   UNL     1      44.615   3.331   9.477  0.00  0.00    +0.000 A 
ATOM      3  C   UNL     1      45.138   4.325   8.668  0.00  0.00    +0.000 A 
ATOM      4  C   UNL     1      46.093   3.967   7.714  0.00  0.00    +0.000 A 
ATOM      5  C   UNL     1      46.495   2.629   7.600  0.00  0.00    +0.000 A 
ATOM      6  C   UNL     1      45.896   1.713   8.448  0.00  0.00    +0.000 A 
ATOM      7  N   UNL     1      44.968   2.031   9.380  0.00  0.00    +0.000 NA
BRANCH   5   8
ATOM      8  C   UNL     1      47.536   2.262   6.611  0.00  0.00    +0.000 C 
ATOM      9  N   UNL     1      47.680   3.022   5.483  0.00  0.00    +0.000 N 
ATOM     10  O   UNL     1      48.259   1.289   6.788  0.00  0.00    +0.000 OA
ATOM     11  H   UNL     1      47.146   3.841   5.238  0.00  0.00    +0.000 HD
ATOM     12  H   UNL     1      48.397   2.726   4.832  0.00  0.00    +0.000 HD
ENDBRANCH   5   8
ENDBRANCH   1   2
BRANCH   1  13
ATOM     13  C   UNL     1      43.590   5.143  10.534  0.00  0.00    +0.000 C 
BRANCH  13  14
ATOM     14  C   UNL     1      43.708   5.597  11.999  0.00  0.00    +0.000 C 
ATOM     15  C   UNL     1      42.893   4.688  12.927  0.00  0.00    +0.000 C 
BRANCH  14  20
ATOM     16  C   UNL     1      47.338   6.846  12.244  0.00  0.00    +0.000 A 
ATOM     17  C   UNL     1      47.834   6.025  13.255  0.00  0.00    +0.000 A 
ATOM     18  C   UNL     1      47.018   5.039  13.814  0.00  0.00    +0.000 A 
ATOM     19  C   UNL     1      45.703   4.879  13.375  0.00  0.00    +0.000 A 
ATOM     20  C   UNL     1      45.182   5.698  12.362  0.00  0.00    +0.000 A 
ATOM     21  C   UNL     1      46.024   6.670  11.799  0.00  0.00    +0.000 A 
BRANCH  16  23
ATOM     22  C   UNL     1      49.429   7.732  11.542  0.00  0.00    +0.000 C 
ATOM     23  O   UNL     1      48.016   7.860  11.626  0.00  0.00    +0.000 OA
ENDBRANCH  16  23
ENDBRANCH  14  20
ENDBRANCH  13  14
ENDBRANCH   1  13
TORSDOF 6
ENDMDL
MODEL 3
REMARK VINA RESULT:    -6.988      1.808      2.454
REMARK INTER + INTRA:         -10.396
REMARK INTER:                  -9.924
REMARK INTRA:                  -0.472
REMARK UNBOUND:                -0.956
REMARK  Name = 
REMARK  8 active torsions:
REMARK  status: ('A' for Active; 'I' for Inactive)
REMARK    1  A    between atoms: C_1  and  O_2
REMARK    2  A    between atoms: O_2  and  C_3
REMARK    3  A    between atoms: C_7  and  C_8
REMARK    4  A    between atoms: C_8  and  C_9
REMARK    5  A    between atoms: C_8  and  C_10
REMARK    6  A    between atoms: C_10  and  O_11
REMARK    7  A    between atoms: O_11  and  C_12
REMARK    8  A    between atoms: C_15  and  C_16
REMARK                            x       y       z     vdW  Elec       q    Type
REMARK                         _______ _______ _______ _____ _____    ______ ____
ROOT
ATOM      1  O   UNL     1      43.796   3.563  10.435  0.00  0.00    +0.000 OA
ENDROOT
BRANCH   1   2
ATOM      2  C   UNL     1      44.691   3.241   9.434  0.00  0.00    +0.000 A 
ATOM      3  C   UNL     1      45.220   4.286   8.697  0.00  0.00    +0.000 A 
ATOM      4  C   UNL     1      46.163   3.989   7.711  0.00  0.00    +0.000 A 
ATOM      5  C   UNL     1      46.548   2.659   7.493  0.00  0.00    +0.000 A 
ATOM      6  C   UNL     1      45.944   1.688   8.276  0.00  0.00    +0.000 A 
ATOM      7  N   UNL     1      45.027   1.947   9.236  0.00  0.00    +0.000 NA
BRANCH   5   8
ATOM      8  C   UNL     1      47.576   2.354   6.471  0.00  0.00    +0.000 C 
ATOM      9  N   UNL     1      47.512   2.979   5.255  0.00  0.00    +0.000 N 
ATOM     10  O   UNL     1      48.472   1.550   6.698  0.00  0.00    +0.000 OA
ATOM     11  H   UNL     1      46.824   3.655   4.963  0.00  0.00    +0.000 HD
ATOM     12  H   UNL     1      48.230   2.731   4.586  0.00  0.00    +0.000 HD
ENDBRANCH   5   8
ENDBRANCH   1   2
BRANCH   1  13
ATOM     13  C   UNL     1      44.035   4.873  10.968  0.00  0.00    +0.000 C 
BRANCH  13  14
ATOM     14  C   UNL     1      44.650   4.773  12.375  0.00  0.00    +0.000 C 
ATOM     15  C   UNL     1      45.398   3.448  12.559  0.00  0.00    +0.000 C 
BRANCH  14  20
ATOM     16  C   UNL     1      45.755   8.438  12.764  0.00  0.00    +0.000 A 
ATOM     17  C   UNL     1      47.010   8.276  13.345  0.00  0.00    +0.000 A 
ATOM     18  C   UNL     1      47.519   6.993  13.559  0.00  0.00    +0.000 A 
ATOM     19  C   UNL     1      46.771   5.869  13.205  0.00  0.00    +0.000 A 
ATOM     20  C   UNL     1      45.503   6.010  12.623  0.00  0.00    +0.000 A 
ATOM     21  C   UNL     1      45.016   7.307  12.398  0.00  0.00    +0.000 A 
BRANCH  16  23
ATOM     22  C   UNL     1      45.846  10.587  11.753  0.00  0.00    +0.000 C 
ATOM     23  O   UNL     1      45.128   9.629  12.518  0.00  0.00    +0.000 OA
ENDBRANCH  16  23
ENDBRANCH  14  20
ENDBRANCH  13  14
ENDBRANCH   1  13
TORSDOF 6
ENDMDL
MODEL 4
REMARK VINA RESULT:    -6.361      3.279      7.470
REMARK INTER + INTRA:          -9.549
REMARK INTER:                  -8.993
REMARK INTRA:                  -0.556
REMARK UNBOUND:                -0.956
REMARK  Name = 
REMARK  8 active torsions:
REMARK  status: ('A' for Active; 'I' for Inactive)
REMARK    1  A    between atoms: C_1  and  O_2
REMARK    2  A    between atoms: O_2  and  C_3
REMARK    3  A    between atoms: C_7  and  C_8
REMARK    4  A    between atoms: C_8  and  C_9
REMARK    5  A    between atoms: C_8  and  C_10
REMARK    6  A    between atoms: C_10  and  O_11
REMARK    7  A    between atoms: O_11  and  C_12
REMARK    8  A    between atoms: C_15  and  C_16
REMARK                            x       y       z     vdW  Elec       q    Type
REMARK                         _______ _______ _______ _____ _____    ______ ____
ROOT
ATOM      1  O   UNL     1      46.752   4.421  13.293  0.00  0.00    +0.000 OA
ENDROOT
BRANCH   1   2
ATOM      2  C   UNL     1      47.336   4.281  14.536  0.00  0.00    +0.000 A 
ATOM      3  C   UNL     1      47.657   5.442  15.218  0.00  0.00    +0.000 A 
ATOM      4  C   UNL     1      48.203   5.326  16.498  0.00  0.00    +0.000 A 
ATOM      5  C   UNL     1      48.411   4.057  17.055  0.00  0.00    +0.000 A 
ATOM      6  C   UNL     1      48.069   2.962  16.279  0.00  0.00    +0.000 A 
ATOM      7  N   UNL     1      47.539   3.043  15.038  0.00  0.00    +0.000 NA
BRANCH   5   8
ATOM      8  C   UNL     1      48.957   3.943  18.428  0.00  0.00    +0.000 C 
ATOM      9  N   UNL     1      48.386   3.055  19.299  0.00  0.00    +0.000 N 
ATOM     10  O   UNL     1      49.901   4.633  18.791  0.00  0.00    +0.000 OA
ATOM     11  H   UNL     1      47.613   2.438  19.107  0.00  0.00    +0.000 HD
ATOM     12  H   UNL     1      48.787   3.019  20.228  0.00  0.00    +0.000 HD
ENDBRANCH   5   8
ENDBRANCH   1   2
BRANCH   1  13
ATOM     13  C   UNL     1      45.535   5.178  13.351  0.00  0.00    +0.000 C 
BRANCH  13  14
ATOM     14  C   UNL     1      45.342   5.980  12.052  0.00  0.00    +0.000 C 
ATOM     15  C   UNL     1      46.537   6.904  11.789  0.00  0.00    +0.000 C 
BRANCH  14  20
ATOM     16  C   UNL     1      45.447   4.180   8.654  0.00  0.00    +0.000 A 
ATOM     17  C   UNL     1      44.683   3.047   8.930  0.00  0.00    +0.000 A 
ATOM     18  C   UNL     1      44.094   2.894  10.186  0.00  0.00    +0.000 A 
ATOM     19  C   UNL     1      44.275   3.864  11.174  0.00  0.00    +0.000 A 
ATOM     20  C   UNL     1      45.044   5.008  10.919  0.00  0.00    +0.000 A 
ATOM     21  C   UNL     1      45.612   5.154   9.643  0.00  0.00    +0.000 A 
BRANCH  16  23
ATOM     22  C   UNL     1      46.750   3.356   6.845  0.00  0.00    +0.000 C 
ATOM     23  O   UNL     1      46.096   4.447   7.480  0.00  0.00    +0.000 OA
ENDBRANCH  16  23
ENDBRANCH  14  20
ENDBRANCH  13  14
ENDBRANCH   1  13
TORSDOF 6
ENDMDL
MODEL 5
REMARK VINA RESULT:    -6.212      1.697      2.231
REMARK INTER + INTRA:          -9.348
REMARK INTER:                  -8.656
REMARK INTRA:                  -0.691
REMARK UNBOUND:                -0.956
REMARK  Name = 
REMARK  8 active torsions:
REMARK  status: ('A' for Active; 'I' for Inactive)
REMARK    1  A    between atoms: C_1  and  O_2
REMARK    2  A    between atoms: O_2  and  C_3
REMARK    3  A    between atoms: C_7  and  C_8
REMARK    4  A    between atoms: C_8  and  C_9
REMARK    5  A    between atoms: C_8  and  C_10
REMARK    6  A    between atoms: C_10  and  O_11
REMARK    7  A    between atoms: O_11  and  C_12
REMARK    8  A    between atoms: C_15  and  C_16
REMARK                            x       y       z     vdW  Elec       q    Type
REMARK                         _______ _______ _______ _____ _____    ______ ____
ROOT
ATOM      1  O   UNL     1      43.741   4.471  11.156  0.00  0.00    +0.000 OA
ENDROOT
BRANCH   1   2
ATOM      2  C   UNL     1      44.443   3.952  10.086  0.00  0.00    +0.000 A 
ATOM      3  C   UNL     1      45.195   4.838   9.334  0.00  0.00    +0.000 A 
ATOM      4  C   UNL     1      45.951   4.330   8.276  0.00  0.00    +0.000 A 
ATOM      5  C   UNL     1      45.933   2.955   8.003  0.00  0.00    +0.000 A 
ATOM      6  C   UNL     1      45.133   2.160   8.808  0.00  0.00    +0.000 A 
ATOM      7  N   UNL     1      44.390   2.625   9.838  0.00  0.00    +0.000 NA
BRANCH   5   8
ATOM      8  C   UNL     1      46.767   2.418   6.903  0.00  0.00    +0.000 C 
ATOM      9  N   UNL     1      47.599   1.360   7.154  0.00  0.00    +0.000 N 
ATOM     10  O   UNL     1      46.726   2.910   5.782  0.00  0.00    +0.000 OA
ATOM     11  H   UNL     1      47.710   0.878   8.032  0.00  0.00    +0.000 HD
ATOM     12  H   UNL     1      48.156   1.035   6.373  0.00  0.00    +0.000 HD
ENDBRANCH   5   8
ENDBRANCH   1   2
BRANCH   1  13
ATOM     13  C   UNL     1      44.054   5.850  11.388  0.00  0.00    +0.000 C 
BRANCH  13  14
ATOM     14  C   UNL     1      44.689   6.028  12.778  0.00  0.00    +0.000 C 
ATOM     15  C   UNL     1      45.130   4.680  13.361  0.00  0.00    +0.000 C 
BRANCH  14  20
ATOM     16  C   UNL     1      48.164   7.631  12.382  0.00  0.00    +0.000 A 
ATOM     17  C   UNL     1      47.821   8.971  12.221  0.00  0.00    +0.000 A 
ATOM     18  C   UNL     1      46.482   9.362  12.295  0.00  0.00    +0.000 A 
ATOM     19  C   UNL     1      45.482   8.414  12.518  0.00  0.00    +0.000 A 
ATOM     20  C   UNL     1      45.805   7.058  12.677  0.00  0.00    +0.000 A 
ATOM     21  C   UNL     1      47.158   6.688  12.619  0.00  0.00    +0.000 A 
BRANCH  16  23
ATOM     22  C   UNL     1      50.305   7.679  11.352  0.00  0.00    +0.000 C 
ATOM     23  O   UNL     1      49.426   7.108  12.312  0.00  0.00    +0.000 OA
ENDBRANCH  16  23
ENDBRANCH  14  20
ENDBRANCH  13  14
ENDBRANCH   1  13
TORSDOF 6
ENDMDL
MODEL 6
REMARK VINA RESULT:    -6.190      3.573      7.881
REMARK INTER + INTRA:          -9.318
REMARK INTER:                  -8.782
REMARK INTRA:                  -0.536
REMARK UNBOUND:                -0.956
REMARK  Name = 
REMARK  8 active torsions:
REMARK  status: ('A' for Active; 'I' for Inactive)
REMARK    1  A    between atoms: C_1  and  O_2
REMARK    2  A    between atoms: O_2  and  C_3
REMARK    3  A    between atoms: C_7  and  C_8
REMARK    4  A    between atoms: C_8  and  C_9
REMARK    5  A    between atoms: C_8  and  C_10
REMARK    6  A    between atoms: C_10  and  O_11
REMARK    7  A    between atoms: O_11  and  C_12
REMARK    8  A    between atoms: C_15  and  C_16
REMARK                            x       y       z     vdW  Elec       q    Type
REMARK                         _______ _______ _______ _____ _____    ______ ____
ROOT
ATOM      1  O   UNL     1      47.278   5.085  13.635  0.00  0.00    +0.000 OA
ENDROOT
BRANCH   1   2
ATOM      2  C   UNL     1      47.619   4.955  14.967  0.00  0.00    +0.000 A 
ATOM      3  C   UNL     1      47.026   3.924  15.674  0.00  0.00    +0.000 A 
ATOM      4  C   UNL     1      47.391   3.742  17.009  0.00  0.00    +0.000 A 
ATOM      5  C   UNL     1      48.336   4.595  17.595  0.00  0.00    +0.000 A 
ATOM      6  C   UNL     1      48.855   5.605  16.802  0.00  0.00    +0.000 A 
ATOM      7  N   UNL     1      48.520   5.806  15.507  0.00  0.00    +0.000 NA
BRANCH   5   8
ATOM      8  C   UNL     1      48.747   4.374  19.001  0.00  0.00    +0.000 C 
ATOM      9  N   UNL     1      48.403   3.202  19.619  0.00  0.00    +0.000 N 
ATOM     10  O   UNL     1      49.379   5.225  19.615  0.00  0.00    +0.000 OA
ATOM     11  H   UNL     1      47.890   2.437  19.211  0.00  0.00    +0.000 HD
ATOM     12  H   UNL     1      48.697   3.101  20.582  0.00  0.00    +0.000 HD
ENDBRANCH   5   8
ENDBRANCH   1   2
BRANCH   1  13
ATOM     13  C   UNL     1      45.858   5.133  13.445  0.00  0.00    +0.000 C 
BRANCH  13  14
ATOM     14  C   UNL     1      45.515   5.941  12.181  0.00  0.00    +0.000 C 
ATOM     15  C   UNL     1      46.650   6.905  11.816  0.00  0.00    +0.000 C 
BRANCH  14  20
ATOM     16  C   UNL     1      45.361   4.166   8.772  0.00  0.00    +0.000 A 
ATOM     17  C   UNL     1      44.643   3.019   9.102  0.00  0.00    +0.000 A 
ATOM     18  C   UNL     1      44.164   2.847  10.403  0.00  0.00    +0.000 A 
ATOM     19  C   UNL     1      44.412   3.813  11.379  0.00  0.00    +0.000 A 
ATOM     20  C   UNL     1      45.138   4.972  11.069  0.00  0.00    +0.000 A 
ATOM     21  C   UNL     1      45.594   5.137   9.752  0.00  0.00    +0.000 A 
BRANCH  16  23
ATOM     22  C   UNL     1      46.465   3.365   6.825  0.00  0.00    +0.000 C 
ATOM     23  O   UNL     1      45.904   4.452   7.549  0.00  0.00    +0.000 OA
ENDBRANCH  16  23
ENDBRANCH  14  20
ENDBRANCH  13  14
ENDBRANCH   1  13
TORSDOF 6
ENDMDL
MODEL 7
REMARK VINA RESULT:    -6.006      3.372      6.175
REMARK INTER + INTRA:          -9.070
REMARK INTER:                  -8.562
REMARK INTRA:                  -0.508
REMARK UNBOUND:                -0.956
REMARK  Name = 
REMARK  8 active torsions:
REMARK  status: ('A' for Active; 'I' for Inactive)
REMARK    1  A    between atoms: C_1  and  O_2
REMARK    2  A    between atoms: O_2  and  C_3
REMARK    3  A    between atoms: C_7  and  C_8
REMARK    4  A    between atoms: C_8  and  C_9
REMARK    5  A    between atoms: C_8  and  C_10
REMARK    6  A    between atoms: C_10  and  O_11
REMARK    7  A    between atoms: O_11  and  C_12
REMARK    8  A    between atoms: C_15  and  C_16
REMARK                            x       y       z     vdW  Elec       q    Type
REMARK                         _______ _______ _______ _____ _____    ______ ____
ROOT
ATOM      1  O   UNL     1      47.736   4.167  14.686  0.00  0.00    +0.000 OA
ENDROOT
BRANCH   1   2
ATOM      2  C   UNL     1      46.713   4.361  13.778  0.00  0.00    +0.000 A 
ATOM      3  C   UNL     1      46.372   5.668  13.479  0.00  0.00    +0.000 A 
ATOM      4  C   UNL     1      45.373   5.889  12.528  0.00  0.00    +0.000 A 
ATOM      5  C   UNL     1      44.749   4.799  11.907  0.00  0.00    +0.000 A 
ATOM      6  C   UNL     1      45.156   3.532  12.293  0.00  0.00    +0.000 A 
ATOM      7  N   UNL     1      46.118   3.288  13.211  0.00  0.00    +0.000 NA
BRANCH   5   8
ATOM      8  C   UNL     1      43.716   5.041  10.872  0.00  0.00    +0.000 C 
ATOM      9  N   UNL     1      43.983   4.700   9.574  0.00  0.00    +0.000 N 
ATOM     10  O   UNL     1      42.639   5.546  11.162  0.00  0.00    +0.000 OA
ATOM     11  H   UNL     1      44.829   4.279   9.225  0.00  0.00    +0.000 HD
ATOM     12  H   UNL     1      43.251   4.894   8.901  0.00  0.00    +0.000 HD
ENDBRANCH   5   8
ENDBRANCH   1   2
BRANCH   1  13
ATOM     13  C   UNL     1      47.243   3.931  16.011  0.00  0.00    +0.000 C 
BRANCH  13  14
ATOM     14  C   UNL     1      47.916   4.889  17.010  0.00  0.00    +0.000 C 
ATOM     15  C   UNL     1      47.030   5.114  18.242  0.00  0.00    +0.000 C 
BRANCH  14  20
ATOM     16  C   UNL     1      50.916   2.525  17.467  0.00  0.00    +0.000 A 
ATOM     17  C   UNL     1      51.948   3.441  17.665  0.00  0.00    +0.000 A 
ATOM     18  C   UNL     1      51.667   4.808  17.706  0.00  0.00    +0.000 A 
ATOM     19  C   UNL     1      50.359   5.266  17.537  0.00  0.00    +0.000 A 
ATOM     20  C   UNL     1      49.307   4.361  17.330  0.00  0.00    +0.000 A 
ATOM     21  C   UNL     1      49.606   2.990  17.312  0.00  0.00    +0.000 A 
BRANCH  16  23
ATOM     22  C   UNL     1      52.321   0.625  17.717  0.00  0.00    +0.000 C 
ATOM     23  O   UNL     1      51.051   1.166  17.383  0.00  0.00    +0.000 OA
ENDBRANCH  16  23
ENDBRANCH  14  20
ENDBRANCH  13  14
ENDBRANCH   1  13
TORSDOF 6
ENDMDL
MODEL 8
REMARK VINA RESULT:    -5.831      3.274      6.125
REMARK INTER + INTRA:          -8.833
REMARK INTER:                  -8.322
REMARK INTRA:                  -0.511
REMARK UNBOUND:                -0.956
REMARK  Name = 
REMARK  8 active torsions:
REMARK  status: ('A' for Active; 'I' for Inactive)
REMARK    1  A    between atoms: C_1  and  O_2
REMARK    2  A    between atoms: O_2  and  C_3
REMARK    3  A    between atoms: C_7  and  C_8
REMARK    4  A    between atoms: C_8  and  C_9
REMARK    5  A    between atoms: C_8  and  C_10
REMARK    6  A    between atoms: C_10  and  O_11
REMARK    7  A    between atoms: O_11  and  C_12
REMARK    8  A    between atoms: C_15  and  C_16
REMARK                            x       y       z     vdW  Elec       q    Type
REMARK                         _______ _______ _______ _____ _____    ______ ____
ROOT
ATOM      1  O   UNL     1      47.460   3.450  14.511  0.00  0.00    +0.000 OA
ENDROOT
BRANCH   1   2
ATOM      2  C   UNL     1      46.506   3.803  13.577  0.00  0.00    +0.000 A 
ATOM      3  C   UNL     1      46.312   5.155  13.351  0.00  0.00    +0.000 A 
ATOM      4  C   UNL     1      45.387   5.535  12.377  0.00  0.00    +0.000 A 
ATOM      5  C   UNL     1      44.687   4.556  11.659  0.00  0.00    +0.000 A 
ATOM      6  C   UNL     1      44.946   3.232  11.977  0.00  0.00    +0.000 A 
ATOM      7  N   UNL     1      45.834   2.834  12.915  0.00  0.00    +0.000 NA
BRANCH   5   8
ATOM      8  C   UNL     1      43.734   4.966  10.602  0.00  0.00    +0.000 C 
ATOM      9  N   UNL     1      43.946   4.546   9.316  0.00  0.00    +0.000 N 
ATOM     10  O   UNL     1      42.771   5.678  10.861  0.00  0.00    +0.000 OA
ATOM     11  H   UNL     1      44.698   3.960   8.992  0.00  0.00    +0.000 HD
ATOM     12  H   UNL     1      43.274   4.861   8.627  0.00  0.00    +0.000 HD
ENDBRANCH   5   8
ENDBRANCH   1   2
BRANCH   1  13
ATOM     13  C   UNL     1      47.337   4.209  15.720  0.00  0.00    +0.000 C 
BRANCH  13  14
ATOM     14  C   UNL     1      47.694   3.338  16.937  0.00  0.00    +0.000 C 
ATOM     15  C   UNL     1      48.815   2.347  16.598  0.00  0.00    +0.000 C 
BRANCH  14  20
ATOM     16  C   UNL     1      47.739   6.370  19.304  0.00  0.00    +0.000 A 
ATOM     17  C   UNL     1      48.364   5.824  20.423  0.00  0.00    +0.000 A 
ATOM     18  C   UNL     1      48.817   4.504  20.393  0.00  0.00    +0.000 A 
ATOM     19  C   UNL     1      48.636   3.721  19.251  0.00  0.00    +0.000 A 
ATOM     20  C   UNL     1      48.004   4.249  18.116  0.00  0.00    +0.000 A 
ATOM     21  C   UNL     1      47.574   5.585  18.158  0.00  0.00    +0.000 A 
BRANCH  16  23
ATOM     22  C   UNL     1      47.981   8.572  18.442  0.00  0.00    +0.000 C 
ATOM     23  O   UNL     1      47.230   7.636  19.203  0.00  0.00    +0.000 OA
ENDBRANCH  16  23
ENDBRANCH  14  20
ENDBRANCH  13  14
ENDBRANCH   1  13
TORSDOF 6
ENDMDL
MODEL 9
REMARK VINA RESULT:    -5.689      3.445      6.304
REMARK INTER + INTRA:          -8.641
REMARK INTER:                  -8.181
REMARK INTRA:                  -0.460
REMARK UNBOUND:                -0.956
REMARK  Name = 
REMARK  8 active torsions:
REMARK  status: ('A' for Active; 'I' for Inactive)
REMARK    1  A    between atoms: C_1  and  O_2
REMARK    2  A    between atoms: O_2  and  C_3
REMARK    3  A    between atoms: C_7  and  C_8
REMARK    4  A    between atoms: C_8  and  C_9
REMARK    5  A    between atoms: C_8  and  C_10
REMARK    6  A    between atoms: C_10  and  O_11
REMARK    7  A    between atoms: O_11  and  C_12
REMARK    8  A    between atoms: C_15  and  C_16
REMARK                            x       y       z     vdW  Elec       q    Type
REMARK                         _______ _______ _______ _____ _____    ______ ____
ROOT
ATOM      1  O   UNL     1      47.721   4.750  14.607  0.00  0.00    +0.000 OA
ENDROOT
BRANCH   1   2
ATOM      2  C   UNL     1      46.690   4.793  13.689  0.00  0.00    +0.000 A 
ATOM      3  C   UNL     1      46.364   6.030  13.162  0.00  0.00    +0.000 A 
ATOM      4  C   UNL     1      45.357   6.092  12.196  0.00  0.00    +0.000 A 
ATOM      5  C   UNL     1      44.709   4.918  11.788  0.00  0.00    +0.000 A 
ATOM      6  C   UNL     1      45.103   3.735  12.392  0.00  0.00    +0.000 A 
ATOM      7  N   UNL     1      46.073   3.645  13.330  0.00  0.00    +0.000 NA
BRANCH   5   8
ATOM      8  C   UNL     1      43.668   4.986  10.736  0.00  0.00    +0.000 C 
ATOM      9  N   UNL     1      44.005   4.680   9.446  0.00  0.00    +0.000 N 
ATOM     10  O   UNL     1      42.520   5.317  11.006  0.00  0.00    +0.000 OA
ATOM     11  H   UNL     1      44.912   4.395   9.113  0.00  0.00    +0.000 HD
ATOM     12  H   UNL     1      43.262   4.751   8.761  0.00  0.00    +0.000 HD
ENDBRANCH   5   8
ENDBRANCH   1   2
BRANCH   1  13
ATOM     13  C   UNL     1      47.293   4.233  15.874  0.00  0.00    +0.000 C 
BRANCH  13  14
ATOM     14  C   UNL     1      48.137   4.837  17.010  0.00  0.00    +0.000 C 
ATOM     15  C   UNL     1      47.314   4.974  18.297  0.00  0.00    +0.000 C 
BRANCH  14  20
ATOM     16  C   UNL     1      51.736   3.790  17.874  0.00  0.00    +0.000 A 
ATOM     17  C   UNL     1      51.660   2.409  17.701  0.00  0.00    +0.000 A 
ATOM     18  C   UNL     1      50.471   1.827  17.256  0.00  0.00    +0.000 A 
ATOM     19  C   UNL     1      49.352   2.621  16.994  0.00  0.00    +0.000 A 
ATOM     20  C   UNL     1      49.406   4.012  17.167  0.00  0.00    +0.000 A 
ATOM     21  C   UNL     1      50.616   4.580  17.596  0.00  0.00    +0.000 A 
BRANCH  16  23
ATOM     22  C   UNL     1      53.251   4.225  19.653  0.00  0.00    +0.000 C 
ATOM     23  O   UNL     1      52.825   4.486  18.323  0.00  0.00    +0.000 OA
ENDBRANCH  16  23
ENDBRANCH  14  20
ENDBRANCH  13  14
ENDBRANCH   1  13
TORSDOF 6
ENDMDL
