MODEL 1
REMARK VINA RESULT:    -8.415      0.000      0.000
REMARK INTER + INTRA:         -13.354
REMARK INTER:                 -12.105
REMARK INTRA:                  -1.249
REMARK UNBOUND:                -1.249
REMARK  Name = 
REMARK  8 active torsions:
REMARK  status: ('A' for Active; 'I' for Inactive)
REMARK    1  A    between atoms: C_2  and  C_21
REMARK    2  A    between atoms: N_3  and  C_4
REMARK    3  A    between atoms: C_4  and  C_5
REMARK    4  A    between atoms: C_8  and  C_9
REMARK    5  A    between atoms: C_9  and  C_10
REMARK    6  A    between atoms: C_9  and  C_12
REMARK    7  A    between atoms: C_10  and  O_11
REMARK    8  A    between atoms: C_12  and  C_13
REMARK                            x       y       z     vdW  Elec       q    Type
REMARK                         _______ _______ _______ _____ _____    ______ ____
ROOT
ATOM      1  C   UNL     1      46.718   6.373  12.743  0.00  0.00    +0.000 A 
ATOM      2  C   UNL     1      46.519   5.151  13.396  0.00  0.00    +0.000 A 
ATOM      3  C   UNL     1      45.826   4.110  12.767  0.00  0.00    +0.000 A 
ATOM      4  C   UNL     1      45.323   4.269  11.467  0.00  0.00    +0.000 A 
ATOM      5  C   UNL     1      45.506   5.507  10.833  0.00  0.00    +0.000 A 
ATOM      6  C   UNL     1      46.221   6.533  11.447  0.00  0.00    +0.000 A 
ENDROOT
BRANCH   1   7
ATOM      7  C   UNL     1      47.450   7.505  13.408  0.00  0.00    +0.000 C 
BRANCH   7  10
ATOM      8  O   UNL     1      49.964   7.022  14.403  0.00  0.00    +0.000 OA
ATOM      9  C   UNL     1      49.034   7.092  15.203  0.00  0.00    +0.000 C 
ATOM     10  N   UNL     1      47.732   7.235  14.793  0.00  0.00    +0.000 N 
ATOM     11  H   UNL     1      47.016   7.480  15.469  0.00  0.00    +0.000 HD
BRANCH   9  12
ATOM     12  C   UNL     1      49.271   6.995  16.647  0.00  0.00    +0.000 A 
ATOM     13  C   UNL     1      49.811   8.075  17.330  0.00  0.00    +0.000 A 
ATOM     14  S   UNL     1      49.995   7.804  19.003  0.00  0.00    +0.000 S 
ATOM     15  C   UNL     1      49.322   6.245  18.877  0.00  0.00    +0.000 A 
ATOM     16  N   UNL     1      49.142   5.470  19.981  0.00  0.00    +0.000 NA
ATOM     17  C   UNL     1      48.579   4.333  19.746  0.00  0.00    +0.000 A 
ATOM     18  N   UNL     1      48.189   3.894  18.507  0.00  0.00    +0.000 N 
ATOM     19  C   UNL     1      48.387   4.624  17.360  0.00  0.00    +0.000 A 
ATOM     20  O   UNL     1      48.087   4.176  16.258  0.00  0.00    +0.000 OA
ATOM     21  C   UNL     1      48.988   5.926  17.573  0.00  0.00    +0.000 A 
ATOM     22  H   UNL     1      47.766   2.985  18.389  0.00  0.00    +0.000 HD
ENDBRANCH   9  12
ENDBRANCH   7  10
ENDBRANCH   1   7
BRANCH   4  23
ATOM     23  C   UNL     1      44.599   3.112  10.780  0.00  0.00    +0.000 C 
BRANCH  23  24
ATOM     24  C   UNL     1      43.239   2.847  11.457  0.00  0.00    +0.000 C 
BRANCH  24  25
ATOM     25  O   UNL     1      43.236   1.625  12.193  0.00  0.00    +0.000 OA
ATOM     26  H   UNL     1      42.451   1.652  12.770  0.00  0.00    +0.000 HD
ENDBRANCH  24  25
ENDBRANCH  23  24
BRANCH  23  27
ATOM     27  C   UNL     1      44.397   3.291   9.255  0.00  0.00    +0.000 C 
BRANCH  27  28
ATOM     28  C   UNL     1      45.529   2.737   8.418  0.00  0.00    +0.000 A 
ATOM     29  C   UNL     1      46.239   3.568   7.551  0.00  0.00    +0.000 A 
ATOM     30  C   UNL     1      47.265   3.029   6.783  0.00  0.00    +0.000 A 
ATOM     31  C   UNL     1      47.550   1.675   6.891  0.00  0.00    +0.000 A 
ATOM     32  C   UNL     1      46.796   0.917   7.772  0.00  0.00    +0.000 A 
ATOM     33  N   UNL     1      45.796   1.414   8.534  0.00  0.00    +0.000 NA
ENDBRANCH  27  28
ENDBRANCH  23  27
ENDBRANCH   4  23
TORSDOF 8
ENDMDL
MODEL 2
REMARK VINA RESULT:    -8.182      1.588      2.027
REMARK INTER + INTRA:         -13.018
REMARK INTER:                 -12.059
REMARK INTRA:                  -0.959
REMARK UNBOUND:                -1.249
REMARK  Name = 
REMARK  8 active torsions:
REMARK  status: ('A' for Active; 'I' for Inactive)
REMARK    1  A    between atoms: C_2  and  C_21
REMARK    2  A    between atoms: N_3  and  C_4
REMARK    3  A    between atoms: C_4  and  C_5
REMARK    4  A    between atoms: C_8  and  C_9
REMARK    5  A    between atoms: C_9  and  C_10
REMARK    6  A    between atoms: C_9  and  C_12
REMARK    7  A    between atoms: C_10  and  O_11
REMARK    8  A    between atoms: C_12  and  C_13
REMARK                            x       y       z     vdW  Elec       q    Type
REMARK                         _______ _______ _______ _____ _____    ______ ____
ROOT
ATOM      1  C   UNL     1      47.384   6.052  13.299  0.00  0.00    +0.000 A 
ATOM      2  C   UNL     1      46.888   6.644  12.130  0.00  0.00    +0.000 A 
ATOM      3  C   UNL     1      45.876   6.022  11.390  0.00  0.00    +0.000 A 
ATOM      4  C   UNL     1      45.333   4.798  11.809  0.00  0.00    +0.000 A 
ATOM      5  C   UNL     1      45.855   4.203  12.967  0.00  0.00    +0.000 A 
ATOM      6  C   UNL     1      46.843   4.835  13.719  0.00  0.00    +0.000 A 
ENDROOT
BRANCH   1   7
ATOM      7  C   UNL     1      48.479   6.700  14.098  0.00  0.00    +0.000 C 
BRANCH   7  10
ATOM      8  O   UNL     1      50.033   5.815  16.183  0.00  0.00    +0.000 OA
ATOM      9  C   UNL     1      49.015   6.448  16.455  0.00  0.00    +0.000 C 
ATOM     10  N   UNL     1      48.129   6.848  15.486  0.00  0.00    +0.000 N 
ATOM     11  H   UNL     1      47.408   7.526  15.714  0.00  0.00    +0.000 HD
BRANCH   9  12
ATOM     12  C   UNL     1      48.682   6.784  17.843  0.00  0.00    +0.000 A 
ATOM     13  C   UNL     1      48.313   8.081  18.167  0.00  0.00    +0.000 A 
ATOM     14  S   UNL     1      47.934   8.292  19.816  0.00  0.00    +0.000 S 
ATOM     15  C   UNL     1      48.215   6.645  20.145  0.00  0.00    +0.000 A 
ATOM     16  N   UNL     1      48.019   6.139  21.392  0.00  0.00    +0.000 NA
ATOM     17  C   UNL     1      48.222   4.868  21.488  0.00  0.00    +0.000 A 
ATOM     18  N   UNL     1      48.615   4.059  20.454  0.00  0.00    +0.000 N 
ATOM     19  C   UNL     1      48.864   4.533  19.188  0.00  0.00    +0.000 A 
ATOM     20  O   UNL     1      49.278   3.794  18.300  0.00  0.00    +0.000 OA
ATOM     21  C   UNL     1      48.619   5.952  19.018  0.00  0.00    +0.000 A 
ATOM     22  H   UNL     1      48.772   3.072  20.599  0.00  0.00    +0.000 HD
ENDBRANCH   9  12
ENDBRANCH   7  10
ENDBRANCH   1   7
BRANCH   4  23
ATOM     23  C   UNL     1      44.203   4.149  11.010  0.00  0.00    +0.000 C 
BRANCH  23  24
ATOM     24  C   UNL     1      42.833   4.517  11.616  0.00  0.00    +0.000 C 
BRANCH  24  25
ATOM     25  O   UNL     1      42.372   5.789  11.163  0.00  0.00    +0.000 OA
ATOM     26  H   UNL     1      42.423   6.390  11.929  0.00  0.00    +0.000 HD
ENDBRANCH  24  25
ENDBRANCH  23  24
BRANCH  23  27
ATOM     27  C   UNL     1      44.210   4.478   9.497  0.00  0.00    +0.000 C 
BRANCH  27  28
ATOM     28  C   UNL     1      45.161   3.624   8.689  0.00  0.00    +0.000 A 
ATOM     29  C   UNL     1      45.268   2.256   8.941  0.00  0.00    +0.000 A 
ATOM     30  C   UNL     1      46.162   1.497   8.193  0.00  0.00    +0.000 A 
ATOM     31  C   UNL     1      46.931   2.122   7.221  0.00  0.00    +0.000 A 
ATOM     32  C   UNL     1      46.768   3.485   7.036  0.00  0.00    +0.000 A 
ATOM     33  N   UNL     1      45.905   4.247   7.744  0.00  0.00    +0.000 NA
ENDBRANCH  27  28
ENDBRANCH  23  27
ENDBRANCH   4  23
TORSDOF 8
ENDMDL
MODEL 3
REMARK VINA RESULT:    -7.900      1.687      1.702
REMARK INTER + INTRA:         -12.613
REMARK INTER:                 -11.470
REMARK INTRA:                  -1.143
REMARK UNBOUND:                -1.249
REMARK  Name = 
REMARK  8 active torsions:
REMARK  status: ('A' for Active; 'I' for Inactive)
REMARK    1  A    between atoms: C_2  and  C_21
REMARK    2  A    between atoms: N_3  and  C_4
REMARK    3  A    between atoms: C_4  and  C_5
REMARK    4  A    between atoms: C_8  and  C_9
REMARK    5  A    between atoms: C_9  and  C_10
REMARK    6  A    between atoms: C_9  and  C_12
REMARK    7  A    between atoms: C_10  and  O_11
REMARK    8  A    between atoms: C_12  and  C_13
REMARK                            x       y       z     vdW  Elec       q    Type
REMARK                         _______ _______ _______ _____ _____    ______ ____
ROOT
ATOM      1  C   UNL     1      46.919   6.586  12.912  0.00  0.00    +0.000 A 
ATOM      2  C   UNL     1      46.635   5.419  13.633  0.00  0.00    +0.000 A 
ATOM      3  C   UNL     1      45.905   4.380  13.046  0.00  0.00    +0.000 A 
ATOM      4  C   UNL     1      45.450   4.483  11.723  0.00  0.00    +0.000 A 
ATOM      5  C   UNL     1      45.719   5.666  11.020  0.00  0.00    +0.000 A 
ATOM      6  C   UNL     1      46.470   6.690  11.593  0.00  0.00    +0.000 A 
ENDROOT
BRANCH   1   7
ATOM      7  C   UNL     1      47.692   7.717  13.530  0.00  0.00    +0.000 C 
BRANCH   7  10
ATOM      8  O   UNL     1      48.511   8.163  16.114  0.00  0.00    +0.000 OA
ATOM      9  C   UNL     1      49.238   7.485  15.391  0.00  0.00    +0.000 C 
ATOM     10  N   UNL     1      48.959   7.289  14.061  0.00  0.00    +0.000 N 
ATOM     11  H   UNL     1      49.463   6.576  13.542  0.00  0.00    +0.000 HD
BRANCH   9  12
ATOM     12  C   UNL     1      50.463   6.872  15.913  0.00  0.00    +0.000 A 
ATOM     13  C   UNL     1      51.697   7.419  15.592  0.00  0.00    +0.000 A 
ATOM     14  S   UNL     1      53.013   6.600  16.301  0.00  0.00    +0.000 S 
ATOM     15  C   UNL     1      51.975   5.508  17.093  0.00  0.00    +0.000 A 
ATOM     16  N   UNL     1      52.469   4.552  17.925  0.00  0.00    +0.000 NA
ATOM     17  C   UNL     1      51.567   3.826  18.495  0.00  0.00    +0.000 A 
ATOM     18  N   UNL     1      50.217   3.959  18.300  0.00  0.00    +0.000 N 
ATOM     19  C   UNL     1      49.675   4.883  17.440  0.00  0.00    +0.000 A 
ATOM     20  O   UNL     1      48.465   4.935  17.238  0.00  0.00    +0.000 OA
ATOM     21  C   UNL     1      50.644   5.748  16.797  0.00  0.00    +0.000 A 
ATOM     22  H   UNL     1      49.564   3.348  18.767  0.00  0.00    +0.000 HD
ENDBRANCH   9  12
ENDBRANCH   7  10
ENDBRANCH   1   7
BRANCH   4  23
ATOM     23  C   UNL     1      44.684   3.324  11.085  0.00  0.00    +0.000 C 
BRANCH  23  24
ATOM     24  C   UNL     1      43.404   3.015  11.887  0.00  0.00    +0.000 C 
BRANCH  24  25
ATOM     25  O   UNL     1      42.876   1.727  11.578  0.00  0.00    +0.000 OA
ATOM     26  H   UNL     1      41.943   1.863  11.330  0.00  0.00    +0.000 HD
ENDBRANCH  24  25
ENDBRANCH  23  24
BRANCH  23  27
ATOM     27  C   UNL     1      44.329   3.529   9.591  0.00  0.00    +0.000 C 
BRANCH  27  28
ATOM     28  C   UNL     1      45.350   2.958   8.635  0.00  0.00    +0.000 A 
ATOM     29  C   UNL     1      45.910   3.758   7.638  0.00  0.00    +0.000 A 
ATOM     30  C   UNL     1      46.836   3.201   6.762  0.00  0.00    +0.000 A 
ATOM     31  C   UNL     1      47.172   1.862   6.896  0.00  0.00    +0.000 A 
ATOM     32  C   UNL     1      46.568   1.135   7.908  0.00  0.00    +0.000 A 
ATOM     33  N   UNL     1      45.669   1.648   8.776  0.00  0.00    +0.000 NA
ENDBRANCH  27  28
ENDBRANCH  23  27
ENDBRANCH   4  23
TORSDOF 8
ENDMDL
MODEL 4
REMARK VINA RESULT:    -7.720      2.259      2.976
REMARK INTER + INTRA:         -12.354
REMARK INTER:                 -11.238
REMARK INTRA:                  -1.115
REMARK UNBOUND:                -1.249
REMARK  Name = 
REMARK  8 active torsions:
REMARK  status: ('A' for Active; 'I' for Inactive)
REMARK    1  A    between atoms: C_2  and  C_21
REMARK    2  A    between atoms: N_3  and  C_4
REMARK    3  A    between atoms: C_4  and  C_5
REMARK    4  A    between atoms: C_8  and  C_9
REMARK    5  A    between atoms: C_9  and  C_10
REMARK    6  A    between atoms: C_9  and  C_12
REMARK    7  A    between atoms: C_10  and  O_11
REMARK    8  A    between atoms: C_12  and  C_13
REMARK                            x       y       z     vdW  Elec       q    Type
REMARK                         _______ _______ _______ _____ _____    ______ ____
ROOT
ATOM      1  C   UNL     1      47.211   5.717  13.528  0.00  0.00    +0.000 A 
ATOM      2  C   UNL     1      46.646   6.555  12.557  0.00  0.00    +0.000 A 
ATOM      3  C   UNL     1      45.593   6.105  11.753  0.00  0.00    +0.000 A 
ATOM      4  C   UNL     1      45.078   4.809  11.908  0.00  0.00    +0.000 A 
ATOM      5  C   UNL     1      45.668   3.971  12.865  0.00  0.00    +0.000 A 
ATOM      6  C   UNL     1      46.697   4.428  13.686  0.00  0.00    +0.000 A 
ENDROOT
BRANCH   1   7
ATOM      7  C   UNL     1      48.350   6.180  14.391  0.00  0.00    +0.000 C 
BRANCH   7  10
ATOM      8  O   UNL     1      49.908   5.441  16.530  0.00  0.00    +0.000 OA
ATOM      9  C   UNL     1      48.850   6.019  16.764  0.00  0.00    +0.000 C 
ATOM     10  N   UNL     1      47.962   6.342  15.768  0.00  0.00    +0.000 N 
ATOM     11  H   UNL     1      47.198   6.982  15.963  0.00  0.00    +0.000 HD
BRANCH   9  12
ATOM     12  C   UNL     1      48.468   6.370  18.136  0.00  0.00    +0.000 A 
ATOM     13  C   UNL     1      48.531   5.411  19.135  0.00  0.00    +0.000 A 
ATOM     14  S   UNL     1      48.078   5.993  20.672  0.00  0.00    +0.000 S 
ATOM     15  C   UNL     1      47.818   7.560  20.059  0.00  0.00    +0.000 A 
ATOM     16  N   UNL     1      47.453   8.580  20.882  0.00  0.00    +0.000 NA
ATOM     17  C   UNL     1      47.338   9.723  20.293  0.00  0.00    +0.000 A 
ATOM     18  N   UNL     1      47.542   9.937  18.955  0.00  0.00    +0.000 N 
ATOM     19  C   UNL     1      47.873   8.931  18.080  0.00  0.00    +0.000 A 
ATOM     20  O   UNL     1      47.985   9.142  16.876  0.00  0.00    +0.000 OA
ATOM     21  C   UNL     1      48.047   7.630  18.697  0.00  0.00    +0.000 A 
ATOM     22  H   UNL     1      47.421  10.855  18.553  0.00  0.00    +0.000 HD
ENDBRANCH   9  12
ENDBRANCH   7  10
ENDBRANCH   1   7
BRANCH   4  23
ATOM     23  C   UNL     1      43.903   4.345  11.047  0.00  0.00    +0.000 C 
BRANCH  23  24
ATOM     24  C   UNL     1      42.576   4.904  11.597  0.00  0.00    +0.000 C 
BRANCH  24  25
ATOM     25  O   UNL     1      42.450   6.306  11.368  0.00  0.00    +0.000 OA
ATOM     26  H   UNL     1      42.522   6.736  12.241  0.00  0.00    +0.000 HD
ENDBRANCH  24  25
ENDBRANCH  23  24
BRANCH  23  27
ATOM     27  C   UNL     1      44.031   4.687   9.542  0.00  0.00    +0.000 C 
BRANCH  27  28
ATOM     28  C   UNL     1      45.004   3.805   8.793  0.00  0.00    +0.000 A 
ATOM     29  C   UNL     1      45.073   2.438   9.068  0.00  0.00    +0.000 A 
ATOM     30  C   UNL     1      45.987   1.653   8.374  0.00  0.00    +0.000 A 
ATOM     31  C   UNL     1      46.815   2.250   7.434  0.00  0.00    +0.000 A 
ATOM     32  C   UNL     1      46.688   3.613   7.224  0.00  0.00    +0.000 A 
ATOM     33  N   UNL     1      45.806   4.401   7.878  0.00  0.00    +0.000 NA
ENDBRANCH  27  28
ENDBRANCH  23  27
ENDBRANCH   4  23
TORSDOF 8
ENDMDL
MODEL 5
REMARK VINA RESULT:    -7.386      1.877      2.437
REMARK INTER + INTRA:         -11.874
REMARK INTER:                 -10.707
REMARK INTRA:                  -1.167
REMARK UNBOUND:                -1.249
REMARK  Name = 
REMARK  8 active torsions:
REMARK  status: ('A' for Active; 'I' for Inactive)
REMARK    1  A    between atoms: C_2  and  C_21
REMARK    2  A    between atoms: N_3  and  C_4
REMARK    3  A    between atoms: C_4  and  C_5
REMARK    4  A    between atoms: C_8  and  C_9
REMARK    5  A    between atoms: C_9  and  C_10
REMARK    6  A    between atoms: C_9  and  C_12
REMARK    7  A    between atoms: C_10  and  O_11
REMARK    8  A    between atoms: C_12  and  C_13
REMARK                            x       y       z     vdW  Elec       q    Type
REMARK                         _______ _______ _______ _____ _____    ______ ____
ROOT
ATOM      1  C   UNL     1      47.165   6.476  13.019  0.00  0.00    +0.000 A 
ATOM      2  C   UNL     1      46.776   6.804  11.714  0.00  0.00    +0.000 A 
ATOM      3  C   UNL     1      45.898   5.978  11.002  0.00  0.00    +0.000 A 
ATOM      4  C   UNL     1      45.385   4.810  11.585  0.00  0.00    +0.000 A 
ATOM      5  C   UNL     1      45.801   4.479  12.883  0.00  0.00    +0.000 A 
ATOM      6  C   UNL     1      46.652   5.315  13.602  0.00  0.00    +0.000 A 
ENDROOT
BRANCH   1   7
ATOM      7  C   UNL     1      48.115   7.344  13.793  0.00  0.00    +0.000 C 
BRANCH   7  10
ATOM      8  O   UNL     1      48.526   8.523  16.240  0.00  0.00    +0.000 OA
ATOM      9  C   UNL     1      48.757   7.320  16.137  0.00  0.00    +0.000 C 
ATOM     10  N   UNL     1      48.672   6.665  14.933  0.00  0.00    +0.000 N 
ATOM     11  H   UNL     1      48.679   5.650  14.911  0.00  0.00    +0.000 HD
BRANCH   9  12
ATOM     12  C   UNL     1      49.165   6.526  17.300  0.00  0.00    +0.000 A 
ATOM     13  C   UNL     1      48.230   6.192  18.268  0.00  0.00    +0.000 A 
ATOM     14  S   UNL     1      48.866   5.246  19.536  0.00  0.00    +0.000 S 
ATOM     15  C   UNL     1      50.407   5.219  18.812  0.00  0.00    +0.000 A 
ATOM     16  N   UNL     1      51.431   4.521  19.374  0.00  0.00    +0.000 NA
ATOM     17  C   UNL     1      52.528   4.547  18.694  0.00  0.00    +0.000 A 
ATOM     18  N   UNL     1      52.700   5.218  17.511  0.00  0.00    +0.000 N 
ATOM     19  C   UNL     1      51.707   5.967  16.927  0.00  0.00    +0.000 A 
ATOM     20  O   UNL     1      51.911   6.609  15.902  0.00  0.00    +0.000 OA
ATOM     21  C   UNL     1      50.442   5.945  17.635  0.00  0.00    +0.000 A 
ATOM     22  H   UNL     1      53.590   5.210  17.036  0.00  0.00    +0.000 HD
ENDBRANCH   9  12
ENDBRANCH   7  10
ENDBRANCH   1   7
BRANCH   4  23
ATOM     23  C   UNL     1      44.399   3.937  10.808  0.00  0.00    +0.000 C 
BRANCH  23  24
ATOM     24  C   UNL     1      42.981   4.068  11.399  0.00  0.00    +0.000 C 
BRANCH  24  25
ATOM     25  O   UNL     1      42.625   5.428  11.642  0.00  0.00    +0.000 OA
ATOM     26  H   UNL     1      43.459   5.905  11.809  0.00  0.00    +0.000 HD
ENDBRANCH  24  25
ENDBRANCH  23  24
BRANCH  23  27
ATOM     27  C   UNL     1      44.357   4.209   9.284  0.00  0.00    +0.000 C 
BRANCH  27  28
ATOM     28  C   UNL     1      45.350   3.393   8.489  0.00  0.00    +0.000 A 
ATOM     29  C   UNL     1      45.507   2.030   8.742  0.00  0.00    +0.000 A 
ATOM     30  C   UNL     1      46.439   1.306   8.005  0.00  0.00    +0.000 A 
ATOM     31  C   UNL     1      47.195   1.961   7.043  0.00  0.00    +0.000 A 
ATOM     32  C   UNL     1      46.982   3.316   6.855  0.00  0.00    +0.000 A 
ATOM     33  N   UNL     1      46.081   4.045   7.552  0.00  0.00    +0.000 NA
ENDBRANCH  27  28
ENDBRANCH  23  27
ENDBRANCH   4  23
TORSDOF 8
ENDMDL
MODEL 6
REMARK VINA RESULT:    -6.738      2.705      3.571
REMARK INTER + INTRA:         -10.941
REMARK INTER:                  -9.848
REMARK INTRA:                  -1.093
REMARK UNBOUND:                -1.249
REMARK  Name = 
REMARK  8 active torsions:
REMARK  status: ('A' for Active; 'I' for Inactive)
REMARK    1  A    between atoms: C_2  and  C_21
REMARK    2  A    between atoms: N_3  and  C_4
REMARK    3  A    between atoms: C_4  and  C_5
REMARK    4  A    between atoms: C_8  and  C_9
REMARK    5  A    between atoms: C_9  and  C_10
REMARK    6  A    between atoms: C_9  and  C_12
REMARK    7  A    between atoms: C_10  and  O_11
REMARK    8  A    between atoms: C_12  and  C_13
REMARK                            x       y       z     vdW  Elec       q    Type
REMARK                         _______ _______ _______ _____ _____    ______ ____
ROOT
ATOM      1  C   UNL     1      46.867   7.703  13.095  0.00  0.00    +0.000 A 
ATOM      2  C   UNL     1      47.254   6.393  13.404  0.00  0.00    +0.000 A 
ATOM      3  C   UNL     1      46.569   5.300  12.859  0.00  0.00    +0.000 A 
ATOM      4  C   UNL     1      45.488   5.495  11.988  0.00  0.00    +0.000 A 
ATOM      5  C   UNL     1      45.093   6.812  11.706  0.00  0.00    +0.000 A 
ATOM      6  C   UNL     1      45.792   7.899  12.225  0.00  0.00    +0.000 A 
ENDROOT
BRANCH   1   7
ATOM      7  C   UNL     1      47.582   8.887  13.680  0.00  0.00    +0.000 C 
BRANCH   7  10
ATOM      8  O   UNL     1      49.422   8.233  15.612  0.00  0.00    +0.000 OA
ATOM      9  C   UNL     1      48.368   8.749  15.975  0.00  0.00    +0.000 C 
ATOM     10  N   UNL     1      47.351   9.023  15.094  0.00  0.00    +0.000 N 
ATOM     11  H   UNL     1      46.580   9.617  15.384  0.00  0.00    +0.000 HD
BRANCH   9  12
ATOM     12  C   UNL     1      48.131   9.074  17.386  0.00  0.00    +0.000 A 
ATOM     13  C   UNL     1      47.914   8.053  18.300  0.00  0.00    +0.000 A 
ATOM     14  S   UNL     1      47.682   8.604  19.897  0.00  0.00    +0.000 S 
ATOM     15  C   UNL     1      47.904  10.225  19.426  0.00  0.00    +0.000 A 
ATOM     16  N   UNL     1      47.879  11.229  20.343  0.00  0.00    +0.000 NA
ATOM     17  C   UNL     1      48.109  12.401  19.855  0.00  0.00    +0.000 A 
ATOM     18  N   UNL     1      48.350  12.664  18.531  0.00  0.00    +0.000 N 
ATOM     19  C   UNL     1      48.345  11.688  17.564  0.00  0.00    +0.000 A 
ATOM     20  O   UNL     1      48.499  11.963  16.378  0.00  0.00    +0.000 OA
ATOM     21  C   UNL     1      48.123  10.345  18.065  0.00  0.00    +0.000 A 
ATOM     22  H   UNL     1      48.508  13.607  18.211  0.00  0.00    +0.000 HD
ENDBRANCH   9  12
ENDBRANCH   7  10
ENDBRANCH   1   7
BRANCH   4  23
ATOM     23  C   UNL     1      44.773   4.292  11.373  0.00  0.00    +0.000 C 
BRANCH  23  24
ATOM     24  C   UNL     1      43.505   3.947  12.180  0.00  0.00    +0.000 C 
BRANCH  24  25
ATOM     25  O   UNL     1      43.655   2.738  12.923  0.00  0.00    +0.000 OA
ATOM     26  H   UNL     1      44.614   2.598  13.030  0.00  0.00    +0.000 HD
ENDBRANCH  24  25
ENDBRANCH  23  24
BRANCH  23  27
ATOM     27  C   UNL     1      44.413   4.450   9.875  0.00  0.00    +0.000 C 
BRANCH  27  28
ATOM     28  C   UNL     1      45.268   3.618   8.948  0.00  0.00    +0.000 A 
ATOM     29  C   UNL     1      45.990   4.223   7.919  0.00  0.00    +0.000 A 
ATOM     30  C   UNL     1      46.757   3.431   7.072  0.00  0.00    +0.000 A 
ATOM     31  C   UNL     1      46.778   2.057   7.266  0.00  0.00    +0.000 A 
ATOM     32  C   UNL     1      46.030   1.533   8.308  0.00  0.00    +0.000 A 
ATOM     33  N   UNL     1      45.279   2.278   9.149  0.00  0.00    +0.000 NA
ENDBRANCH  27  28
ENDBRANCH  23  27
ENDBRANCH   4  23
TORSDOF 8
ENDMDL
MODEL 7
REMARK VINA RESULT:    -6.670      2.978      3.681
REMARK INTER + INTRA:         -10.844
REMARK INTER:                  -9.805
REMARK INTRA:                  -1.039
REMARK UNBOUND:                -1.249
REMARK  Name = 
REMARK  8 active torsions:
REMARK  status: ('A' for Active; 'I' for Inactive)
REMARK    1  A    between atoms: C_2  and  C_21
REMARK    2  A    between atoms: N_3  and  C_4
REMARK    3  A    between atoms: C_4  and  C_5
REMARK    4  A    between atoms: C_8  and  C_9
REMARK    5  A    between atoms: C_9  and  C_10
REMARK    6  A    between atoms: C_9  and  C_12
REMARK    7  A    between atoms: C_10  and  O_11
REMARK    8  A    between atoms: C_12  and  C_13
REMARK                            x       y       z     vdW  Elec       q    Type
REMARK                         _______ _______ _______ _____ _____    ______ ____
ROOT
ATOM      1  C   UNL     1      48.861   6.780  14.933  0.00  0.00    +0.000 A 
ATOM      2  C   UNL     1      48.023   5.782  15.447  0.00  0.00    +0.000 A 
ATOM      3  C   UNL     1      47.031   5.202  14.648  0.00  0.00    +0.000 A 
ATOM      4  C   UNL     1      46.862   5.602  13.315  0.00  0.00    +0.000 A 
ATOM      5  C   UNL     1      47.690   6.620  12.818  0.00  0.00    +0.000 A 
ATOM      6  C   UNL     1      48.696   7.177  13.604  0.00  0.00    +0.000 A 
ENDROOT
BRANCH   1   7
ATOM      7  C   UNL     1      49.923   7.422  15.780  0.00  0.00    +0.000 C 
BRANCH   7  10
ATOM      8  O   UNL     1      50.179   6.267  18.258  0.00  0.00    +0.000 OA
ATOM      9  C   UNL     1      50.959   5.912  17.377  0.00  0.00    +0.000 C 
ATOM     10  N   UNL     1      50.969   6.501  16.137  0.00  0.00    +0.000 N 
ATOM     11  H   UNL     1      51.484   6.065  15.378  0.00  0.00    +0.000 HD
BRANCH   9  12
ATOM     12  C   UNL     1      51.944   4.854  17.620  0.00  0.00    +0.000 A 
ATOM     13  C   UNL     1      53.241   5.189  17.980  0.00  0.00    +0.000 A 
ATOM     14  S   UNL     1      54.247   3.839  18.249  0.00  0.00    +0.000 S 
ATOM     15  C   UNL     1      52.970   2.759  17.931  0.00  0.00    +0.000 A 
ATOM     16  N   UNL     1      53.149   1.414  18.038  0.00  0.00    +0.000 NA
ATOM     17  C   UNL     1      52.086   0.717  17.816  0.00  0.00    +0.000 A 
ATOM     18  N   UNL     1      50.863   1.239  17.485  0.00  0.00    +0.000 N 
ATOM     19  C   UNL     1      50.645   2.587  17.327  0.00  0.00    +0.000 A 
ATOM     20  O   UNL     1      49.555   3.019  16.966  0.00  0.00    +0.000 OA
ATOM     21  C   UNL     1      51.801   3.419  17.597  0.00  0.00    +0.000 A 
ATOM     22  H   UNL     1      50.073   0.637  17.310  0.00  0.00    +0.000 HD
ENDBRANCH   9  12
ENDBRANCH   7  10
ENDBRANCH   1   7
BRANCH   4  23
ATOM     23  C   UNL     1      45.798   4.933  12.444  0.00  0.00    +0.000 C 
BRANCH  23  24
ATOM     24  C   UNL     1      44.485   4.760  13.234  0.00  0.00    +0.000 C 
BRANCH  24  25
ATOM     25  O   UNL     1      43.556   5.808  12.966  0.00  0.00    +0.000 OA
ATOM     26  H   UNL     1      43.656   6.030  12.022  0.00  0.00    +0.000 HD
ENDBRANCH  24  25
ENDBRANCH  23  24
BRANCH  23  27
ATOM     27  C   UNL     1      45.511   5.657  11.106  0.00  0.00    +0.000 C 
BRANCH  27  28
ATOM     28  C   UNL     1      45.429   4.730   9.914  0.00  0.00    +0.000 A 
ATOM     29  C   UNL     1      44.759   3.510  10.012  0.00  0.00    +0.000 A 
ATOM     30  C   UNL     1      44.713   2.671   8.904  0.00  0.00    +0.000 A 
ATOM     31  C   UNL     1      45.343   3.064   7.732  0.00  0.00    +0.000 A 
ATOM     32  C   UNL     1      45.990   4.288   7.717  0.00  0.00    +0.000 A 
ATOM     33  N   UNL     1      46.048   5.127   8.776  0.00  0.00    +0.000 NA
ENDBRANCH  27  28
ENDBRANCH  23  27
ENDBRANCH   4  23
TORSDOF 8
ENDMDL
MODEL 8
REMARK VINA RESULT:    -6.600      2.853      4.042
REMARK INTER + INTRA:         -10.742
REMARK INTER:                  -9.494
REMARK INTRA:                  -1.249
REMARK UNBOUND:                -1.249
REMARK  Name = 
REMARK  8 active torsions:
REMARK  status: ('A' for Active; 'I' for Inactive)
REMARK    1  A    between atoms: C_2  and  C_21
REMARK    2  A    between atoms: N_3  and  C_4
REMARK    3  A    between atoms: C_4  and  C_5
REMARK    4  A    between atoms: C_8  and  C_9
REMARK    5  A    between atoms: C_9  and  C_10
REMARK    6  A    between atoms: C_9  and  C_12
REMARK    7  A    between atoms: C_10  and  O_11
REMARK    8  A    between atoms: C_12  and  C_13
REMARK                            x       y       z     vdW  Elec       q    Type
REMARK                         _______ _______ _______ _____ _____    ______ ____
ROOT
ATOM      1  C   UNL     1      47.813   6.152  14.484  0.00  0.00    +0.000 A 
ATOM      2  C   UNL     1      47.311   6.783  13.339  0.00  0.00    +0.000 A 
ATOM      3  C   UNL     1      46.295   6.187  12.584  0.00  0.00    +0.000 A 
ATOM      4  C   UNL     1      45.755   4.949  12.962  0.00  0.00    +0.000 A 
ATOM      5  C   UNL     1      46.283   4.315  14.097  0.00  0.00    +0.000 A 
ATOM      6  C   UNL     1      47.274   4.921  14.865  0.00  0.00    +0.000 A 
ENDROOT
BRANCH   1   7
ATOM      7  C   UNL     1      48.912   6.772  15.301  0.00  0.00    +0.000 C 
BRANCH   7  10
ATOM      8  O   UNL     1      48.985   6.562  18.038  0.00  0.00    +0.000 OA
ATOM      9  C   UNL     1      48.582   7.617  17.555  0.00  0.00    +0.000 C 
ATOM     10  N   UNL     1      48.421   7.781  16.202  0.00  0.00    +0.000 N 
ATOM     11  H   UNL     1      48.275   8.712  15.822  0.00  0.00    +0.000 HD
BRANCH   9  12
ATOM     12  C   UNL     1      48.225   8.753  18.411  0.00  0.00    +0.000 A 
ATOM     13  C   UNL     1      47.360   8.565  19.479  0.00  0.00    +0.000 A 
ATOM     14  S   UNL     1      47.072   9.981  20.383  0.00  0.00    +0.000 S 
ATOM     15  C   UNL     1      48.126  10.887  19.399  0.00  0.00    +0.000 A 
ATOM     16  N   UNL     1      48.376  12.197  19.664  0.00  0.00    +0.000 NA
ATOM     17  C   UNL     1      49.230  12.747  18.868  0.00  0.00    +0.000 A 
ATOM     18  N   UNL     1      49.848  12.110  17.823  0.00  0.00    +0.000 N 
ATOM     19  C   UNL     1      49.596  10.800  17.494  0.00  0.00    +0.000 A 
ATOM     20  O   UNL     1      50.116  10.277  16.513  0.00  0.00    +0.000 OA
ATOM     21  C   UNL     1      48.667  10.125  18.378  0.00  0.00    +0.000 A 
ATOM     22  H   UNL     1      50.497  12.602  17.227  0.00  0.00    +0.000 HD
ENDBRANCH   9  12
ENDBRANCH   7  10
ENDBRANCH   1   7
BRANCH   4  23
ATOM     23  C   UNL     1      44.621   4.327  12.147  0.00  0.00    +0.000 C 
BRANCH  23  24
ATOM     24  C   UNL     1      43.288   4.421  12.918  0.00  0.00    +0.000 C 
BRANCH  24  25
ATOM     25  O   UNL     1      42.994   5.758  13.318  0.00  0.00    +0.000 OA
ATOM     26  H   UNL     1      43.088   5.783  14.288  0.00  0.00    +0.000 HD
ENDBRANCH  24  25
ENDBRANCH  23  24
BRANCH  23  27
ATOM     27  C   UNL     1      44.446   4.920  10.727  0.00  0.00    +0.000 C 
BRANCH  27  28
ATOM     28  C   UNL     1      45.058   4.076   9.632  0.00  0.00    +0.000 A 
ATOM     29  C   UNL     1      45.015   2.683   9.706  0.00  0.00    +0.000 A 
ATOM     30  C   UNL     1      45.599   1.933   8.691  0.00  0.00    +0.000 A 
ATOM     31  C   UNL     1      46.219   2.587   7.637  0.00  0.00    +0.000 A 
ATOM     32  C   UNL     1      46.223   3.972   7.640  0.00  0.00    +0.000 A 
ATOM     33  N   UNL     1      45.660   4.729   8.608  0.00  0.00    +0.000 NA
ENDBRANCH  27  28
ENDBRANCH  23  27
ENDBRANCH   4  23
TORSDOF 8
ENDMDL
MODEL 9
REMARK VINA RESULT:    -6.543      3.549      9.151
REMARK INTER + INTRA:         -10.661
REMARK INTER:                  -9.227
REMARK INTRA:                  -1.433
REMARK UNBOUND:                -1.249
REMARK  Name = 
REMARK  8 active torsions:
REMARK  status: ('A' for Active; 'I' for Inactive)
REMARK    1  A    between atoms: C_2  and  C_21
REMARK    2  A    between atoms: N_3  and  C_4
REMARK    3  A    between atoms: C_4  and  C_5
REMARK    4  A    between atoms: C_8  and  C_9
REMARK    5  A    between atoms: C_9  and  C_10
REMARK    6  A    between atoms: C_9  and  C_12
REMARK    7  A    between atoms: C_10  and  O_11
REMARK    8  A    between atoms: C_12  and  C_13
REMARK                            x       y       z     vdW  Elec       q    Type
REMARK                         _______ _______ _______ _____ _____    ______ ____
ROOT
ATOM      1  C   UNL     1      48.822   6.821  15.256  0.00  0.00    +0.000 A 
ATOM      2  C   UNL     1      50.125   6.955  15.752  0.00  0.00    +0.000 A 
ATOM      3  C   UNL     1      50.601   6.094  16.748  0.00  0.00    +0.000 A 
ATOM      4  C   UNL     1      49.785   5.076  17.264  0.00  0.00    +0.000 A 
ATOM      5  C   UNL     1      48.474   4.968  16.777  0.00  0.00    +0.000 A 
ATOM      6  C   UNL     1      48.009   5.805  15.766  0.00  0.00    +0.000 A 
ENDROOT
BRANCH   1   7
ATOM      7  C   UNL     1      48.291   7.743  14.196  0.00  0.00    +0.000 C 
BRANCH   7  10
ATOM      8  O   UNL     1      47.743   6.967  11.619  0.00  0.00    +0.000 OA
ATOM      9  C   UNL     1      46.836   6.895  12.444  0.00  0.00    +0.000 C 
ATOM     10  N   UNL     1      46.987   7.349  13.731  0.00  0.00    +0.000 N 
ATOM     11  H   UNL     1      46.297   7.104  14.435  0.00  0.00    +0.000 HD
BRANCH   9  12
ATOM     12  C   UNL     1      45.527   6.343  12.082  0.00  0.00    +0.000 A 
ATOM     13  C   UNL     1      44.573   7.161  11.495  0.00  0.00    +0.000 A 
ATOM     14  S   UNL     1      43.120   6.353  11.116  0.00  0.00    +0.000 S 
ATOM     15  C   UNL     1      43.732   4.872  11.690  0.00  0.00    +0.000 A 
ATOM     16  N   UNL     1      42.993   3.733  11.610  0.00  0.00    +0.000 NA
ATOM     17  C   UNL     1      43.598   2.676  12.037  0.00  0.00    +0.000 A 
ATOM     18  N   UNL     1      44.870   2.655  12.549  0.00  0.00    +0.000 N 
ATOM     19  C   UNL     1      45.638   3.786  12.685  0.00  0.00    +0.000 A 
ATOM     20  O   UNL     1      46.748   3.745  13.207  0.00  0.00    +0.000 OA
ATOM     21  C   UNL     1      45.016   4.999  12.189  0.00  0.00    +0.000 A 
ATOM     22  H   UNL     1      45.281   1.795  12.880  0.00  0.00    +0.000 HD
ENDBRANCH   9  12
ENDBRANCH   7  10
ENDBRANCH   1   7
BRANCH   4  23
ATOM     23  C   UNL     1      50.331   4.121  18.325  0.00  0.00    +0.000 C 
BRANCH  23  24
ATOM     24  C   UNL     1      51.494   3.286  17.753  0.00  0.00    +0.000 C 
BRANCH  24  25
ATOM     25  O   UNL     1      51.030   2.212  16.937  0.00  0.00    +0.000 OA
ATOM     26  H   UNL     1      50.084   2.380  16.771  0.00  0.00    +0.000 HD
ENDBRANCH  24  25
ENDBRANCH  23  24
BRANCH  23  27
ATOM     27  C   UNL     1      50.777   4.805  19.641  0.00  0.00    +0.000 C 
BRANCH  27  28
ATOM     28  C   UNL     1      49.683   5.594  20.323  0.00  0.00    +0.000 A 
ATOM     29  C   UNL     1      48.590   4.940  20.892  0.00  0.00    +0.000 A 
ATOM     30  C   UNL     1      47.590   5.692  21.499  0.00  0.00    +0.000 A 
ATOM     31  C   UNL     1      47.700   7.075  21.515  0.00  0.00    +0.000 A 
ATOM     32  C   UNL     1      48.814   7.648  20.925  0.00  0.00    +0.000 A 
ATOM     33  N   UNL     1      49.803   6.944  20.331  0.00  0.00    +0.000 NA
ENDBRANCH  27  28
ENDBRANCH  23  27
ENDBRANCH   4  23
TORSDOF 8
ENDMDL
