MODEL 1
REMARK VINA RESULT:    -7.466      0.000      0.000
REMARK INTER + INTRA:          -9.963
REMARK INTER:                  -9.649
REMARK INTRA:                  -0.315
REMARK UNBOUND:                -0.315
REMARK  Name = 
REMARK  10 active torsions:
REMARK  status: ('A' for Active; 'I' for Inactive)
REMARK    1  A    between atoms: C_1  and  C_2
REMARK    2  A    between atoms: C_4  and  C_5
REMARK    3  A    between atoms: N_8  and  C_9
REMARK    4  A    between atoms: C_9  and  C_10
REMARK    5  A    between atoms: C_14  and  C_15
REMARK    6  A    between atoms: C_20  and  O_22
REMARK    7  A    between atoms: O_22  and  C_23
REMARK    8  A    between atoms: C_23  and  C_24
REMARK    9  A    between atoms: C_23  and  C_25
REMARK   10  A    between atoms: C_23  and  C_26
REMARK                            x       y       z     vdW  Elec       q    Type
REMARK                         _______ _______ _______ _____ _____    ______ ____
ROOT
ATOM      1  C   UNL     1      47.230   7.442  13.030  0.00  0.00    +0.000 A 
ATOM      2  C   UNL     1      47.896   6.478  13.804  0.00  0.00    +0.000 A 
ATOM      3  C   UNL     1      47.294   5.271  14.122  0.00  0.00    +0.000 A 
ATOM      4  C   UNL     1      45.994   5.016  13.685  0.00  0.00    +0.000 A 
ATOM      5  C   UNL     1      45.288   5.930  12.887  0.00  0.00    +0.000 A 
ATOM      6  C   UNL     1      45.947   7.119  12.539  0.00  0.00    +0.000 A 
ENDROOT
BRANCH   5   7
ATOM      7  C   UNL     1      43.834   5.724  12.455  0.00  0.00    +0.000 C 
ATOM      8  C   UNL     1      43.180   4.502  13.128  0.00  0.00    +0.000 C 
ATOM      9  C   UNL     1      43.616   3.160  12.525  0.00  0.00    +0.000 C 
ATOM     10  C   UNL     1      43.668   3.147  10.986  0.00  0.00    +0.000 C 
ATOM     11  N   UNL     1      44.186   4.390  10.417  0.00  0.00    +0.000 N 
ATOM     12  C   UNL     1      45.251   4.517   9.540  0.00  0.00    +0.000 C 
ATOM     13  O   UNL     1      45.578   5.600   9.072  0.00  0.00    +0.000 OA
ATOM     14  C   UNL     1      43.612   5.621  10.940  0.00  0.00    +0.000 C 
BRANCH  12  15
ATOM     15  O   UNL     1      45.933   3.360   9.305  0.00  0.00    +0.000 OA
BRANCH  15  16
ATOM     16  C   UNL     1      45.985   2.866   7.933  0.00  0.00    +0.000 C 
ATOM     17  C   UNL     1      47.105   3.541   7.123  0.00  0.00    +0.000 C 
ATOM     18  C   UNL     1      46.320   1.369   8.028  0.00  0.00    +0.000 C 
ATOM     19  C   UNL     1      44.618   2.991   7.242  0.00  0.00    +0.000 C 
ENDBRANCH  15  16
ENDBRANCH  12  15
ENDBRANCH   5   7
BRANCH   1  20
ATOM     20  C   UNL     1      47.841   8.826  12.837  0.00  0.00    +0.000 C 
ATOM     21  C   UNL     1      49.209   9.104  13.453  0.00  0.00    +0.000 C 
ATOM     22  C   UNL     1      49.102   8.853  11.988  0.00  0.00    +0.000 C 
BRANCH  20  30
ATOM     23  C   UNL     1      47.850  12.609   8.875  0.00  0.00    +0.000 C 
ATOM     24  C   UNL     1      46.915  12.119   9.940  0.00  0.00    +0.000 A 
ATOM     25  C   UNL     1      45.603  12.573  10.013  0.00  0.00    +0.000 A 
ATOM     26  C   UNL     1      44.793  12.112  11.046  0.00  0.00    +0.000 A 
ATOM     27  C   UNL     1      43.374  12.574  11.182  0.00  0.00    +0.000 C 
ATOM     28  N   UNL     1      45.234  11.233  11.980  0.00  0.00    +0.000 NA
ATOM     29  C   UNL     1      46.502  10.779  11.898  0.00  0.00    +0.000 A 
ATOM     30  N   UNL     1      46.893   9.942  12.949  0.00  0.00    +0.000 N 
ATOM     31  C   UNL     1      47.360  11.198  10.893  0.00  0.00    +0.000 A 
ATOM     32  H   UNL     1      46.040   9.755  13.472  0.00  0.00    +0.000 HD
ENDBRANCH  20  30
ENDBRANCH   1  20
TORSDOF 5
ENDMDL
MODEL 2
REMARK VINA RESULT:    -7.250      2.102      4.092
REMARK INTER + INTRA:          -9.684
REMARK INTER:                  -8.896
REMARK INTRA:                  -0.787
REMARK UNBOUND:                -0.315
REMARK  Name = 
REMARK  10 active torsions:
REMARK  status: ('A' for Active; 'I' for Inactive)
REMARK    1  A    between atoms: C_1  and  C_2
REMARK    2  A    between atoms: C_4  and  C_5
REMARK    3  A    between atoms: N_8  and  C_9
REMARK    4  A    between atoms: C_9  and  C_10
REMARK    5  A    between atoms: C_14  and  C_15
REMARK    6  A    between atoms: C_20  and  O_22
REMARK    7  A    between atoms: O_22  and  C_23
REMARK    8  A    between atoms: C_23  and  C_24
REMARK    9  A    between atoms: C_23  and  C_25
REMARK   10  A    between atoms: C_23  and  C_26
REMARK                            x       y       z     vdW  Elec       q    Type
REMARK                         _______ _______ _______ _____ _____    ______ ____
ROOT
ATOM      1  C   UNL     1      47.439   7.214  12.963  0.00  0.00    +0.000 A 
ATOM      2  C   UNL     1      48.018   6.293  13.852  0.00  0.00    +0.000 A 
ATOM      3  C   UNL     1      47.324   5.173  14.280  0.00  0.00    +0.000 A 
ATOM      4  C   UNL     1      46.017   4.965  13.837  0.00  0.00    +0.000 A 
ATOM      5  C   UNL     1      45.395   5.836  12.929  0.00  0.00    +0.000 A 
ATOM      6  C   UNL     1      46.146   6.931  12.475  0.00  0.00    +0.000 A 
ENDROOT
BRANCH   5   7
ATOM      7  C   UNL     1      43.939   5.688  12.483  0.00  0.00    +0.000 C 
ATOM      8  C   UNL     1      43.237   4.477  13.128  0.00  0.00    +0.000 C 
ATOM      9  C   UNL     1      43.632   3.132  12.503  0.00  0.00    +0.000 C 
ATOM     10  C   UNL     1      43.696   3.145  10.965  0.00  0.00    +0.000 C 
ATOM     11  N   UNL     1      44.260   4.380  10.423  0.00  0.00    +0.000 N 
ATOM     12  C   UNL     1      45.337   4.486   9.556  0.00  0.00    +0.000 C 
ATOM     13  O   UNL     1      45.704   5.566   9.111  0.00  0.00    +0.000 OA
ATOM     14  C   UNL     1      43.725   5.620  10.964  0.00  0.00    +0.000 C 
BRANCH  12  15
ATOM     15  O   UNL     1      45.980   3.311   9.305  0.00  0.00    +0.000 OA
BRANCH  15  16
ATOM     16  C   UNL     1      45.989   2.819   7.931  0.00  0.00    +0.000 C 
ATOM     17  C   UNL     1      47.127   3.447   7.106  0.00  0.00    +0.000 C 
ATOM     18  C   UNL     1      46.260   1.308   8.018  0.00  0.00    +0.000 C 
ATOM     19  C   UNL     1      44.619   3.006   7.261  0.00  0.00    +0.000 C 
ENDBRANCH  15  16
ENDBRANCH  12  15
ENDBRANCH   5   7
BRANCH   1  20
ATOM     20  C   UNL     1      48.153   8.522  12.643  0.00  0.00    +0.000 C 
ATOM     21  C   UNL     1      47.354   9.820  12.720  0.00  0.00    +0.000 C 
ATOM     22  C   UNL     1      48.297   9.474  13.820  0.00  0.00    +0.000 C 
BRANCH  20  30
ATOM     23  C   UNL     1      53.471   9.370  13.645  0.00  0.00    +0.000 C 
ATOM     24  C   UNL     1      52.631   8.724  12.585  0.00  0.00    +0.000 A 
ATOM     25  C   UNL     1      53.208   7.998  11.549  0.00  0.00    +0.000 A 
ATOM     26  C   UNL     1      52.379   7.453  10.572  0.00  0.00    +0.000 A 
ATOM     27  C   UNL     1      52.945   6.670   9.427  0.00  0.00    +0.000 C 
ATOM     28  N   UNL     1      51.032   7.599  10.597  0.00  0.00    +0.000 NA
ATOM     29  C   UNL     1      50.470   8.288  11.613  0.00  0.00    +0.000 A 
ATOM     30  N   UNL     1      49.086   8.457  11.510  0.00  0.00    +0.000 N 
ATOM     31  C   UNL     1      51.240   8.855  12.618  0.00  0.00    +0.000 A 
ATOM     32  H   UNL     1      48.802   7.869  10.729  0.00  0.00    +0.000 HD
ENDBRANCH  20  30
ENDBRANCH   1  20
TORSDOF 5
ENDMDL
MODEL 3
REMARK VINA RESULT:    -7.101      2.254      4.410
REMARK INTER + INTRA:          -9.491
REMARK INTER:                  -8.703
REMARK INTRA:                  -0.787
REMARK UNBOUND:                -0.315
REMARK  Name = 
REMARK  10 active torsions:
REMARK  status: ('A' for Active; 'I' for Inactive)
REMARK    1  A    between atoms: C_1  and  C_2
REMARK    2  A    between atoms: C_4  and  C_5
REMARK    3  A    between atoms: N_8  and  C_9
REMARK    4  A    between atoms: C_9  and  C_10
REMARK    5  A    between atoms: C_14  and  C_15
REMARK    6  A    between atoms: C_20  and  O_22
REMARK    7  A    between atoms: O_22  and  C_23
REMARK    8  A    between atoms: C_23  and  C_24
REMARK    9  A    between atoms: C_23  and  C_25
REMARK   10  A    between atoms: C_23  and  C_26
REMARK                            x       y       z     vdW  Elec       q    Type
REMARK                         _______ _______ _______ _____ _____    ______ ____
ROOT
ATOM      1  C   UNL     1      47.508   7.170  13.226  0.00  0.00    +0.000 A 
ATOM      2  C   UNL     1      48.057   6.131  13.996  0.00  0.00    +0.000 A 
ATOM      3  C   UNL     1      47.331   4.984  14.276  0.00  0.00    +0.000 A 
ATOM      4  C   UNL     1      46.024   4.867  13.803  0.00  0.00    +0.000 A 
ATOM      5  C   UNL     1      45.432   5.860  13.008  0.00  0.00    +0.000 A 
ATOM      6  C   UNL     1      46.213   6.984  12.699  0.00  0.00    +0.000 A 
ENDROOT
BRANCH   5   7
ATOM      7  C   UNL     1      43.976   5.806  12.538  0.00  0.00    +0.000 C 
ATOM      8  C   UNL     1      43.193   4.632  13.156  0.00  0.00    +0.000 C 
ATOM      9  C   UNL     1      43.515   3.273  12.519  0.00  0.00    +0.000 C 
ATOM     10  C   UNL     1      43.604   3.303  10.982  0.00  0.00    +0.000 C 
ATOM     11  N   UNL     1      44.250   4.508  10.465  0.00  0.00    +0.000 N 
ATOM     12  C   UNL     1      45.344   4.561   9.616  0.00  0.00    +0.000 C 
ATOM     13  O   UNL     1      45.782   5.622   9.191  0.00  0.00    +0.000 OA
ATOM     14  C   UNL     1      43.782   5.771  11.016  0.00  0.00    +0.000 C 
BRANCH  12  15
ATOM     15  O   UNL     1      45.919   3.352   9.357  0.00  0.00    +0.000 OA
BRANCH  15  16
ATOM     16  C   UNL     1      45.914   2.876   7.978  0.00  0.00    +0.000 C 
ATOM     17  C   UNL     1      47.039   3.517   7.147  0.00  0.00    +0.000 C 
ATOM     18  C   UNL     1      46.192   1.365   8.045  0.00  0.00    +0.000 C 
ATOM     19  C   UNL     1      44.535   3.065   7.326  0.00  0.00    +0.000 C 
ENDBRANCH  15  16
ENDBRANCH  12  15
ENDBRANCH   5   7
BRANCH   1  20
ATOM     20  C   UNL     1      48.257   8.490  13.076  0.00  0.00    +0.000 C 
ATOM     21  C   UNL     1      48.400   9.085  11.678  0.00  0.00    +0.000 C 
ATOM     22  C   UNL     1      47.400   9.660  12.621  0.00  0.00    +0.000 C 
BRANCH  20  30
ATOM     23  C   UNL     1      47.663  10.471  18.149  0.00  0.00    +0.000 C 
ATOM     24  C   UNL     1      48.660   9.651  17.388  0.00  0.00    +0.000 A 
ATOM     25  C   UNL     1      49.744   9.058  18.025  0.00  0.00    +0.000 A 
ATOM     26  C   UNL     1      50.658   8.340  17.260  0.00  0.00    +0.000 A 
ATOM     27  C   UNL     1      51.851   7.687  17.891  0.00  0.00    +0.000 C 
ATOM     28  N   UNL     1      50.527   8.192  15.919  0.00  0.00    +0.000 NA
ATOM     29  C   UNL     1      49.465   8.753  15.302  0.00  0.00    +0.000 A 
ATOM     30  N   UNL     1      49.459   8.618  13.910  0.00  0.00    +0.000 N 
ATOM     31  C   UNL     1      48.518   9.480  16.007  0.00  0.00    +0.000 A 
ATOM     32  H   UNL     1      50.221   7.976  13.700  0.00  0.00    +0.000 HD
ENDBRANCH  20  30
ENDBRANCH   1  20
TORSDOF 5
ENDMDL
MODEL 4
REMARK VINA RESULT:    -6.817      3.488      7.496
REMARK INTER + INTRA:          -9.124
REMARK INTER:                  -8.537
REMARK INTRA:                  -0.587
REMARK UNBOUND:                -0.315
REMARK  Name = 
REMARK  10 active torsions:
REMARK  status: ('A' for Active; 'I' for Inactive)
REMARK    1  A    between atoms: C_1  and  C_2
REMARK    2  A    between atoms: C_4  and  C_5
REMARK    3  A    between atoms: N_8  and  C_9
REMARK    4  A    between atoms: C_9  and  C_10
REMARK    5  A    between atoms: C_14  and  C_15
REMARK    6  A    between atoms: C_20  and  O_22
REMARK    7  A    between atoms: O_22  and  C_23
REMARK    8  A    between atoms: C_23  and  C_24
REMARK    9  A    between atoms: C_23  and  C_25
REMARK   10  A    between atoms: C_23  and  C_26
REMARK                            x       y       z     vdW  Elec       q    Type
REMARK                         _______ _______ _______ _____ _____    ______ ____
ROOT
ATOM      1  C   UNL     1      46.954   7.921  12.754  0.00  0.00    +0.000 A 
ATOM      2  C   UNL     1      47.904   7.334  11.903  0.00  0.00    +0.000 A 
ATOM      3  C   UNL     1      49.223   7.173  12.301  0.00  0.00    +0.000 A 
ATOM      4  C   UNL     1      49.619   7.622  13.561  0.00  0.00    +0.000 A 
ATOM      5  C   UNL     1      48.708   8.194  14.464  0.00  0.00    +0.000 A 
ATOM      6  C   UNL     1      47.371   8.292  14.050  0.00  0.00    +0.000 A 
ENDROOT
BRANCH   5   7
ATOM      7  C   UNL     1      49.118   8.772  15.820  0.00  0.00    +0.000 C 
ATOM      8  C   UNL     1      50.617   9.120  15.892  0.00  0.00    +0.000 C 
ATOM      9  C   UNL     1      51.527   7.897  16.067  0.00  0.00    +0.000 C 
ATOM     10  C   UNL     1      51.013   6.872  17.095  0.00  0.00    +0.000 C 
ATOM     11  N   UNL     1      49.564   6.686  17.049  0.00  0.00    +0.000 N 
ATOM     12  C   UNL     1      48.889   5.488  16.881  0.00  0.00    +0.000 C 
ATOM     13  O   UNL     1      47.666   5.424  16.912  0.00  0.00    +0.000 OA
ATOM     14  C   UNL     1      48.764   7.901  17.034  0.00  0.00    +0.000 C 
BRANCH  12  15
ATOM     15  O   UNL     1      49.690   4.418  16.615  0.00  0.00    +0.000 OA
BRANCH  15  16
ATOM     16  C   UNL     1      49.408   3.165  17.309  0.00  0.00    +0.000 C 
ATOM     17  C   UNL     1      48.392   2.302  16.540  0.00  0.00    +0.000 C 
ATOM     18  C   UNL     1      50.735   2.389  17.352  0.00  0.00    +0.000 C 
ATOM     19  C   UNL     1      48.971   3.416  18.761  0.00  0.00    +0.000 C 
ENDBRANCH  15  16
ENDBRANCH  12  15
ENDBRANCH   5   7
BRANCH   1  20
ATOM     20  C   UNL     1      45.557   8.243  12.235  0.00  0.00    +0.000 C 
ATOM     21  C   UNL     1      44.956   9.604  12.573  0.00  0.00    +0.000 C 
ATOM     22  C   UNL     1      45.502   9.363  11.208  0.00  0.00    +0.000 C 
BRANCH  20  30
ATOM     23  C   UNL     1      45.754   4.452   8.285  0.00  0.00    +0.000 C 
ATOM     24  C   UNL     1      45.234   4.569   9.686  0.00  0.00    +0.000 A 
ATOM     25  C   UNL     1      44.725   3.466  10.362  0.00  0.00    +0.000 A 
ATOM     26  C   UNL     1      44.222   3.643  11.647  0.00  0.00    +0.000 A 
ATOM     27  C   UNL     1      43.651   2.492  12.419  0.00  0.00    +0.000 C 
ATOM     28  N   UNL     1      44.215   4.849  12.266  0.00  0.00    +0.000 NA
ATOM     29  C   UNL     1      44.726   5.916  11.617  0.00  0.00    +0.000 A 
ATOM     30  N   UNL     1      44.600   7.130  12.300  0.00  0.00    +0.000 N 
ATOM     31  C   UNL     1      45.244   5.807  10.335  0.00  0.00    +0.000 A 
ATOM     32  H   UNL     1      44.265   6.881  13.228  0.00  0.00    +0.000 HD
ENDBRANCH  20  30
ENDBRANCH   1  20
TORSDOF 5
ENDMDL
MODEL 5
REMARK VINA RESULT:    -6.627      4.928      8.283
REMARK INTER + INTRA:          -8.879
REMARK INTER:                  -7.810
REMARK INTRA:                  -1.069
REMARK UNBOUND:                -0.315
REMARK  Name = 
REMARK  10 active torsions:
REMARK  status: ('A' for Active; 'I' for Inactive)
REMARK    1  A    between atoms: C_1  and  C_2
REMARK    2  A    between atoms: C_4  and  C_5
REMARK    3  A    between atoms: N_8  and  C_9
REMARK    4  A    between atoms: C_9  and  C_10
REMARK    5  A    between atoms: C_14  and  C_15
REMARK    6  A    between atoms: C_20  and  O_22
REMARK    7  A    between atoms: O_22  and  C_23
REMARK    8  A    between atoms: C_23  and  C_24
REMARK    9  A    between atoms: C_23  and  C_25
REMARK   10  A    between atoms: C_23  and  C_26
REMARK                            x       y       z     vdW  Elec       q    Type
REMARK                         _______ _______ _______ _____ _____    ______ ____
ROOT
ATOM      1  C   UNL     1      48.569   5.492  17.278  0.00  0.00    +0.000 A 
ATOM      2  C   UNL     1      48.282   6.488  18.224  0.00  0.00    +0.000 A 
ATOM      3  C   UNL     1      48.268   7.830  17.875  0.00  0.00    +0.000 A 
ATOM      4  C   UNL     1      48.567   8.200  16.563  0.00  0.00    +0.000 A 
ATOM      5  C   UNL     1      48.836   7.247  15.568  0.00  0.00    +0.000 A 
ATOM      6  C   UNL     1      48.789   5.896  15.944  0.00  0.00    +0.000 A 
ENDROOT
BRANCH   5   7
ATOM      7  C   UNL     1      49.246   7.615  14.140  0.00  0.00    +0.000 C 
ATOM      8  C   UNL     1      48.732   9.002  13.710  0.00  0.00    +0.000 C 
ATOM      9  C   UNL     1      47.239   9.023  13.354  0.00  0.00    +0.000 C 
ATOM     10  C   UNL     1      46.778   7.827  12.500  0.00  0.00    +0.000 C 
ATOM     11  N   UNL     1      47.404   6.566  12.890  0.00  0.00    +0.000 N 
ATOM     12  C   UNL     1      46.754   5.393  13.239  0.00  0.00    +0.000 C 
ATOM     13  O   UNL     1      47.367   4.365  13.498  0.00  0.00    +0.000 OA
ATOM     14  C   UNL     1      48.849   6.595  13.064  0.00  0.00    +0.000 C 
BRANCH  12  15
ATOM     15  O   UNL     1      45.399   5.503  13.334  0.00  0.00    +0.000 OA
BRANCH  15  16
ATOM     16  C   UNL     1      44.586   4.807  12.341  0.00  0.00    +0.000 C 
ATOM     17  C   UNL     1      44.551   3.289  12.593  0.00  0.00    +0.000 C 
ATOM     18  C   UNL     1      43.153   5.338  12.510  0.00  0.00    +0.000 C 
ATOM     19  C   UNL     1      45.040   5.144  10.912  0.00  0.00    +0.000 C 
ENDBRANCH  15  16
ENDBRANCH  12  15
ENDBRANCH   5   7
BRANCH   1  20
ATOM     20  C   UNL     1      48.747   4.044  17.720  0.00  0.00    +0.000 C 
ATOM     21  C   UNL     1      47.518   3.139  17.747  0.00  0.00    +0.000 C 
ATOM     22  C   UNL     1      48.499   3.011  16.632  0.00  0.00    +0.000 C 
BRANCH  20  30
ATOM     23  C   UNL     1      54.067   5.093  16.937  0.00  0.00    +0.000 C 
ATOM     24  C   UNL     1      53.116   4.983  18.090  0.00  0.00    +0.000 A 
ATOM     25  C   UNL     1      53.506   5.312  19.383  0.00  0.00    +0.000 A 
ATOM     26  C   UNL     1      52.591   5.154  20.419  0.00  0.00    +0.000 A 
ATOM     27  C   UNL     1      52.960   5.484  21.834  0.00  0.00    +0.000 C 
ATOM     28  N   UNL     1      51.332   4.696  20.214  0.00  0.00    +0.000 NA
ATOM     29  C   UNL     1      50.946   4.392  18.956  0.00  0.00    +0.000 A 
ATOM     30  N   UNL     1      49.662   3.850  18.853  0.00  0.00    +0.000 N 
ATOM     31  C   UNL     1      51.810   4.529  17.879  0.00  0.00    +0.000 A 
ATOM     32  H   UNL     1      49.253   3.952  19.780  0.00  0.00    +0.000 HD
ENDBRANCH  20  30
ENDBRANCH   1  20
TORSDOF 5
ENDMDL
MODEL 6
REMARK VINA RESULT:    -6.349      4.296      7.673
REMARK INTER + INTRA:          -8.519
REMARK INTER:                  -7.679
REMARK INTRA:                  -0.840
REMARK UNBOUND:                -0.315
REMARK  Name = 
REMARK  10 active torsions:
REMARK  status: ('A' for Active; 'I' for Inactive)
REMARK    1  A    between atoms: C_1  and  C_2
REMARK    2  A    between atoms: C_4  and  C_5
REMARK    3  A    between atoms: N_8  and  C_9
REMARK    4  A    between atoms: C_9  and  C_10
REMARK    5  A    between atoms: C_14  and  C_15
REMARK    6  A    between atoms: C_20  and  O_22
REMARK    7  A    between atoms: O_22  and  C_23
REMARK    8  A    between atoms: C_23  and  C_24
REMARK    9  A    between atoms: C_23  and  C_25
REMARK   10  A    between atoms: C_23  and  C_26
REMARK                            x       y       z     vdW  Elec       q    Type
REMARK                         _______ _______ _______ _____ _____    ______ ____
ROOT
ATOM      1  C   UNL     1      48.482   8.091  14.372  0.00  0.00    +0.000 A 
ATOM      2  C   UNL     1      49.779   7.609  14.131  0.00  0.00    +0.000 A 
ATOM      3  C   UNL     1      50.687   7.442  15.165  0.00  0.00    +0.000 A 
ATOM      4  C   UNL     1      50.315   7.780  16.467  0.00  0.00    +0.000 A 
ATOM      5  C   UNL     1      49.025   8.242  16.772  0.00  0.00    +0.000 A 
ATOM      6  C   UNL     1      48.114   8.348  15.710  0.00  0.00    +0.000 A 
ENDROOT
BRANCH   5   7
ATOM      7  C   UNL     1      48.603   8.699  18.170  0.00  0.00    +0.000 C 
ATOM      8  C   UNL     1      49.804   9.023  19.079  0.00  0.00    +0.000 C 
ATOM      9  C   UNL     1      50.513   7.779  19.630  0.00  0.00    +0.000 C 
ATOM     10  C   UNL     1      49.559   6.677  20.125  0.00  0.00    +0.000 C 
ATOM     11  N   UNL     1      48.380   6.513  19.278  0.00  0.00    +0.000 N 
ATOM     12  C   UNL     1      47.951   5.340  18.676  0.00  0.00    +0.000 C 
ATOM     13  O   UNL     1      46.915   5.289  18.025  0.00  0.00    +0.000 OA
ATOM     14  C   UNL     1      47.674   7.733  18.920  0.00  0.00    +0.000 C 
BRANCH  12  15
ATOM     15  O   UNL     1      48.806   4.287  18.812  0.00  0.00    +0.000 OA
BRANCH  15  16
ATOM     16  C   UNL     1      49.564   3.868  17.638  0.00  0.00    +0.000 C 
ATOM     17  C   UNL     1      49.543   2.340  17.459  0.00  0.00    +0.000 C 
ATOM     18  C   UNL     1      48.852   4.486  16.423  0.00  0.00    +0.000 C 
ATOM     19  C   UNL     1      50.996   4.426  17.669  0.00  0.00    +0.000 C 
ENDBRANCH  15  16
ENDBRANCH  12  15
ENDBRANCH   5   7
BRANCH   1  20
ATOM     20  C   UNL     1      47.561   8.427  13.205  0.00  0.00    +0.000 C 
ATOM     21  C   UNL     1      47.605   9.842  12.633  0.00  0.00    +0.000 C 
ATOM     22  C   UNL     1      48.275   8.733  11.898  0.00  0.00    +0.000 C 
BRANCH  20  30
ATOM     23  C   UNL     1      45.860   5.171   9.140  0.00  0.00    +0.000 C 
ATOM     24  C   UNL     1      45.510   5.431  10.575  0.00  0.00    +0.000 A 
ATOM     25  C   UNL     1      44.589   4.637  11.249  0.00  0.00    +0.000 A 
ATOM     26  C   UNL     1      44.276   4.949  12.568  0.00  0.00    +0.000 A 
ATOM     27  C   UNL     1      43.283   4.135  13.341  0.00  0.00    +0.000 C 
ATOM     28  N   UNL     1      44.839   5.995  13.221  0.00  0.00    +0.000 NA
ATOM     29  C   UNL     1      45.746   6.756  12.573  0.00  0.00    +0.000 A 
ATOM     30  N   UNL     1      46.210   7.858  13.297  0.00  0.00    +0.000 N 
ATOM     31  C   UNL     1      46.103   6.497  11.258  0.00  0.00    +0.000 A 
ATOM     32  H   UNL     1      45.839   7.735  14.238  0.00  0.00    +0.000 HD
ENDBRANCH  20  30
ENDBRANCH   1  20
TORSDOF 5
ENDMDL
MODEL 7
REMARK VINA RESULT:    -6.207      3.520      6.759
REMARK INTER + INTRA:          -8.335
REMARK INTER:                  -7.881
REMARK INTRA:                  -0.455
REMARK UNBOUND:                -0.315
REMARK  Name = 
REMARK  10 active torsions:
REMARK  status: ('A' for Active; 'I' for Inactive)
REMARK    1  A    between atoms: C_1  and  C_2
REMARK    2  A    between atoms: C_4  and  C_5
REMARK    3  A    between atoms: N_8  and  C_9
REMARK    4  A    between atoms: C_9  and  C_10
REMARK    5  A    between atoms: C_14  and  C_15
REMARK    6  A    between atoms: C_20  and  O_22
REMARK    7  A    between atoms: O_22  and  C_23
REMARK    8  A    between atoms: C_23  and  C_24
REMARK    9  A    between atoms: C_23  and  C_25
REMARK   10  A    between atoms: C_23  and  C_26
REMARK                            x       y       z     vdW  Elec       q    Type
REMARK                         _______ _______ _______ _____ _____    ______ ____
ROOT
ATOM      1  C   UNL     1      47.292   7.598  12.871  0.00  0.00    +0.000 A 
ATOM      2  C   UNL     1      48.156   7.327  11.797  0.00  0.00    +0.000 A 
ATOM      3  C   UNL     1      49.516   7.577  11.888  0.00  0.00    +0.000 A 
ATOM      4  C   UNL     1      50.036   8.130  13.059  0.00  0.00    +0.000 A 
ATOM      5  C   UNL     1      49.226   8.398  14.174  0.00  0.00    +0.000 A 
ATOM      6  C   UNL     1      47.863   8.083  14.067  0.00  0.00    +0.000 A 
ENDROOT
BRANCH   5   7
ATOM      7  C   UNL     1      49.742   9.078  15.445  0.00  0.00    +0.000 C 
ATOM      8  C   UNL     1      51.258   9.350  15.402  0.00  0.00    +0.000 C 
ATOM      9  C   UNL     1      52.115   8.101  15.646  0.00  0.00    +0.000 C 
ATOM     10  C   UNL     1      51.613   7.206  16.794  0.00  0.00    +0.000 C 
ATOM     11  N   UNL     1      50.157   7.096  16.843  0.00  0.00    +0.000 N 
ATOM     12  C   UNL     1      49.415   5.925  16.828  0.00  0.00    +0.000 C 
ATOM     13  O   UNL     1      48.194   5.931  16.930  0.00  0.00    +0.000 OA
ATOM     14  C   UNL     1      49.417   8.345  16.754  0.00  0.00    +0.000 C 
BRANCH  12  15
ATOM     15  O   UNL     1      50.146   4.793  16.624  0.00  0.00    +0.000 OA
BRANCH  15  16
ATOM     16  C   UNL     1      50.222   3.824  17.713  0.00  0.00    +0.000 C 
ATOM     17  C   UNL     1      49.371   2.575  17.427  0.00  0.00    +0.000 C 
ATOM     18  C   UNL     1      51.691   3.377  17.789  0.00  0.00    +0.000 C 
ATOM     19  C   UNL     1      49.864   4.470  19.062  0.00  0.00    +0.000 C 
ENDBRANCH  15  16
ENDBRANCH  12  15
ENDBRANCH   5   7
BRANCH   1  20
ATOM     20  C   UNL     1      45.783   7.477  12.690  0.00  0.00    +0.000 C 
ATOM     21  C   UNL     1      45.259   6.603  11.554  0.00  0.00    +0.000 C 
ATOM     22  C   UNL     1      45.220   6.090  12.952  0.00  0.00    +0.000 C 
BRANCH  20  30
ATOM     23  C   UNL     1      47.805  12.055  10.460  0.00  0.00    +0.000 C 
ATOM     24  C   UNL     1      46.482  11.553  10.956  0.00  0.00    +0.000 A 
ATOM     25  C   UNL     1      45.317  12.289  10.779  0.00  0.00    +0.000 A 
ATOM     26  C   UNL     1      44.125  11.790  11.294  0.00  0.00    +0.000 A 
ATOM     27  C   UNL     1      42.839  12.545  11.141  0.00  0.00    +0.000 C 
ATOM     28  N   UNL     1      44.057  10.610  11.958  0.00  0.00    +0.000 NA
ATOM     29  C   UNL     1      45.186   9.885  12.115  0.00  0.00    +0.000 A 
ATOM     30  N   UNL     1      45.034   8.726  12.883  0.00  0.00    +0.000 N 
ATOM     31  C   UNL     1      46.405  10.326  11.624  0.00  0.00    +0.000 A 
ATOM     32  H   UNL     1      44.031   8.629  13.025  0.00  0.00    +0.000 HD
ENDBRANCH  20  30
ENDBRANCH   1  20
TORSDOF 5
ENDMDL
MODEL 8
REMARK VINA RESULT:    -6.177      3.312      5.959
REMARK INTER + INTRA:          -8.297
REMARK INTER:                  -7.521
REMARK INTRA:                  -0.776
REMARK UNBOUND:                -0.315
REMARK  Name = 
REMARK  10 active torsions:
REMARK  status: ('A' for Active; 'I' for Inactive)
REMARK    1  A    between atoms: C_1  and  C_2
REMARK    2  A    between atoms: C_4  and  C_5
REMARK    3  A    between atoms: N_8  and  C_9
REMARK    4  A    between atoms: C_9  and  C_10
REMARK    5  A    between atoms: C_14  and  C_15
REMARK    6  A    between atoms: C_20  and  O_22
REMARK    7  A    between atoms: O_22  and  C_23
REMARK    8  A    between atoms: C_23  and  C_24
REMARK    9  A    between atoms: C_23  and  C_25
REMARK   10  A    between atoms: C_23  and  C_26
REMARK                            x       y       z     vdW  Elec       q    Type
REMARK                         _______ _______ _______ _____ _____    ______ ____
ROOT
ATOM      1  C   UNL     1      48.237   8.027  12.473  0.00  0.00    +0.000 A 
ATOM      2  C   UNL     1      47.546   9.131  12.999  0.00  0.00    +0.000 A 
ATOM      3  C   UNL     1      46.161   9.186  12.984  0.00  0.00    +0.000 A 
ATOM      4  C   UNL     1      45.439   8.136  12.416  0.00  0.00    +0.000 A 
ATOM      5  C   UNL     1      46.073   6.995  11.899  0.00  0.00    +0.000 A 
ATOM      6  C   UNL     1      47.473   6.948  11.979  0.00  0.00    +0.000 A 
ENDROOT
BRANCH   5   7
ATOM      7  C   UNL     1      45.323   5.861  11.197  0.00  0.00    +0.000 C 
ATOM      8  C   UNL     1      43.805   5.896  11.462  0.00  0.00    +0.000 C 
ATOM      9  C   UNL     1      43.411   5.381  12.852  0.00  0.00    +0.000 C 
ATOM     10  C   UNL     1      44.151   4.103  13.285  0.00  0.00    +0.000 C 
ATOM     11  N   UNL     1      45.558   4.090  12.889  0.00  0.00    +0.000 N 
ATOM     12  C   UNL     1      46.650   3.907  13.723  0.00  0.00    +0.000 C 
ATOM     13  O   UNL     1      47.794   3.857  13.289  0.00  0.00    +0.000 OA
ATOM     14  C   UNL     1      45.838   4.448  11.507  0.00  0.00    +0.000 C 
BRANCH  12  15
ATOM     15  O   UNL     1      46.348   3.859  15.051  0.00  0.00    +0.000 OA
BRANCH  15  16
ATOM     16  C   UNL     1      47.434   4.051  16.006  0.00  0.00    +0.000 C 
ATOM     17  C   UNL     1      48.198   5.361  15.746  0.00  0.00    +0.000 C 
ATOM     18  C   UNL     1      46.775   4.166  17.390  0.00  0.00    +0.000 C 
ATOM     19  C   UNL     1      48.372   2.833  16.039  0.00  0.00    +0.000 C 
ENDBRANCH  15  16
ENDBRANCH  12  15
ENDBRANCH   5   7
BRANCH   1  20
ATOM     20  C   UNL     1      49.755   8.064  12.345  0.00  0.00    +0.000 C 
ATOM     21  C   UNL     1      50.375   7.718  10.994  0.00  0.00    +0.000 C 
ATOM     22  C   UNL     1      50.290   9.144  11.418  0.00  0.00    +0.000 C 
BRANCH  20  30
ATOM     23  C   UNL     1      51.242  11.550  16.300  0.00  0.00    +0.000 C 
ATOM     24  C   UNL     1      51.028  10.075  16.145  0.00  0.00    +0.000 A 
ATOM     25  C   UNL     1      51.075   9.218  17.238  0.00  0.00    +0.000 A 
ATOM     26  C   UNL     1      50.907   7.853  17.027  0.00  0.00    +0.000 A 
ATOM     27  C   UNL     1      50.958   6.882  18.167  0.00  0.00    +0.000 C 
ATOM     28  N   UNL     1      50.692   7.329  15.795  0.00  0.00    +0.000 NA
ATOM     29  C   UNL     1      50.628   8.162  14.735  0.00  0.00    +0.000 A 
ATOM     30  N   UNL     1      50.488   7.525  13.498  0.00  0.00    +0.000 N 
ATOM     31  C   UNL     1      50.787   9.532  14.878  0.00  0.00    +0.000 A 
ATOM     32  H   UNL     1      50.316   6.546  13.720  0.00  0.00    +0.000 HD
ENDBRANCH  20  30
ENDBRANCH   1  20
TORSDOF 5
ENDMDL
MODEL 9
REMARK VINA RESULT:    -5.990      4.850      7.793
REMARK INTER + INTRA:          -8.055
REMARK INTER:                  -6.375
REMARK INTRA:                  -1.680
REMARK UNBOUND:                -0.315
REMARK  Name = 
REMARK  10 active torsions:
REMARK  status: ('A' for Active; 'I' for Inactive)
REMARK    1  A    between atoms: C_1  and  C_2
REMARK    2  A    between atoms: C_4  and  C_5
REMARK    3  A    between atoms: N_8  and  C_9
REMARK    4  A    between atoms: C_9  and  C_10
REMARK    5  A    between atoms: C_14  and  C_15
REMARK    6  A    between atoms: C_20  and  O_22
REMARK    7  A    between atoms: O_22  and  C_23
REMARK    8  A    between atoms: C_23  and  C_24
REMARK    9  A    between atoms: C_23  and  C_25
REMARK   10  A    between atoms: C_23  and  C_26
REMARK                            x       y       z     vdW  Elec       q    Type
REMARK                         _______ _______ _______ _____ _____    ______ ____
ROOT
ATOM      1  C   UNL     1      49.150   9.350  17.416  0.00  0.00    +0.000 A 
ATOM      2  C   UNL     1      47.933   9.120  18.078  0.00  0.00    +0.000 A 
ATOM      3  C   UNL     1      47.854   8.255  19.158  0.00  0.00    +0.000 A 
ATOM      4  C   UNL     1      49.001   7.584  19.584  0.00  0.00    +0.000 A 
ATOM      5  C   UNL     1      50.250   7.793  18.979  0.00  0.00    +0.000 A 
ATOM      6  C   UNL     1      50.304   8.715  17.922  0.00  0.00    +0.000 A 
ENDROOT
BRANCH   5   7
ATOM      7  C   UNL     1      51.512   7.018  19.363  0.00  0.00    +0.000 C 
ATOM      8  C   UNL     1      52.602   7.075  18.274  0.00  0.00    +0.000 C 
ATOM      9  C   UNL     1      52.325   6.157  17.077  0.00  0.00    +0.000 C 
ATOM     10  C   UNL     1      51.816   4.755  17.461  0.00  0.00    +0.000 C 
ATOM     11  N   UNL     1      50.880   4.771  18.583  0.00  0.00    +0.000 N 
ATOM     12  C   UNL     1      49.600   4.238  18.599  0.00  0.00    +0.000 C 
ATOM     13  O   UNL     1      48.907   4.251  19.609  0.00  0.00    +0.000 OA
ATOM     14  C   UNL     1      51.285   5.548  19.744  0.00  0.00    +0.000 C 
BRANCH  12  15
ATOM     15  O   UNL     1      49.164   3.772  17.395  0.00  0.00    +0.000 OA
BRANCH  15  16
ATOM     16  C   UNL     1      48.104   4.513  16.720  0.00  0.00    +0.000 C 
ATOM     17  C   UNL     1      47.430   3.673  15.620  0.00  0.00    +0.000 C 
ATOM     18  C   UNL     1      47.041   4.812  17.790  0.00  0.00    +0.000 C 
ATOM     19  C   UNL     1      48.615   5.860  16.186  0.00  0.00    +0.000 C 
ENDBRANCH  15  16
ENDBRANCH  12  15
ENDBRANCH   5   7
BRANCH   1  20
ATOM     20  C   UNL     1      49.180  10.168  16.129  0.00  0.00    +0.000 C 
ATOM     21  C   UNL     1      49.571  11.640  16.217  0.00  0.00    +0.000 C 
ATOM     22  C   UNL     1      50.561  10.647  15.712  0.00  0.00    +0.000 C 
BRANCH  20  30
ATOM     23  C   UNL     1      50.394   7.706  11.389  0.00  0.00    +0.000 C 
ATOM     24  C   UNL     1      49.189   7.910  12.256  0.00  0.00    +0.000 A 
ATOM     25  C   UNL     1      47.984   7.275  11.979  0.00  0.00    +0.000 A 
ATOM     26  C   UNL     1      46.888   7.533  12.798  0.00  0.00    +0.000 A 
ATOM     27  C   UNL     1      45.562   6.884  12.542  0.00  0.00    +0.000 C 
ATOM     28  N   UNL     1      46.955   8.375  13.858  0.00  0.00    +0.000 NA
ATOM     29  C   UNL     1      48.129   8.979  14.137  0.00  0.00    +0.000 A 
ATOM     30  N   UNL     1      48.080   9.892  15.195  0.00  0.00    +0.000 N 
ATOM     31  C   UNL     1      49.258   8.763  13.361  0.00  0.00    +0.000 A 
ATOM     32  H   UNL     1      47.159   9.770  15.611  0.00  0.00    +0.000 HD
ENDBRANCH  20  30
ENDBRANCH   1  20
TORSDOF 5
ENDMDL
