MODEL 1
REMARK VINA RESULT:    -8.609      0.000      0.000
REMARK INTER + INTRA:         -13.106
REMARK INTER:                 -12.132
REMARK INTRA:                  -0.974
REMARK UNBOUND:                -0.974
REMARK  Name = 
REMARK  8 active torsions:
REMARK  status: ('A' for Active; 'I' for Inactive)
REMARK    1  A    between atoms: C_1  and  C_2
REMARK    2  A    between atoms: C_6  and  C_7
REMARK    3  A    between atoms: C_7  and  C_8
REMARK    4  A    between atoms: C_8  and  O_9
REMARK    5  A    between atoms: O_9  and  C_10
REMARK    6  A    between atoms: C_13  and  C_14
REMARK    7  A    between atoms: C_20  and  O_21
REMARK    8  A    between atoms: O_21  and  C_22
REMARK                            x       y       z     vdW  Elec       q    Type
REMARK                         _______ _______ _______ _____ _____    ______ ____
ROOT
ATOM      1  C   UNL     1      43.271   4.980  12.506  0.00  0.00    +0.000 C 
ENDROOT
BRANCH   1   7
ATOM      2  C   UNL     1      48.672   6.819  13.823  0.00  0.00    +0.000 C 
ATOM      3  C   UNL     1      47.275   6.357  13.491  0.00  0.00    +0.000 A 
ATOM      4  C   UNL     1      46.386   7.167  12.753  0.00  0.00    +0.000 A 
ATOM      5 CL   UNL     1      46.807   8.747  12.187  0.00  0.00    +0.000 Cl
ATOM      6  C   UNL     1      45.096   6.721  12.439  0.00  0.00    +0.000 A 
ATOM      7  C   UNL     1      44.655   5.465  12.856  0.00  0.00    +0.000 A 
ATOM      8  C   UNL     1      45.532   4.652  13.583  0.00  0.00    +0.000 A 
ATOM      9  C   UNL     1      46.828   5.084  13.907  0.00  0.00    +0.000 A 
BRANCH   9  10
ATOM     10  O   UNL     1      47.720   4.287  14.604  0.00  0.00    +0.000 OA
BRANCH  10  11
ATOM     11  C   UNL     1      47.442   3.974  15.996  0.00  0.00    +0.000 C 
ATOM     12  C   UNL     1      48.073   4.882  17.061  0.00  0.00    +0.000 C 
ATOM     13  O   UNL     1      48.889   3.807  17.578  0.00  0.00    +0.000 OA
ATOM     14  C   UNL     1      48.290   2.876  16.650  0.00  0.00    +0.000 C 
ENDBRANCH  10  11
ENDBRANCH   9  10
ENDBRANCH   1   7
BRANCH   1  15
ATOM     15  C   UNL     1      43.288   3.833  11.493  0.00  0.00    +0.000 C 
BRANCH  15  16
ATOM     16  O   UNL     1      43.593   4.374  10.202  0.00  0.00    +0.000 OA
BRANCH  16  17
ATOM     17  C   UNL     1      44.489   3.675   9.442  0.00  0.00    +0.000 A 
ATOM     18  C   UNL     1      44.726   2.303   9.516  0.00  0.00    +0.000 A 
ATOM     19  C   UNL     1      45.674   1.701   8.684  0.00  0.00    +0.000 A 
ATOM     20  C   UNL     1      46.391   2.463   7.755  0.00  0.00    +0.000 A 
ATOM     21  C   UNL     1      46.168   3.843   7.684  0.00  0.00    +0.000 A 
ATOM     22  C   UNL     1      45.220   4.442   8.523  0.00  0.00    +0.000 A 
BRANCH  20  23
ATOM     23  C   UNL     1      47.387   1.766   6.905  0.00  0.00    +0.000 C 
ATOM     24  N   UNL     1      48.493   2.461   6.518  0.00  0.00    +0.000 N 
ATOM     25  O   UNL     1      47.210   0.616   6.522  0.00  0.00    +0.000 OA
ATOM     26  H   UNL     1      48.570   3.466   6.606  0.00  0.00    +0.000 HD
ATOM     27  H   UNL     1      49.098   2.001   5.845  0.00  0.00    +0.000 HD
ENDBRANCH  20  23
ENDBRANCH  16  17
ENDBRANCH  15  16
ENDBRANCH   1  15
TORSDOF 7
ENDMDL
MODEL 2
REMARK VINA RESULT:    -7.626      2.373      3.960
REMARK INTER + INTRA:         -11.721
REMARK INTER:                 -10.844
REMARK INTRA:                  -0.877
REMARK UNBOUND:                -0.974
REMARK  Name = 
REMARK  8 active torsions:
REMARK  status: ('A' for Active; 'I' for Inactive)
REMARK    1  A    between atoms: C_1  and  C_2
REMARK    2  A    between atoms: C_6  and  C_7
REMARK    3  A    between atoms: C_7  and  C_8
REMARK    4  A    between atoms: C_8  and  O_9
REMARK    5  A    between atoms: O_9  and  C_10
REMARK    6  A    between atoms: C_13  and  C_14
REMARK    7  A    between atoms: C_20  and  O_21
REMARK    8  A    between atoms: O_21  and  C_22
REMARK                            x       y       z     vdW  Elec       q    Type
REMARK                         _______ _______ _______ _____ _____    ______ ____
ROOT
ATOM      1  C   UNL     1      43.464   4.541  12.408  0.00  0.00    +0.000 C 
ENDROOT
BRANCH   1   7
ATOM      2  C   UNL     1      48.593   6.898  13.964  0.00  0.00    +0.000 C 
ATOM      3  C   UNL     1      47.279   6.277  13.560  0.00  0.00    +0.000 A 
ATOM      4  C   UNL     1      46.802   5.096  14.167  0.00  0.00    +0.000 A 
ATOM      5 CL   UNL     1      47.679   4.255  15.399  0.00  0.00    +0.000 Cl
ATOM      6  C   UNL     1      45.574   4.538  13.792  0.00  0.00    +0.000 A 
ATOM      7  C   UNL     1      44.793   5.134  12.802  0.00  0.00    +0.000 A 
ATOM      8  C   UNL     1      45.255   6.310  12.198  0.00  0.00    +0.000 A 
ATOM      9  C   UNL     1      46.484   6.881  12.561  0.00  0.00    +0.000 A 
BRANCH   9  10
ATOM     10  O   UNL     1      46.948   8.056  11.995  0.00  0.00    +0.000 OA
BRANCH  10  11
ATOM     11  C   UNL     1      46.428   9.323  12.482  0.00  0.00    +0.000 C 
ATOM     12  C   UNL     1      45.173   9.879  11.794  0.00  0.00    +0.000 C 
ATOM     13  O   UNL     1      45.890  11.026  11.283  0.00  0.00    +0.000 OA
ATOM     14  C   UNL     1      47.094  10.602  11.960  0.00  0.00    +0.000 C 
ENDBRANCH  10  11
ENDBRANCH   9  10
ENDBRANCH   1   7
BRANCH   1  15
ATOM     15  C   UNL     1      43.611   3.258  11.587  0.00  0.00    +0.000 C 
BRANCH  15  16
ATOM     16  O   UNL     1      43.364   3.569  10.211  0.00  0.00    +0.000 OA
BRANCH  16  17
ATOM     17  C   UNL     1      44.388   3.336   9.337  0.00  0.00    +0.000 A 
ATOM     18  C   UNL     1      45.007   4.292   8.531  0.00  0.00    +0.000 A 
ATOM     19  C   UNL     1      46.048   3.929   7.672  0.00  0.00    +0.000 A 
ATOM     20  C   UNL     1      46.494   2.604   7.616  0.00  0.00    +0.000 A 
ATOM     21  C   UNL     1      45.870   1.637   8.412  0.00  0.00    +0.000 A 
ATOM     22  C   UNL     1      44.824   2.005   9.268  0.00  0.00    +0.000 A 
BRANCH  20  23
ATOM     23  C   UNL     1      47.599   2.281   6.680  0.00  0.00    +0.000 C 
ATOM     24  N   UNL     1      47.769   3.086   5.593  0.00  0.00    +0.000 N 
ATOM     25  O   UNL     1      48.315   1.302   6.847  0.00  0.00    +0.000 OA
ATOM     26  H   UNL     1      47.072   3.751   5.287  0.00  0.00    +0.000 HD
ATOM     27  H   UNL     1      48.455   2.777   4.911  0.00  0.00    +0.000 HD
ENDBRANCH  20  23
ENDBRANCH  16  17
ENDBRANCH  15  16
ENDBRANCH   1  15
TORSDOF 7
ENDMDL
MODEL 3
REMARK VINA RESULT:    -7.014      2.297      2.661
REMARK INTER + INTRA:         -10.858
REMARK INTER:                 -10.012
REMARK INTRA:                  -0.846
REMARK UNBOUND:                -0.974
REMARK  Name = 
REMARK  8 active torsions:
REMARK  status: ('A' for Active; 'I' for Inactive)
REMARK    1  A    between atoms: C_1  and  C_2
REMARK    2  A    between atoms: C_6  and  C_7
REMARK    3  A    between atoms: C_7  and  C_8
REMARK    4  A    between atoms: C_8  and  O_9
REMARK    5  A    between atoms: O_9  and  C_10
REMARK    6  A    between atoms: C_13  and  C_14
REMARK    7  A    between atoms: C_20  and  O_21
REMARK    8  A    between atoms: O_21  and  C_22
REMARK                            x       y       z     vdW  Elec       q    Type
REMARK                         _______ _______ _______ _____ _____    ______ ____
ROOT
ATOM      1  C   UNL     1      44.749   5.442  12.183  0.00  0.00    +0.000 C 
ENDROOT
BRANCH   1   7
ATOM      2  C   UNL     1      48.022  10.290  12.439  0.00  0.00    +0.000 C 
ATOM      3  C   UNL     1      47.170   9.047  12.383  0.00  0.00    +0.000 A 
ATOM      4  C   UNL     1      45.799   9.106  12.052  0.00  0.00    +0.000 A 
ATOM      5 CL   UNL     1      44.982  10.591  11.703  0.00  0.00    +0.000 Cl
ATOM      6  C   UNL     1      45.022   7.944  11.991  0.00  0.00    +0.000 A 
ATOM      7  C   UNL     1      45.583   6.695  12.263  0.00  0.00    +0.000 A 
ATOM      8  C   UNL     1      46.944   6.626  12.586  0.00  0.00    +0.000 A 
ATOM      9  C   UNL     1      47.736   7.782  12.653  0.00  0.00    +0.000 A 
BRANCH   9  10
ATOM     10  O   UNL     1      49.088   7.735  12.947  0.00  0.00    +0.000 OA
BRANCH  10  11
ATOM     11  C   UNL     1      49.505   7.293  14.267  0.00  0.00    +0.000 C 
ATOM     12  C   UNL     1      48.967   8.076  15.474  0.00  0.00    +0.000 C 
ATOM     13  O   UNL     1      50.288   8.535  15.839  0.00  0.00    +0.000 OA
ATOM     14  C   UNL     1      50.876   7.768  14.765  0.00  0.00    +0.000 C 
ENDBRANCH  10  11
ENDBRANCH   9  10
ENDBRANCH   1   7
BRANCH   1  15
ATOM     15  C   UNL     1      43.988   5.324  10.861  0.00  0.00    +0.000 C 
BRANCH  15  16
ATOM     16  O   UNL     1      43.876   3.935  10.525  0.00  0.00    +0.000 OA
BRANCH  16  17
ATOM     17  C   UNL     1      44.737   3.464   9.575  0.00  0.00    +0.000 A 
ATOM     18  C   UNL     1      45.030   2.122   9.332  0.00  0.00    +0.000 A 
ATOM     19  C   UNL     1      45.933   1.763   8.329  0.00  0.00    +0.000 A 
ATOM     20  C   UNL     1      46.549   2.743   7.543  0.00  0.00    +0.000 A 
ATOM     21  C   UNL     1      46.270   4.093   7.788  0.00  0.00    +0.000 A 
ATOM     22  C   UNL     1      45.367   4.448   8.798  0.00  0.00    +0.000 A 
BRANCH  20  23
ATOM     23  C   UNL     1      47.503   2.298   6.497  0.00  0.00    +0.000 C 
ATOM     24  N   UNL     1      47.465   2.929   5.289  0.00  0.00    +0.000 N 
ATOM     25  O   UNL     1      48.275   1.367   6.688  0.00  0.00    +0.000 OA
ATOM     26  H   UNL     1      46.702   3.529   5.006  0.00  0.00    +0.000 HD
ATOM     27  H   UNL     1      48.045   2.530   4.558  0.00  0.00    +0.000 HD
ENDBRANCH  20  23
ENDBRANCH  16  17
ENDBRANCH  15  16
ENDBRANCH   1  15
TORSDOF 7
ENDMDL
MODEL 4
REMARK VINA RESULT:    -6.339      1.592      2.114
REMARK INTER + INTRA:          -9.907
REMARK INTER:                  -9.043
REMARK INTRA:                  -0.864
REMARK UNBOUND:                -0.974
REMARK  Name = 
REMARK  8 active torsions:
REMARK  status: ('A' for Active; 'I' for Inactive)
REMARK    1  A    between atoms: C_1  and  C_2
REMARK    2  A    between atoms: C_6  and  C_7
REMARK    3  A    between atoms: C_7  and  C_8
REMARK    4  A    between atoms: C_8  and  O_9
REMARK    5  A    between atoms: O_9  and  C_10
REMARK    6  A    between atoms: C_13  and  C_14
REMARK    7  A    between atoms: C_20  and  O_21
REMARK    8  A    between atoms: O_21  and  C_22
REMARK                            x       y       z     vdW  Elec       q    Type
REMARK                         _______ _______ _______ _____ _____    ______ ____
ROOT
ATOM      1  C   UNL     1      45.592   4.434  13.232  0.00  0.00    +0.000 C 
ENDROOT
BRANCH   1   7
ATOM      2  C   UNL     1      50.212   7.778  14.559  0.00  0.00    +0.000 C 
ATOM      3  C   UNL     1      49.014   6.929  14.212  0.00  0.00    +0.000 A 
ATOM      4  C   UNL     1      48.479   6.905  12.907  0.00  0.00    +0.000 A 
ATOM      5 CL   UNL     1      49.129   7.848  11.609  0.00  0.00    +0.000 Cl
ATOM      6  C   UNL     1      47.376   6.102  12.595  0.00  0.00    +0.000 A 
ATOM      7  C   UNL     1      46.772   5.309  13.571  0.00  0.00    +0.000 A 
ATOM      8  C   UNL     1      47.300   5.322  14.868  0.00  0.00    +0.000 A 
ATOM      9  C   UNL     1      48.404   6.122  15.198  0.00  0.00    +0.000 A 
BRANCH   9  10
ATOM     10  O   UNL     1      48.958   6.131  16.467  0.00  0.00    +0.000 OA
BRANCH  10  11
ATOM     11  C   UNL     1      49.343   4.868  17.074  0.00  0.00    +0.000 C 
ATOM     12  C   UNL     1      48.972   4.653  18.548  0.00  0.00    +0.000 C 
ATOM     13  O   UNL     1      50.359   4.613  18.952  0.00  0.00    +0.000 OA
ATOM     14  C   UNL     1      50.786   4.744  17.577  0.00  0.00    +0.000 C 
ENDBRANCH  10  11
ENDBRANCH   9  10
ENDBRANCH   1   7
BRANCH   1  15
ATOM     15  C   UNL     1      44.393   5.234  12.719  0.00  0.00    +0.000 C 
BRANCH  15  16
ATOM     16  O   UNL     1      43.642   4.403  11.826  0.00  0.00    +0.000 OA
BRANCH  16  17
ATOM     17  C   UNL     1      44.284   3.986  10.693  0.00  0.00    +0.000 A 
ATOM     18  C   UNL     1      44.307   2.680  10.203  0.00  0.00    +0.000 A 
ATOM     19  C   UNL     1      45.003   2.375   9.030  0.00  0.00    +0.000 A 
ATOM     20  C   UNL     1      45.677   3.377   8.323  0.00  0.00    +0.000 A 
ATOM     21  C   UNL     1      45.669   4.687   8.815  0.00  0.00    +0.000 A 
ATOM     22  C   UNL     1      44.973   4.986   9.994  0.00  0.00    +0.000 A 
BRANCH  20  23
ATOM     23  C   UNL     1      46.401   2.988   7.087  0.00  0.00    +0.000 C 
ATOM     24  N   UNL     1      46.978   1.753   7.049  0.00  0.00    +0.000 N 
ATOM     25  O   UNL     1      46.519   3.759   6.144  0.00  0.00    +0.000 OA
ATOM     26  H   UNL     1      47.112   1.183   7.873  0.00  0.00    +0.000 HD
ATOM     27  H   UNL     1      47.563   1.559   6.242  0.00  0.00    +0.000 HD
ENDBRANCH  20  23
ENDBRANCH  16  17
ENDBRANCH  15  16
ENDBRANCH   1  15
TORSDOF 7
ENDMDL
MODEL 5
REMARK VINA RESULT:    -6.188      3.387      5.123
REMARK INTER + INTRA:          -9.694
REMARK INTER:                  -8.585
REMARK INTRA:                  -1.109
REMARK UNBOUND:                -0.974
REMARK  Name = 
REMARK  8 active torsions:
REMARK  status: ('A' for Active; 'I' for Inactive)
REMARK    1  A    between atoms: C_1  and  C_2
REMARK    2  A    between atoms: C_6  and  C_7
REMARK    3  A    between atoms: C_7  and  C_8
REMARK    4  A    between atoms: C_8  and  O_9
REMARK    5  A    between atoms: O_9  and  C_10
REMARK    6  A    between atoms: C_13  and  C_14
REMARK    7  A    between atoms: C_20  and  O_21
REMARK    8  A    between atoms: O_21  and  C_22
REMARK                            x       y       z     vdW  Elec       q    Type
REMARK                         _______ _______ _______ _____ _____    ______ ____
ROOT
ATOM      1  C   UNL     1      49.216   8.481  13.862  0.00  0.00    +0.000 C 
ENDROOT
BRANCH   1   7
ATOM      2  C   UNL     1      48.084   7.136  19.447  0.00  0.00    +0.000 C 
ATOM      3  C   UNL     1      48.362   7.487  18.006  0.00  0.00    +0.000 A 
ATOM      4  C   UNL     1      48.144   8.789  17.509  0.00  0.00    +0.000 A 
ATOM      5 CL   UNL     1      47.530  10.077  18.489  0.00  0.00    +0.000 Cl
ATOM      6  C   UNL     1      48.418   9.106  16.173  0.00  0.00    +0.000 A 
ATOM      7  C   UNL     1      48.908   8.137  15.297  0.00  0.00    +0.000 A 
ATOM      8  C   UNL     1      49.133   6.844  15.783  0.00  0.00    +0.000 A 
ATOM      9  C   UNL     1      48.862   6.509  17.119  0.00  0.00    +0.000 A 
BRANCH   9  10
ATOM     10  O   UNL     1      49.101   5.244  17.627  0.00  0.00    +0.000 OA
BRANCH  10  11
ATOM     11  C   UNL     1      48.519   4.096  16.953  0.00  0.00    +0.000 C 
ATOM     12  C   UNL     1      47.030   4.175  16.585  0.00  0.00    +0.000 C 
ATOM     13  O   UNL     1      46.691   3.095  17.485  0.00  0.00    +0.000 OA
ATOM     14  C   UNL     1      48.083   2.915  17.829  0.00  0.00    +0.000 C 
ENDBRANCH  10  11
ENDBRANCH   9  10
ENDBRANCH   1   7
BRANCH   1  15
ATOM     15  C   UNL     1      49.176   7.260  12.941  0.00  0.00    +0.000 C 
BRANCH  15  16
ATOM     16  O   UNL     1      48.092   7.423  12.019  0.00  0.00    +0.000 OA
BRANCH  16  17
ATOM     17  C   UNL     1      47.099   6.486  12.070  0.00  0.00    +0.000 A 
ATOM     18  C   UNL     1      46.831   5.638  13.146  0.00  0.00    +0.000 A 
ATOM     19  C   UNL     1      45.784   4.715  13.078  0.00  0.00    +0.000 A 
ATOM     20  C   UNL     1      44.980   4.635  11.936  0.00  0.00    +0.000 A 
ATOM     21  C   UNL     1      45.250   5.473  10.848  0.00  0.00    +0.000 A 
ATOM     22  C   UNL     1      46.304   6.394  10.919  0.00  0.00    +0.000 A 
BRANCH  20  23
ATOM     23  C   UNL     1      43.888   3.631  11.924  0.00  0.00    +0.000 C 
ATOM     24  N   UNL     1      44.092   2.459  12.590  0.00  0.00    +0.000 N 
ATOM     25  O   UNL     1      42.849   3.821  11.305  0.00  0.00    +0.000 OA
ATOM     26  H   UNL     1      45.003   2.160  12.909  0.00  0.00    +0.000 HD
ATOM     27  H   UNL     1      43.379   1.747  12.469  0.00  0.00    +0.000 HD
ENDBRANCH  20  23
ENDBRANCH  16  17
ENDBRANCH  15  16
ENDBRANCH   1  15
TORSDOF 7
ENDMDL
MODEL 6
REMARK VINA RESULT:    -6.026      4.182      5.995
REMARK INTER + INTRA:          -9.467
REMARK INTER:                  -8.717
REMARK INTRA:                  -0.749
REMARK UNBOUND:                -0.974
REMARK  Name = 
REMARK  8 active torsions:
REMARK  status: ('A' for Active; 'I' for Inactive)
REMARK    1  A    between atoms: C_1  and  C_2
REMARK    2  A    between atoms: C_6  and  C_7
REMARK    3  A    between atoms: C_7  and  C_8
REMARK    4  A    between atoms: C_8  and  O_9
REMARK    5  A    between atoms: O_9  and  C_10
REMARK    6  A    between atoms: C_13  and  C_14
REMARK    7  A    between atoms: C_20  and  O_21
REMARK    8  A    between atoms: O_21  and  C_22
REMARK                            x       y       z     vdW  Elec       q    Type
REMARK                         _______ _______ _______ _____ _____    ______ ____
ROOT
ATOM      1  C   UNL     1      49.124   7.799  14.847  0.00  0.00    +0.000 C 
ENDROOT
BRANCH   1   7
ATOM      2  C   UNL     1      51.836   4.203  18.588  0.00  0.00    +0.000 C 
ATOM      3  C   UNL     1      51.144   5.141  17.630  0.00  0.00    +0.000 A 
ATOM      4  C   UNL     1      51.874   6.005  16.788  0.00  0.00    +0.000 A 
ATOM      5 CL   UNL     1      53.603   6.078  16.790  0.00  0.00    +0.000 Cl
ATOM      6  C   UNL     1      51.220   6.862  15.894  0.00  0.00    +0.000 A 
ATOM      7  C   UNL     1      49.827   6.887  15.819  0.00  0.00    +0.000 A 
ATOM      8  C   UNL     1      49.095   6.027  16.648  0.00  0.00    +0.000 A 
ATOM      9  C   UNL     1      49.734   5.164  17.550  0.00  0.00    +0.000 A 
BRANCH   9  10
ATOM     10  O   UNL     1      49.031   4.289  18.360  0.00  0.00    +0.000 OA
BRANCH  10  11
ATOM     11  C   UNL     1      48.408   3.122  17.758  0.00  0.00    +0.000 C 
ATOM     12  C   UNL     1      49.235   2.333  16.733  0.00  0.00    +0.000 C 
ATOM     13  O   UNL     1      48.323   2.661  15.659  0.00  0.00    +0.000 OA
ATOM     14  C   UNL     1      47.458   3.364  16.579  0.00  0.00    +0.000 C 
ENDBRANCH  10  11
ENDBRANCH   9  10
ENDBRANCH   1   7
BRANCH   1  15
ATOM     15  C   UNL     1      49.385   7.418  13.388  0.00  0.00    +0.000 C 
BRANCH  15  16
ATOM     16  O   UNL     1      48.785   6.141  13.138  0.00  0.00    +0.000 OA
BRANCH  16  17
ATOM     17  C   UNL     1      47.467   6.144  12.779  0.00  0.00    +0.000 A 
ATOM     18  C   UNL     1      46.895   6.930  11.778  0.00  0.00    +0.000 A 
ATOM     19  C   UNL     1      45.528   6.845  11.503  0.00  0.00    +0.000 A 
ATOM     20  C   UNL     1      44.713   5.960  12.218  0.00  0.00    +0.000 A 
ATOM     21  C   UNL     1      45.276   5.177  13.232  0.00  0.00    +0.000 A 
ATOM     22  C   UNL     1      46.647   5.270  13.507  0.00  0.00    +0.000 A 
BRANCH  20  23
ATOM     23  C   UNL     1      43.268   5.921  11.883  0.00  0.00    +0.000 C 
ATOM     24  N   UNL     1      42.771   6.909  11.087  0.00  0.00    +0.000 N 
ATOM     25  O   UNL     1      42.529   5.055  12.334  0.00  0.00    +0.000 OA
ATOM     26  H   UNL     1      43.277   7.762  10.888  0.00  0.00    +0.000 HD
ATOM     27  H   UNL     1      41.763   6.923  10.969  0.00  0.00    +0.000 HD
ENDBRANCH  20  23
ENDBRANCH  16  17
ENDBRANCH  15  16
ENDBRANCH   1  15
TORSDOF 7
ENDMDL
MODEL 7
REMARK VINA RESULT:    -6.023      3.446      7.790
REMARK INTER + INTRA:          -9.461
REMARK INTER:                  -9.397
REMARK INTRA:                  -0.064
REMARK UNBOUND:                -0.974
REMARK  Name = 
REMARK  8 active torsions:
REMARK  status: ('A' for Active; 'I' for Inactive)
REMARK    1  A    between atoms: C_1  and  C_2
REMARK    2  A    between atoms: C_6  and  C_7
REMARK    3  A    between atoms: C_7  and  C_8
REMARK    4  A    between atoms: C_8  and  O_9
REMARK    5  A    between atoms: O_9  and  C_10
REMARK    6  A    between atoms: C_13  and  C_14
REMARK    7  A    between atoms: C_20  and  O_21
REMARK    8  A    between atoms: O_21  and  C_22
REMARK                            x       y       z     vdW  Elec       q    Type
REMARK                         _______ _______ _______ _____ _____    ______ ____
ROOT
ATOM      1  C   UNL     1      47.371   3.967  14.960  0.00  0.00    +0.000 C 
ENDROOT
BRANCH   1   7
ATOM      2  C   UNL     1      44.655   7.785  11.448  0.00  0.00    +0.000 C 
ATOM      3  C   UNL     1      45.365   6.799  12.342  0.00  0.00    +0.000 A 
ATOM      4  C   UNL     1      46.719   6.968  12.699  0.00  0.00    +0.000 A 
ATOM      5 CL   UNL     1      47.678   8.295  12.136  0.00  0.00    +0.000 Cl
ATOM      6  C   UNL     1      47.363   6.054  13.540  0.00  0.00    +0.000 A 
ATOM      7  C   UNL     1      46.682   4.945  14.042  0.00  0.00    +0.000 A 
ATOM      8  C   UNL     1      45.335   4.771  13.699  0.00  0.00    +0.000 A 
ATOM      9  C   UNL     1      44.676   5.678  12.855  0.00  0.00    +0.000 A 
BRANCH   9  10
ATOM     10  O   UNL     1      43.339   5.540  12.522  0.00  0.00    +0.000 OA
BRANCH  10  11
ATOM     11  C   UNL     1      42.954   4.504  11.578  0.00  0.00    +0.000 C 
ATOM     12  C   UNL     1      43.403   3.068  11.887  0.00  0.00    +0.000 C 
ATOM     13  O   UNL     1      44.250   3.019  10.716  0.00  0.00    +0.000 OA
ATOM     14  C   UNL     1      43.821   4.342  10.323  0.00  0.00    +0.000 C 
ENDBRANCH  10  11
ENDBRANCH   9  10
ENDBRANCH   1   7
BRANCH   1  15
ATOM     15  C   UNL     1      47.087   4.244  16.437  0.00  0.00    +0.000 C 
BRANCH  15  16
ATOM     16  O   UNL     1      48.282   4.754  17.041  0.00  0.00    +0.000 OA
BRANCH  16  17
ATOM     17  C   UNL     1      49.317   3.875  17.187  0.00  0.00    +0.000 A 
ATOM     18  C   UNL     1      49.244   2.492  17.015  0.00  0.00    +0.000 A 
ATOM     19  C   UNL     1      50.377   1.694  17.195  0.00  0.00    +0.000 A 
ATOM     20  C   UNL     1      51.605   2.270  17.538  0.00  0.00    +0.000 A 
ATOM     21  C   UNL     1      51.684   3.655  17.724  0.00  0.00    +0.000 A 
ATOM     22  C   UNL     1      50.544   4.450  17.547  0.00  0.00    +0.000 A 
BRANCH  20  23
ATOM     23  C   UNL     1      52.769   1.368  17.720  0.00  0.00    +0.000 C 
ATOM     24  N   UNL     1      52.540   0.127  18.235  0.00  0.00    +0.000 N 
ATOM     25  O   UNL     1      53.909   1.731  17.457  0.00  0.00    +0.000 OA
ATOM     26  H   UNL     1      51.670  -0.130  18.682  0.00  0.00    +0.000 HD
ATOM     27  H   UNL     1      53.363  -0.423  18.457  0.00  0.00    +0.000 HD
ENDBRANCH  20  23
ENDBRANCH  16  17
ENDBRANCH  15  16
ENDBRANCH   1  15
TORSDOF 7
ENDMDL
MODEL 8
REMARK VINA RESULT:    -5.973      2.893      5.134
REMARK INTER + INTRA:          -9.392
REMARK INTER:                  -8.799
REMARK INTRA:                  -0.593
REMARK UNBOUND:                -0.974
REMARK  Name = 
REMARK  8 active torsions:
REMARK  status: ('A' for Active; 'I' for Inactive)
REMARK    1  A    between atoms: C_1  and  C_2
REMARK    2  A    between atoms: C_6  and  C_7
REMARK    3  A    between atoms: C_7  and  C_8
REMARK    4  A    between atoms: C_8  and  O_9
REMARK    5  A    between atoms: O_9  and  C_10
REMARK    6  A    between atoms: C_13  and  C_14
REMARK    7  A    between atoms: C_20  and  O_21
REMARK    8  A    between atoms: O_21  and  C_22
REMARK                            x       y       z     vdW  Elec       q    Type
REMARK                         _______ _______ _______ _____ _____    ______ ____
ROOT
ATOM      1  C   UNL     1      49.462   7.867  14.559  0.00  0.00    +0.000 C 
ENDROOT
BRANCH   1   7
ATOM      2  C   UNL     1      48.524   5.881  19.987  0.00  0.00    +0.000 C 
ATOM      3  C   UNL     1      48.751   6.395  18.586  0.00  0.00    +0.000 A 
ATOM      4  C   UNL     1      48.270   7.655  18.175  0.00  0.00    +0.000 A 
ATOM      5 CL   UNL     1      47.373   8.703  19.221  0.00  0.00    +0.000 Cl
ATOM      6  C   UNL     1      48.498   8.126  16.877  0.00  0.00    +0.000 A 
ATOM      7  C   UNL     1      49.204   7.354  15.952  0.00  0.00    +0.000 A 
ATOM      8  C   UNL     1      49.691   6.104  16.354  0.00  0.00    +0.000 A 
ATOM      9  C   UNL     1      49.469   5.617  17.651  0.00  0.00    +0.000 A 
BRANCH   9  10
ATOM     10  O   UNL     1      49.962   4.396  18.076  0.00  0.00    +0.000 OA
BRANCH  10  11
ATOM     11  C   UNL     1      49.187   3.195  17.810  0.00  0.00    +0.000 C 
ATOM     12  C   UNL     1      49.820   2.138  16.893  0.00  0.00    +0.000 C 
ATOM     13  O   UNL     1      48.805   2.325  15.881  0.00  0.00    +0.000 OA
ATOM     14  C   UNL     1      48.115   3.280  16.717  0.00  0.00    +0.000 C 
ENDBRANCH  10  11
ENDBRANCH   9  10
ENDBRANCH   1   7
BRANCH   1  15
ATOM     15  C   UNL     1      48.813   6.996  13.481  0.00  0.00    +0.000 C 
BRANCH  15  16
ATOM     16  O   UNL     1      47.392   7.028  13.668  0.00  0.00    +0.000 OA
BRANCH  16  17
ATOM     17  C   UNL     1      46.641   6.324  12.770  0.00  0.00    +0.000 A 
ATOM     18  C   UNL     1      46.539   6.590  11.404  0.00  0.00    +0.000 A 
ATOM     19  C   UNL     1      45.733   5.797  10.584  0.00  0.00    +0.000 A 
ATOM     20  C   UNL     1      45.025   4.714  11.117  0.00  0.00    +0.000 A 
ATOM     21  C   UNL     1      45.111   4.448  12.489  0.00  0.00    +0.000 A 
ATOM     22  C   UNL     1      45.917   5.249  13.307  0.00  0.00    +0.000 A 
BRANCH  20  23
ATOM     23  C   UNL     1      44.182   3.913  10.196  0.00  0.00    +0.000 C 
ATOM     24  N   UNL     1      44.023   4.367   8.921  0.00  0.00    +0.000 N 
ATOM     25  O   UNL     1      43.610   2.897  10.570  0.00  0.00    +0.000 OA
ATOM     26  H   UNL     1      44.272   5.305   8.636  0.00  0.00    +0.000 HD
ATOM     27  H   UNL     1      43.351   3.865   8.348  0.00  0.00    +0.000 HD
ENDBRANCH  20  23
ENDBRANCH  16  17
ENDBRANCH  15  16
ENDBRANCH   1  15
TORSDOF 7
ENDMDL
MODEL 9
REMARK VINA RESULT:    -5.877      3.337      5.116
REMARK INTER + INTRA:          -9.256
REMARK INTER:                  -8.163
REMARK INTRA:                  -1.093
REMARK UNBOUND:                -0.974
REMARK  Name = 
REMARK  8 active torsions:
REMARK  status: ('A' for Active; 'I' for Inactive)
REMARK    1  A    between atoms: C_1  and  C_2
REMARK    2  A    between atoms: C_6  and  C_7
REMARK    3  A    between atoms: C_7  and  C_8
REMARK    4  A    between atoms: C_8  and  O_9
REMARK    5  A    between atoms: O_9  and  C_10
REMARK    6  A    between atoms: C_13  and  C_14
REMARK    7  A    between atoms: C_20  and  O_21
REMARK    8  A    between atoms: O_21  and  C_22
REMARK                            x       y       z     vdW  Elec       q    Type
REMARK                         _______ _______ _______ _____ _____    ______ ____
ROOT
ATOM      1  C   UNL     1      48.691   9.043  13.772  0.00  0.00    +0.000 C 
ENDROOT
BRANCH   1   7
ATOM      2  C   UNL     1      52.016   5.658  17.203  0.00  0.00    +0.000 C 
ATOM      3  C   UNL     1      51.162   6.542  16.328  0.00  0.00    +0.000 A 
ATOM      4  C   UNL     1      51.675   7.720  15.745  0.00  0.00    +0.000 A 
ATOM      5 CL   UNL     1      53.301   8.259  15.994  0.00  0.00    +0.000 Cl
ATOM      6  C   UNL     1      50.876   8.525  14.925  0.00  0.00    +0.000 A 
ATOM      7  C   UNL     1      49.548   8.185  14.667  0.00  0.00    +0.000 A 
ATOM      8  C   UNL     1      49.032   7.013  15.236  0.00  0.00    +0.000 A 
ATOM      9  C   UNL     1      49.819   6.197  16.063  0.00  0.00    +0.000 A 
BRANCH   9  10
ATOM     10  O   UNL     1      49.338   5.023  16.616  0.00  0.00    +0.000 OA
BRANCH  10  11
ATOM     11  C   UNL     1      47.933   4.691  16.445  0.00  0.00    +0.000 C 
ATOM     12  C   UNL     1      47.102   4.471  17.717  0.00  0.00    +0.000 C 
ATOM     13  O   UNL     1      46.878   3.078  17.400  0.00  0.00    +0.000 OA
ATOM     14  C   UNL     1      47.589   3.225  16.151  0.00  0.00    +0.000 C 
ENDBRANCH  10  11
ENDBRANCH   9  10
ENDBRANCH   1   7
BRANCH   1  15
ATOM     15  C   UNL     1      47.313   8.433  13.513  0.00  0.00    +0.000 C 
BRANCH  15  16
ATOM     16  O   UNL     1      47.319   7.835  12.210  0.00  0.00    +0.000 OA
BRANCH  16  17
ATOM     17  C   UNL     1      46.560   6.711  12.049  0.00  0.00    +0.000 A 
ATOM     18  C   UNL     1      46.012   6.261  10.848  0.00  0.00    +0.000 A 
ATOM     19  C   UNL     1      45.248   5.091  10.811  0.00  0.00    +0.000 A 
ATOM     20  C   UNL     1      45.031   4.347  11.975  0.00  0.00    +0.000 A 
ATOM     21  C   UNL     1      45.566   4.798  13.187  0.00  0.00    +0.000 A 
ATOM     22  C   UNL     1      46.328   5.974  13.220  0.00  0.00    +0.000 A 
BRANCH  20  23
ATOM     23  C   UNL     1      44.206   3.117  11.871  0.00  0.00    +0.000 C 
ATOM     24  N   UNL     1      44.056   2.554  10.639  0.00  0.00    +0.000 N 
ATOM     25  O   UNL     1      43.641   2.640  12.846  0.00  0.00    +0.000 OA
ATOM     26  H   UNL     1      44.299   3.032   9.782  0.00  0.00    +0.000 HD
ATOM     27  H   UNL     1      43.396   1.785  10.577  0.00  0.00    +0.000 HD
ENDBRANCH  20  23
ENDBRANCH  16  17
ENDBRANCH  15  16
ENDBRANCH   1  15
TORSDOF 7
ENDMDL
