MODEL 1
REMARK VINA RESULT:    -6.923      0.000      0.000
REMARK INTER + INTRA:         -11.082
REMARK INTER:                  -9.958
REMARK INTRA:                  -1.124
REMARK UNBOUND:                -1.124
REMARK  Name = 
REMARK  8 active torsions:
REMARK  status: ('A' for Active; 'I' for Inactive)
REMARK    1  A    between atoms: N_1  and  C_2
REMARK    2  A    between atoms: C_2  and  C_3
REMARK    3  A    between atoms: C_6  and  N_7
REMARK    4  A    between atoms: N_7  and  C_8
REMARK    5  A    between atoms: C_8  and  C_9
REMARK    6  A    between atoms: C_9  and  C_10
REMARK    7  A    between atoms: C_14  and  C_15
REMARK    8  A    between atoms: C_24  and  C_25
REMARK                            x       y       z     vdW  Elec       q    Type
REMARK                         _______ _______ _______ _____ _____    ______ ____
ROOT
ATOM      1  N   UNL     1      48.318   7.530  14.977  0.00  0.00    +0.000 N 
ATOM      2  H   UNL     1      47.308   7.655  14.919  0.00  0.00    +0.000 HD
ENDROOT
BRANCH   1   6
ATOM      3  C   UNL     1      49.164   5.031  18.216  0.00  0.00    +0.000 A 
ATOM      4  C   UNL     1      49.424   6.397  18.174  0.00  0.00    +0.000 A 
ATOM      5  N   UNL     1      49.144   7.211  17.122  0.00  0.00    +0.000 NA
ATOM      6  C   UNL     1      48.544   6.673  16.050  0.00  0.00    +0.000 A 
ATOM      7  C   UNL     1      48.229   5.325  16.004  0.00  0.00    +0.000 A 
ATOM      8  C   UNL     1      48.539   4.493  17.087  0.00  0.00    +0.000 A 
BRANCH   8   9
ATOM      9  C   UNL     1      48.159   3.057  17.001  0.00  0.00    +0.000 C 
ATOM     10  N   UNL     1      47.005   2.681  17.631  0.00  0.00    +0.000 N 
ATOM     11  O   UNL     1      48.838   2.235  16.397  0.00  0.00    +0.000 OA
ATOM     12  H   UNL     1      46.344   3.327  18.035  0.00  0.00    +0.000 HD
ATOM     13  H   UNL     1      46.720   1.713  17.537  0.00  0.00    +0.000 HD
ENDBRANCH   8   9
BRANCH   3  14
ATOM     14  C   UNL     1      49.554   4.239  19.431  0.00  0.00    +0.000 C 
BRANCH  14  15
ATOM     15  N   UNL     1      48.405   3.970  20.286  0.00  0.00    +0.000 NA
ATOM     16  H   UNL     1      47.588   4.440  19.889  0.00  0.00    +0.000 HD
ATOM     17  H   UNL     1      48.567   4.454  21.174  0.00  0.00    +0.000 HD
ENDBRANCH  14  15
ENDBRANCH   3  14
ENDBRANCH   1   6
BRANCH   1  18
ATOM     18  C   UNL     1      48.997   7.231  13.721  0.00  0.00    +0.000 C 
BRANCH  18  19
ATOM     19  C   UNL     1      48.532   8.162  12.600  0.00  0.00    +0.000 C 
BRANCH  19  20
ATOM     20  C   UNL     1      47.138   7.806  12.139  0.00  0.00    +0.000 A 
ATOM     21  C   UNL     1      46.068   8.668  12.375  0.00  0.00    +0.000 A 
ATOM     22  C   UNL     1      44.812   8.289  11.938  0.00  0.00    +0.000 A 
ATOM     23  N   UNL     1      44.558   7.125  11.304  0.00  0.00    +0.000 NA
ATOM     24  C   UNL     1      45.591   6.295  11.029  0.00  0.00    +0.000 A 
ATOM     25  C   UNL     1      46.892   6.619  11.433  0.00  0.00    +0.000 A 
BRANCH  24  26
ATOM     26  C   UNL     1      45.253   5.018  10.346  0.00  0.00    +0.000 A 
ATOM     27  C   UNL     1      45.594   4.850   8.981  0.00  0.00    +0.000 A 
ATOM     28  C   UNL     1      45.326   3.668   8.282  0.00  0.00    +0.000 A 
ATOM     29  C   UNL     1      44.723   2.601   8.930  0.00  0.00    +0.000 A 
ATOM     30  C   UNL     1      44.375   2.726  10.272  0.00  0.00    +0.000 A 
ATOM     31  C   UNL     1      44.623   3.919  10.973  0.00  0.00    +0.000 A 
ATOM     32 CL   UNL     1      44.049   3.941  12.610  0.00  0.00    +0.000 Cl
ENDBRANCH  24  26
ENDBRANCH  19  20
ENDBRANCH  18  19
ENDBRANCH   1  18
TORSDOF 8
ENDMDL
MODEL 2
REMARK VINA RESULT:    -6.871      1.681      2.074
REMARK INTER + INTRA:         -11.008
REMARK INTER:                  -9.784
REMARK INTRA:                  -1.224
REMARK UNBOUND:                -1.124
REMARK  Name = 
REMARK  8 active torsions:
REMARK  status: ('A' for Active; 'I' for Inactive)
REMARK    1  A    between atoms: N_1  and  C_2
REMARK    2  A    between atoms: C_2  and  C_3
REMARK    3  A    between atoms: C_6  and  N_7
REMARK    4  A    between atoms: N_7  and  C_8
REMARK    5  A    between atoms: C_8  and  C_9
REMARK    6  A    between atoms: C_9  and  C_10
REMARK    7  A    between atoms: C_14  and  C_15
REMARK    8  A    between atoms: C_24  and  C_25
REMARK                            x       y       z     vdW  Elec       q    Type
REMARK                         _______ _______ _______ _____ _____    ______ ____
ROOT
ATOM      1  N   UNL     1      49.396   7.810  14.456  0.00  0.00    +0.000 N 
ATOM      2  H   UNL     1      48.491   8.271  14.548  0.00  0.00    +0.000 HD
ENDROOT
BRANCH   1   6
ATOM      3  C   UNL     1      49.760   4.961  17.490  0.00  0.00    +0.000 A 
ATOM      4  C   UNL     1      50.820   5.656  16.918  0.00  0.00    +0.000 A 
ATOM      5  N   UNL     1      50.701   6.587  15.935  0.00  0.00    +0.000 NA
ATOM      6  C   UNL     1      49.470   6.887  15.496  0.00  0.00    +0.000 A 
ATOM      7  C   UNL     1      48.349   6.261  16.016  0.00  0.00    +0.000 A 
ATOM      8  C   UNL     1      48.487   5.291  17.016  0.00  0.00    +0.000 A 
BRANCH   8   9
ATOM      9  C   UNL     1      47.253   4.663  17.560  0.00  0.00    +0.000 C 
ATOM     10  N   UNL     1      46.631   5.308  18.593  0.00  0.00    +0.000 N 
ATOM     11  O   UNL     1      46.799   3.615  17.115  0.00  0.00    +0.000 OA
ATOM     12  H   UNL     1      46.881   6.230  18.918  0.00  0.00    +0.000 HD
ATOM     13  H   UNL     1      45.765   4.908  18.936  0.00  0.00    +0.000 HD
ENDBRANCH   8   9
BRANCH   3  14
ATOM     14  C   UNL     1      50.033   3.932  18.550  0.00  0.00    +0.000 C 
BRANCH  14  15
ATOM     15  N   UNL     1      50.290   2.621  17.970  0.00  0.00    +0.000 NA
ATOM     16  H   UNL     1      50.745   2.750  17.063  0.00  0.00    +0.000 HD
ATOM     17  H   UNL     1      49.382   2.208  17.739  0.00  0.00    +0.000 HD
ENDBRANCH  14  15
ENDBRANCH   3  14
ENDBRANCH   1   6
BRANCH   1  18
ATOM     18  C   UNL     1      49.743   7.346  13.117  0.00  0.00    +0.000 C 
BRANCH  18  19
ATOM     19  C   UNL     1      49.122   8.237  12.040  0.00  0.00    +0.000 C 
BRANCH  19  20
ATOM     20  C   UNL     1      47.619   8.083  12.005  0.00  0.00    +0.000 A 
ATOM     21  C   UNL     1      46.787   9.192  12.148  0.00  0.00    +0.000 A 
ATOM     22  C   UNL     1      45.419   8.994  12.116  0.00  0.00    +0.000 A 
ATOM     23  N   UNL     1      44.841   7.784  11.964  0.00  0.00    +0.000 NA
ATOM     24  C   UNL     1      45.632   6.702  11.783  0.00  0.00    +0.000 A 
ATOM     25  C   UNL     1      47.027   6.830  11.793  0.00  0.00    +0.000 A 
BRANCH  24  26
ATOM     26  C   UNL     1      44.944   5.391  11.640  0.00  0.00    +0.000 A 
ATOM     27  C   UNL     1      44.239   4.853  12.744  0.00  0.00    +0.000 A 
ATOM     28  C   UNL     1      43.552   3.636  12.674  0.00  0.00    +0.000 A 
ATOM     29  C   UNL     1      43.529   2.920  11.486  0.00  0.00    +0.000 A 
ATOM     30  C   UNL     1      44.209   3.416  10.378  0.00  0.00    +0.000 A 
ATOM     31  C   UNL     1      44.918   4.628  10.450  0.00  0.00    +0.000 A 
ATOM     32 CL   UNL     1      45.781   5.060   9.007  0.00  0.00    +0.000 Cl
ENDBRANCH  24  26
ENDBRANCH  19  20
ENDBRANCH  18  19
ENDBRANCH   1  18
TORSDOF 8
ENDMDL
MODEL 3
REMARK VINA RESULT:    -6.800      3.982      8.196
REMARK INTER + INTRA:         -10.906
REMARK INTER:                 -10.828
REMARK INTRA:                  -0.078
REMARK UNBOUND:                -1.124
REMARK  Name = 
REMARK  8 active torsions:
REMARK  status: ('A' for Active; 'I' for Inactive)
REMARK    1  A    between atoms: N_1  and  C_2
REMARK    2  A    between atoms: C_2  and  C_3
REMARK    3  A    between atoms: C_6  and  N_7
REMARK    4  A    between atoms: N_7  and  C_8
REMARK    5  A    between atoms: C_8  and  C_9
REMARK    6  A    between atoms: C_9  and  C_10
REMARK    7  A    between atoms: C_14  and  C_15
REMARK    8  A    between atoms: C_24  and  C_25
REMARK                            x       y       z     vdW  Elec       q    Type
REMARK                         _______ _______ _______ _____ _____    ______ ____
ROOT
ATOM      1  N   UNL     1      43.826   2.579  10.803  0.00  0.00    +0.000 N 
ATOM      2  H   UNL     1      43.210   1.812  10.537  0.00  0.00    +0.000 HD
ENDROOT
BRANCH   1   6
ATOM      3  C   UNL     1      46.213   3.337   7.459  0.00  0.00    +0.000 A 
ATOM      4  C   UNL     1      45.414   4.280   8.099  0.00  0.00    +0.000 A 
ATOM      5  N   UNL     1      44.641   4.034   9.189  0.00  0.00    +0.000 NA
ATOM      6  C   UNL     1      44.667   2.801   9.716  0.00  0.00    +0.000 A 
ATOM      7  C   UNL     1      45.445   1.799   9.161  0.00  0.00    +0.000 A 
ATOM      8  C   UNL     1      46.222   2.059   8.027  0.00  0.00    +0.000 A 
BRANCH   8   9
ATOM      9  C   UNL     1      47.060   0.958   7.481  0.00  0.00    +0.000 C 
ATOM     10  N   UNL     1      46.595  -0.317   7.646  0.00  0.00    +0.000 N 
ATOM     11  O   UNL     1      48.122   1.166   6.904  0.00  0.00    +0.000 OA
ATOM     12  H   UNL     1      45.676  -0.544   7.997  0.00  0.00    +0.000 HD
ATOM     13  H   UNL     1      47.140  -1.067   7.236  0.00  0.00    +0.000 HD
ENDBRANCH   8   9
BRANCH   3  14
ATOM     14  C   UNL     1      46.995   3.733   6.240  0.00  0.00    +0.000 C 
BRANCH  14  15
ATOM     15  N   UNL     1      46.675   2.884   5.100  0.00  0.00    +0.000 NA
ATOM     16  H   UNL     1      46.222   3.457   4.385  0.00  0.00    +0.000 HD
ATOM     17  H   UNL     1      45.944   2.234   5.402  0.00  0.00    +0.000 HD
ENDBRANCH  14  15
ENDBRANCH   3  14
ENDBRANCH   1   6
BRANCH   1  18
ATOM     18  C   UNL     1      43.177   3.741  11.401  0.00  0.00    +0.000 C 
BRANCH  18  19
ATOM     19  C   UNL     1      43.624   3.946  12.850  0.00  0.00    +0.000 C 
BRANCH  19  20
ATOM     20  C   UNL     1      44.807   4.882  12.928  0.00  0.00    +0.000 A 
ATOM     21  C   UNL     1      46.025   4.448  13.447  0.00  0.00    +0.000 A 
ATOM     22  C   UNL     1      47.073   5.348  13.503  0.00  0.00    +0.000 A 
ATOM     23  N   UNL     1      46.982   6.631  13.093  0.00  0.00    +0.000 NA
ATOM     24  C   UNL     1      45.820   7.059  12.548  0.00  0.00    +0.000 A 
ATOM     25  C   UNL     1      44.720   6.198  12.450  0.00  0.00    +0.000 A 
BRANCH  24  26
ATOM     26  C   UNL     1      45.767   8.485  12.130  0.00  0.00    +0.000 A 
ATOM     27  C   UNL     1      46.856   9.338  12.434  0.00  0.00    +0.000 A 
ATOM     28  C   UNL     1      46.882  10.684  12.053  0.00  0.00    +0.000 A 
ATOM     29  C   UNL     1      45.826  11.222  11.334  0.00  0.00    +0.000 A 
ATOM     30  C   UNL     1      44.738  10.416  11.014  0.00  0.00    +0.000 A 
ATOM     31  C   UNL     1      44.698   9.068  11.413  0.00  0.00    +0.000 A 
ATOM     32 CL   UNL     1      43.234   8.227  11.010  0.00  0.00    +0.000 Cl
ENDBRANCH  24  26
ENDBRANCH  19  20
ENDBRANCH  18  19
ENDBRANCH   1  18
TORSDOF 8
ENDMDL
MODEL 4
REMARK VINA RESULT:    -6.786      3.745      8.393
REMARK INTER + INTRA:         -10.885
REMARK INTER:                 -10.714
REMARK INTRA:                  -0.171
REMARK UNBOUND:                -1.124
REMARK  Name = 
REMARK  8 active torsions:
REMARK  status: ('A' for Active; 'I' for Inactive)
REMARK    1  A    between atoms: N_1  and  C_2
REMARK    2  A    between atoms: C_2  and  C_3
REMARK    3  A    between atoms: C_6  and  N_7
REMARK    4  A    between atoms: N_7  and  C_8
REMARK    5  A    between atoms: C_8  and  C_9
REMARK    6  A    between atoms: C_9  and  C_10
REMARK    7  A    between atoms: C_14  and  C_15
REMARK    8  A    between atoms: C_24  and  C_25
REMARK                            x       y       z     vdW  Elec       q    Type
REMARK                         _______ _______ _______ _____ _____    ______ ____
ROOT
ATOM      1  N   UNL     1      43.608   2.530  10.871  0.00  0.00    +0.000 N 
ATOM      2  H   UNL     1      42.677   2.443  10.464  0.00  0.00    +0.000 HD
ENDROOT
BRANCH   1   6
ATOM      3  C   UNL     1      46.085   3.328   7.602  0.00  0.00    +0.000 A 
ATOM      4  C   UNL     1      45.251   4.257   8.216  0.00  0.00    +0.000 A 
ATOM      5  N   UNL     1      44.449   3.999   9.282  0.00  0.00    +0.000 NA
ATOM      6  C   UNL     1      44.478   2.766   9.810  0.00  0.00    +0.000 A 
ATOM      7  C   UNL     1      45.290   1.777   9.280  0.00  0.00    +0.000 A 
ATOM      8  C   UNL     1      46.098   2.051   8.170  0.00  0.00    +0.000 A 
BRANCH   8   9
ATOM      9  C   UNL     1      46.971   0.963   7.651  0.00  0.00    +0.000 C 
ATOM     10  N   UNL     1      48.124   1.340   7.021  0.00  0.00    +0.000 N 
ATOM     11  O   UNL     1      46.684  -0.222   7.774  0.00  0.00    +0.000 OA
ATOM     12  H   UNL     1      48.475   2.286   6.998  0.00  0.00    +0.000 HD
ATOM     13  H   UNL     1      48.744   0.602   6.706  0.00  0.00    +0.000 HD
ENDBRANCH   8   9
BRANCH   3  14
ATOM     14  C   UNL     1      46.898   3.737   6.408  0.00  0.00    +0.000 C 
BRANCH  14  15
ATOM     15  N   UNL     1      46.538   2.966   5.226  0.00  0.00    +0.000 NA
ATOM     16  H   UNL     1      47.113   3.284   4.443  0.00  0.00    +0.000 HD
ATOM     17  H   UNL     1      45.585   3.238   4.965  0.00  0.00    +0.000 HD
ENDBRANCH  14  15
ENDBRANCH   3  14
ENDBRANCH   1   6
BRANCH   1  18
ATOM     18  C   UNL     1      43.716   3.400  12.037  0.00  0.00    +0.000 C 
BRANCH  18  19
ATOM     19  C   UNL     1      45.162   3.502  12.525  0.00  0.00    +0.000 C 
BRANCH  19  20
ATOM     20  C   UNL     1      45.572   4.943  12.719  0.00  0.00    +0.000 A 
ATOM     21  C   UNL     1      44.708   5.981  12.376  0.00  0.00    +0.000 A 
ATOM     22  C   UNL     1      45.136   7.281  12.567  0.00  0.00    +0.000 A 
ATOM     23  N   UNL     1      46.351   7.606  13.058  0.00  0.00    +0.000 NA
ATOM     24  C   UNL     1      47.188   6.612  13.434  0.00  0.00    +0.000 A 
ATOM     25  C   UNL     1      46.816   5.271  13.279  0.00  0.00    +0.000 A 
BRANCH  24  26
ATOM     26  C   UNL     1      48.520   7.024  13.950  0.00  0.00    +0.000 A 
ATOM     27  C   UNL     1      48.858   6.748  15.297  0.00  0.00    +0.000 A 
ATOM     28  C   UNL     1      50.101   7.089  15.842  0.00  0.00    +0.000 A 
ATOM     29  C   UNL     1      51.061   7.702  15.052  0.00  0.00    +0.000 A 
ATOM     30  C   UNL     1      50.768   7.988  13.722  0.00  0.00    +0.000 A 
ATOM     31  C   UNL     1      49.513   7.667  13.175  0.00  0.00    +0.000 A 
ATOM     32 CL   UNL     1      49.279   8.169  11.530  0.00  0.00    +0.000 Cl
ENDBRANCH  24  26
ENDBRANCH  19  20
ENDBRANCH  18  19
ENDBRANCH   1  18
TORSDOF 8
ENDMDL
MODEL 5
REMARK VINA RESULT:    -6.683      1.974      2.919
REMARK INTER + INTRA:         -10.737
REMARK INTER:                  -9.919
REMARK INTRA:                  -0.818
REMARK UNBOUND:                -1.124
REMARK  Name = 
REMARK  8 active torsions:
REMARK  status: ('A' for Active; 'I' for Inactive)
REMARK    1  A    between atoms: N_1  and  C_2
REMARK    2  A    between atoms: C_2  and  C_3
REMARK    3  A    between atoms: C_6  and  N_7
REMARK    4  A    between atoms: N_7  and  C_8
REMARK    5  A    between atoms: C_8  and  C_9
REMARK    6  A    between atoms: C_9  and  C_10
REMARK    7  A    between atoms: C_14  and  C_15
REMARK    8  A    between atoms: C_24  and  C_25
REMARK                            x       y       z     vdW  Elec       q    Type
REMARK                         _______ _______ _______ _____ _____    ______ ____
ROOT
ATOM      1  N   UNL     1      46.502   5.436  14.000  0.00  0.00    +0.000 N 
ATOM      2  H   UNL     1      46.119   4.617  13.528  0.00  0.00    +0.000 HD
ENDROOT
BRANCH   1   6
ATOM      3  C   UNL     1      48.620   3.910  17.263  0.00  0.00    +0.000 A 
ATOM      4  C   UNL     1      47.714   3.189  16.492  0.00  0.00    +0.000 A 
ATOM      5  N   UNL     1      47.029   3.683  15.428  0.00  0.00    +0.000 NA
ATOM      6  C   UNL     1      47.258   4.954  15.065  0.00  0.00    +0.000 A 
ATOM      7  C   UNL     1      48.156   5.748  15.759  0.00  0.00    +0.000 A 
ATOM      8  C   UNL     1      48.842   5.232  16.865  0.00  0.00    +0.000 A 
BRANCH   8   9
ATOM      9  C   UNL     1      49.814   6.116  17.564  0.00  0.00    +0.000 C 
ATOM     10  N   UNL     1      49.406   6.679  18.742  0.00  0.00    +0.000 N 
ATOM     11  O   UNL     1      50.934   6.340  17.119  0.00  0.00    +0.000 OA
ATOM     12  H   UNL     1      48.551   6.437  19.219  0.00  0.00    +0.000 HD
ATOM     13  H   UNL     1      50.081   7.245  19.244  0.00  0.00    +0.000 HD
ENDBRANCH   8   9
BRANCH   3  14
ATOM     14  C   UNL     1      49.288   3.251  18.435  0.00  0.00    +0.000 C 
BRANCH  14  15
ATOM     15  N   UNL     1      48.568   3.507  19.675  0.00  0.00    +0.000 NA
ATOM     16  H   UNL     1      49.095   3.097  20.448  0.00  0.00    +0.000 HD
ATOM     17  H   UNL     1      47.702   2.960  19.642  0.00  0.00    +0.000 HD
ENDBRANCH  14  15
ENDBRANCH   3  14
ENDBRANCH   1   6
BRANCH   1  18
ATOM     18  C   UNL     1      47.116   6.441  13.139  0.00  0.00    +0.000 C 
BRANCH  18  19
ATOM     19  C   UNL     1      46.059   7.239  12.373  0.00  0.00    +0.000 C 
BRANCH  19  20
ATOM     20  C   UNL     1      45.242   6.339  11.474  0.00  0.00    +0.000 A 
ATOM     21  C   UNL     1      43.858   6.262  11.613  0.00  0.00    +0.000 A 
ATOM     22  C   UNL     1      43.160   5.418  10.770  0.00  0.00    +0.000 A 
ATOM     23  N   UNL     1      43.744   4.653   9.824  0.00  0.00    +0.000 NA
ATOM     24  C   UNL     1      45.082   4.744   9.647  0.00  0.00    +0.000 A 
ATOM     25  C   UNL     1      45.852   5.587  10.459  0.00  0.00    +0.000 A 
BRANCH  24  26
ATOM     26  C   UNL     1      45.678   3.866   8.605  0.00  0.00    +0.000 A 
ATOM     27  C   UNL     1      46.503   4.436   7.605  0.00  0.00    +0.000 A 
ATOM     28  C   UNL     1      47.112   3.666   6.608  0.00  0.00    +0.000 A 
ATOM     29  C   UNL     1      46.932   2.292   6.586  0.00  0.00    +0.000 A 
ATOM     30  C   UNL     1      46.130   1.693   7.553  0.00  0.00    +0.000 A 
ATOM     31  C   UNL     1      45.500   2.465   8.545  0.00  0.00    +0.000 A 
ATOM     32 CL   UNL     1      44.466   1.576   9.619  0.00  0.00    +0.000 Cl
ENDBRANCH  24  26
ENDBRANCH  19  20
ENDBRANCH  18  19
ENDBRANCH   1  18
TORSDOF 8
ENDMDL
MODEL 6
REMARK VINA RESULT:    -6.622      4.021      8.583
REMARK INTER + INTRA:         -10.650
REMARK INTER:                 -10.093
REMARK INTRA:                  -0.557
REMARK UNBOUND:                -1.124
REMARK  Name = 
REMARK  8 active torsions:
REMARK  status: ('A' for Active; 'I' for Inactive)
REMARK    1  A    between atoms: N_1  and  C_2
REMARK    2  A    between atoms: C_2  and  C_3
REMARK    3  A    between atoms: C_6  and  N_7
REMARK    4  A    between atoms: N_7  and  C_8
REMARK    5  A    between atoms: C_8  and  C_9
REMARK    6  A    between atoms: C_9  and  C_10
REMARK    7  A    between atoms: C_14  and  C_15
REMARK    8  A    between atoms: C_24  and  C_25
REMARK                            x       y       z     vdW  Elec       q    Type
REMARK                         _______ _______ _______ _____ _____    ______ ____
ROOT
ATOM      1  N   UNL     1      43.988   4.612   9.183  0.00  0.00    +0.000 N 
ATOM      2  H   UNL     1      44.313   5.467   8.732  0.00  0.00    +0.000 HD
ENDROOT
BRANCH   1   6
ATOM      3  C   UNL     1      46.291   1.440   7.737  0.00  0.00    +0.000 A 
ATOM      4  C   UNL     1      45.320   1.334   8.727  0.00  0.00    +0.000 A 
ATOM      5  N   UNL     1      44.568   2.364   9.194  0.00  0.00    +0.000 NA
ATOM      6  C   UNL     1      44.745   3.575   8.644  0.00  0.00    +0.000 A 
ATOM      7  C   UNL     1      45.675   3.778   7.638  0.00  0.00    +0.000 A 
ATOM      8  C   UNL     1      46.457   2.712   7.179  0.00  0.00    +0.000 A 
BRANCH   8   9
ATOM      9  C   UNL     1      47.426   2.973   6.081  0.00  0.00    +0.000 C 
ATOM     10  N   UNL     1      48.755   2.925   6.400  0.00  0.00    +0.000 N 
ATOM     11  O   UNL     1      47.067   3.221   4.935  0.00  0.00    +0.000 OA
ATOM     12  H   UNL     1      49.113   2.605   7.288  0.00  0.00    +0.000 HD
ATOM     13  H   UNL     1      49.419   3.057   5.646  0.00  0.00    +0.000 HD
ENDBRANCH   8   9
BRANCH   3  14
ATOM     14  C   UNL     1      47.076   0.225   7.334  0.00  0.00    +0.000 C 
BRANCH  14  15
ATOM     15  N   UNL     1      46.603  -0.970   8.020  0.00  0.00    +0.000 NA
ATOM     16  H   UNL     1      46.603  -0.788   9.026  0.00  0.00    +0.000 HD
ATOM     17  H   UNL     1      47.316  -1.694   7.895  0.00  0.00    +0.000 HD
ENDBRANCH  14  15
ENDBRANCH   3  14
ENDBRANCH   1   6
BRANCH   1  18
ATOM     18  C   UNL     1      43.857   4.667  10.635  0.00  0.00    +0.000 C 
BRANCH  18  19
ATOM     19  C   UNL     1      45.216   4.517  11.323  0.00  0.00    +0.000 C 
BRANCH  19  20
ATOM     20  C   UNL     1      45.653   5.819  11.954  0.00  0.00    +0.000 A 
ATOM     21  C   UNL     1      44.852   6.956  11.869  0.00  0.00    +0.000 A 
ATOM     22  C   UNL     1      45.303   8.122  12.458  0.00  0.00    +0.000 A 
ATOM     23  N   UNL     1      46.484   8.227  13.104  0.00  0.00    +0.000 NA
ATOM     24  C   UNL     1      47.256   7.124  13.233  0.00  0.00    +0.000 A 
ATOM     25  C   UNL     1      46.856   5.905  12.670  0.00  0.00    +0.000 A 
BRANCH  24  26
ATOM     26  C   UNL     1      48.554   7.299  13.937  0.00  0.00    +0.000 A 
ATOM     27  C   UNL     1      48.703   6.797  15.253  0.00  0.00    +0.000 A 
ATOM     28  C   UNL     1      49.902   6.908  15.966  0.00  0.00    +0.000 A 
ATOM     29  C   UNL     1      51.004   7.510  15.379  0.00  0.00    +0.000 A 
ATOM     30  C   UNL     1      50.899   8.014  14.087  0.00  0.00    +0.000 A 
ATOM     31  C   UNL     1      49.690   7.923  13.374  0.00  0.00    +0.000 A 
ATOM     32 CL   UNL     1      49.701   8.678  11.811  0.00  0.00    +0.000 Cl
ENDBRANCH  24  26
ENDBRANCH  19  20
ENDBRANCH  18  19
ENDBRANCH   1  18
TORSDOF 8
ENDMDL
MODEL 7
REMARK VINA RESULT:    -6.546      2.939      7.220
REMARK INTER + INTRA:         -10.540
REMARK INTER:                  -9.281
REMARK INTRA:                  -1.259
REMARK UNBOUND:                -1.124
REMARK  Name = 
REMARK  8 active torsions:
REMARK  status: ('A' for Active; 'I' for Inactive)
REMARK    1  A    between atoms: N_1  and  C_2
REMARK    2  A    between atoms: C_2  and  C_3
REMARK    3  A    between atoms: C_6  and  N_7
REMARK    4  A    between atoms: N_7  and  C_8
REMARK    5  A    between atoms: C_8  and  C_9
REMARK    6  A    between atoms: C_9  and  C_10
REMARK    7  A    between atoms: C_14  and  C_15
REMARK    8  A    between atoms: C_24  and  C_25
REMARK                            x       y       z     vdW  Elec       q    Type
REMARK                         _______ _______ _______ _____ _____    ______ ____
ROOT
ATOM      1  N   UNL     1      46.774   8.389  13.411  0.00  0.00    +0.000 N 
ATOM      2  H   UNL     1      46.621   8.969  12.587  0.00  0.00    +0.000 HD
ENDROOT
BRANCH   1   6
ATOM      3  C   UNL     1      45.092   4.655  12.588  0.00  0.00    +0.000 A 
ATOM      4  C   UNL     1      46.230   4.863  13.360  0.00  0.00    +0.000 A 
ATOM      5  N   UNL     1      46.774   6.078  13.632  0.00  0.00    +0.000 NA
ATOM      6  C   UNL     1      46.158   7.168  13.150  0.00  0.00    +0.000 A 
ATOM      7  C   UNL     1      45.008   7.064  12.385  0.00  0.00    +0.000 A 
ATOM      8  C   UNL     1      44.467   5.805  12.097  0.00  0.00    +0.000 A 
BRANCH   8   9
ATOM      9  C   UNL     1      43.217   5.745  11.292  0.00  0.00    +0.000 C 
ATOM     10  N   UNL     1      42.093   6.289  11.849  0.00  0.00    +0.000 N 
ATOM     11  O   UNL     1      43.179   5.235  10.178  0.00  0.00    +0.000 OA
ATOM     12  H   UNL     1      42.087   6.830  12.701  0.00  0.00    +0.000 HD
ATOM     13  H   UNL     1      41.250   6.290  11.285  0.00  0.00    +0.000 HD
ENDBRANCH   8   9
BRANCH   3  14
ATOM     14  C   UNL     1      44.612   3.253  12.338  0.00  0.00    +0.000 C 
BRANCH  14  15
ATOM     15  N   UNL     1      45.036   2.768  11.032  0.00  0.00    +0.000 NA
ATOM     16  H   UNL     1      44.565   3.319  10.311  0.00  0.00    +0.000 HD
ATOM     17  H   UNL     1      44.652   1.825  10.919  0.00  0.00    +0.000 HD
ENDBRANCH  14  15
ENDBRANCH   3  14
ENDBRANCH   1   6
BRANCH   1  18
ATOM     18  C   UNL     1      48.138   8.359  13.927  0.00  0.00    +0.000 C 
BRANCH  18  19
ATOM     19  C   UNL     1      48.274   9.206  15.194  0.00  0.00    +0.000 C 
BRANCH  19  20
ATOM     20  C   UNL     1      48.480   8.336  16.412  0.00  0.00    +0.000 A 
ATOM     21  C   UNL     1      48.262   8.842  17.693  0.00  0.00    +0.000 A 
ATOM     22  C   UNL     1      48.473   8.005  18.773  0.00  0.00    +0.000 A 
ATOM     23  N   UNL     1      48.889   6.726  18.660  0.00  0.00    +0.000 NA
ATOM     24  C   UNL     1      49.066   6.206  17.424  0.00  0.00    +0.000 A 
ATOM     25  C   UNL     1      48.861   6.992  16.284  0.00  0.00    +0.000 A 
BRANCH  24  26
ATOM     26  C   UNL     1      49.543   4.799  17.357  0.00  0.00    +0.000 A 
ATOM     27  C   UNL     1      50.916   4.521  17.567  0.00  0.00    +0.000 A 
ATOM     28  C   UNL     1      51.430   3.220  17.539  0.00  0.00    +0.000 A 
ATOM     29  C   UNL     1      50.583   2.144  17.320  0.00  0.00    +0.000 A 
ATOM     30  C   UNL     1      49.227   2.375  17.112  0.00  0.00    +0.000 A 
ATOM     31  C   UNL     1      48.709   3.683  17.118  0.00  0.00    +0.000 A 
ATOM     32 CL   UNL     1      47.016   3.803  16.756  0.00  0.00    +0.000 Cl
ENDBRANCH  24  26
ENDBRANCH  19  20
ENDBRANCH  18  19
ENDBRANCH   1  18
TORSDOF 8
ENDMDL
MODEL 8
REMARK VINA RESULT:    -6.498      2.927      7.101
REMARK INTER + INTRA:         -10.471
REMARK INTER:                  -9.251
REMARK INTRA:                  -1.220
REMARK UNBOUND:                -1.124
REMARK  Name = 
REMARK  8 active torsions:
REMARK  status: ('A' for Active; 'I' for Inactive)
REMARK    1  A    between atoms: N_1  and  C_2
REMARK    2  A    between atoms: C_2  and  C_3
REMARK    3  A    between atoms: C_6  and  N_7
REMARK    4  A    between atoms: N_7  and  C_8
REMARK    5  A    between atoms: C_8  and  C_9
REMARK    6  A    between atoms: C_9  and  C_10
REMARK    7  A    between atoms: C_14  and  C_15
REMARK    8  A    between atoms: C_24  and  C_25
REMARK                            x       y       z     vdW  Elec       q    Type
REMARK                         _______ _______ _______ _____ _____    ______ ____
ROOT
ATOM      1  N   UNL     1      47.281   7.690  11.563  0.00  0.00    +0.000 N 
ATOM      2  H   UNL     1      47.345   7.935  10.576  0.00  0.00    +0.000 HD
ENDROOT
BRANCH   1   6
ATOM      3  C   UNL     1      44.315   4.787  12.039  0.00  0.00    +0.000 A 
ATOM      4  C   UNL     1      44.627   5.769  12.974  0.00  0.00    +0.000 A 
ATOM      5  N   UNL     1      45.588   6.716  12.818  0.00  0.00    +0.000 NA
ATOM      6  C   UNL     1      46.274   6.734  11.665  0.00  0.00    +0.000 A 
ATOM      7  C   UNL     1      46.024   5.809  10.665  0.00  0.00    +0.000 A 
ATOM      8  C   UNL     1      45.043   4.827  10.847  0.00  0.00    +0.000 A 
BRANCH   8   9
ATOM      9  C   UNL     1      44.793   3.869   9.735  0.00  0.00    +0.000 C 
ATOM     10  N   UNL     1      44.106   4.341   8.651  0.00  0.00    +0.000 N 
ATOM     11  O   UNL     1      45.180   2.707   9.773  0.00  0.00    +0.000 OA
ATOM     12  H   UNL     1      43.873   5.312   8.507  0.00  0.00    +0.000 HD
ATOM     13  H   UNL     1      43.974   3.705   7.873  0.00  0.00    +0.000 HD
ENDBRANCH   8   9
BRANCH   3  14
ATOM     14  C   UNL     1      43.247   3.777  12.352  0.00  0.00    +0.000 C 
BRANCH  14  15
ATOM     15  N   UNL     1      43.813   2.454  12.580  0.00  0.00    +0.000 NA
ATOM     16  H   UNL     1      44.484   2.255  11.835  0.00  0.00    +0.000 HD
ATOM     17  H   UNL     1      43.062   1.774  12.430  0.00  0.00    +0.000 HD
ENDBRANCH  14  15
ENDBRANCH   3  14
ENDBRANCH   1   6
BRANCH   1  18
ATOM     18  C   UNL     1      48.546   7.410  12.235  0.00  0.00    +0.000 C 
BRANCH  18  19
ATOM     19  C   UNL     1      48.986   8.587  13.107  0.00  0.00    +0.000 C 
BRANCH  19  20
ATOM     20  C   UNL     1      48.942   8.225  14.574  0.00  0.00    +0.000 A 
ATOM     21  C   UNL     1      49.010   9.214  15.553  0.00  0.00    +0.000 A 
ATOM     22  C   UNL     1      48.974   8.827  16.880  0.00  0.00    +0.000 A 
ATOM     23  N   UNL     1      48.887   7.543  17.284  0.00  0.00    +0.000 NA
ATOM     24  C   UNL     1      48.779   6.572  16.348  0.00  0.00    +0.000 A 
ATOM     25  C   UNL     1      48.799   6.892  14.985  0.00  0.00    +0.000 A 
BRANCH  24  26
ATOM     26  C   UNL     1      48.706   5.173  16.846  0.00  0.00    +0.000 A 
ATOM     27  C   UNL     1      47.450   4.519  16.898  0.00  0.00    +0.000 A 
ATOM     28  C   UNL     1      47.311   3.198  17.336  0.00  0.00    +0.000 A 
ATOM     29  C   UNL     1      48.429   2.473  17.720  0.00  0.00    +0.000 A 
ATOM     30  C   UNL     1      49.681   3.079  17.681  0.00  0.00    +0.000 A 
ATOM     31  C   UNL     1      49.823   4.413  17.262  0.00  0.00    +0.000 A 
ATOM     32 CL   UNL     1      51.438   5.043  17.355  0.00  0.00    +0.000 Cl
ENDBRANCH  24  26
ENDBRANCH  19  20
ENDBRANCH  18  19
ENDBRANCH   1  18
TORSDOF 8
ENDMDL
MODEL 9
REMARK VINA RESULT:    -6.491      3.472      8.860
REMARK INTER + INTRA:         -10.461
REMARK INTER:                  -9.638
REMARK INTRA:                  -0.824
REMARK UNBOUND:                -1.124
REMARK  Name = 
REMARK  8 active torsions:
REMARK  status: ('A' for Active; 'I' for Inactive)
REMARK    1  A    between atoms: N_1  and  C_2
REMARK    2  A    between atoms: C_2  and  C_3
REMARK    3  A    between atoms: C_6  and  N_7
REMARK    4  A    between atoms: N_7  and  C_8
REMARK    5  A    between atoms: C_8  and  C_9
REMARK    6  A    between atoms: C_9  and  C_10
REMARK    7  A    between atoms: C_14  and  C_15
REMARK    8  A    between atoms: C_24  and  C_25
REMARK                            x       y       z     vdW  Elec       q    Type
REMARK                         _______ _______ _______ _____ _____    ______ ____
ROOT
ATOM      1  N   UNL     1      47.269   3.827  14.536  0.00  0.00    +0.000 N 
ATOM      2  H   UNL     1      47.508   2.861  14.316  0.00  0.00    +0.000 HD
ENDROOT
BRANCH   1   6
ATOM      3  C   UNL     1      44.290   5.090  11.893  0.00  0.00    +0.000 A 
ATOM      4  C   UNL     1      45.039   5.930  12.710  0.00  0.00    +0.000 A 
ATOM      5  N   UNL     1      46.011   5.520  13.567  0.00  0.00    +0.000 NA
ATOM      6  C   UNL     1      46.300   4.211  13.613  0.00  0.00    +0.000 A 
ATOM      7  C   UNL     1      45.622   3.297  12.824  0.00  0.00    +0.000 A 
ATOM      8  C   UNL     1      44.610   3.730  11.960  0.00  0.00    +0.000 A 
BRANCH   8   9
ATOM      9  C   UNL     1      43.925   2.715  11.114  0.00  0.00    +0.000 C 
ATOM     10  N   UNL     1      44.545   2.357   9.949  0.00  0.00    +0.000 N 
ATOM     11  O   UNL     1      42.855   2.211  11.433  0.00  0.00    +0.000 OA
ATOM     12  H   UNL     1      45.479   2.640   9.693  0.00  0.00    +0.000 HD
ATOM     13  H   UNL     1      44.104   1.633   9.393  0.00  0.00    +0.000 HD
ENDBRANCH   8   9
BRANCH   3  14
ATOM     14  C   UNL     1      43.221   5.671  11.013  0.00  0.00    +0.000 C 
BRANCH  14  15
ATOM     15  N   UNL     1      42.077   6.127  11.792  0.00  0.00    +0.000 NA
ATOM     16  H   UNL     1      42.378   6.270  12.758  0.00  0.00    +0.000 HD
ATOM     17  H   UNL     1      41.416   5.347  11.846  0.00  0.00    +0.000 HD
ENDBRANCH  14  15
ENDBRANCH   3  14
ENDBRANCH   1   6
BRANCH   1  18
ATOM     18  C   UNL     1      47.010   4.116  15.943  0.00  0.00    +0.000 C 
BRANCH  18  19
ATOM     19  C   UNL     1      48.073   3.485  16.846  0.00  0.00    +0.000 C 
BRANCH  19  20
ATOM     20  C   UNL     1      48.783   4.536  17.667  0.00  0.00    +0.000 A 
ATOM     21  C   UNL     1      50.171   4.523  17.793  0.00  0.00    +0.000 A 
ATOM     22  C   UNL     1      50.769   5.503  18.562  0.00  0.00    +0.000 A 
ATOM     23  N   UNL     1      50.085   6.468  19.211  0.00  0.00    +0.000 NA
ATOM     24  C   UNL     1      48.741   6.522  19.068  0.00  0.00    +0.000 A 
ATOM     25  C   UNL     1      48.069   5.567  18.295  0.00  0.00    +0.000 A 
BRANCH  24  26
ATOM     26  C   UNL     1      48.034   7.593  19.819  0.00  0.00    +0.000 A 
ATOM     27  C   UNL     1      47.744   7.402  21.192  0.00  0.00    +0.000 A 
ATOM     28  C   UNL     1      47.101   8.376  21.964  0.00  0.00    +0.000 A 
ATOM     29  C   UNL     1      46.741   9.588  21.394  0.00  0.00    +0.000 A 
ATOM     30  C   UNL     1      47.011   9.814  20.048  0.00  0.00    +0.000 A 
ATOM     31  C   UNL     1      47.639   8.831  19.263  0.00  0.00    +0.000 A 
ATOM     32 CL   UNL     1      47.823   9.238  17.586  0.00  0.00    +0.000 Cl
ENDBRANCH  24  26
ENDBRANCH  19  20
ENDBRANCH  18  19
ENDBRANCH   1  18
TORSDOF 8
ENDMDL
