MODEL 1
REMARK VINA RESULT:    -8.646      0.000      0.000
REMARK INTER + INTRA:         -12.076
REMARK INTER:                 -11.173
REMARK INTRA:                  -0.903
REMARK UNBOUND:                -0.903
REMARK  Name = 
REMARK  5 active torsions:
REMARK  status: ('A' for Active; 'I' for Inactive)
REMARK    1  A    between atoms: C_2  and  C_18
REMARK    2  A    between atoms: N_3  and  C_4
REMARK    3  A    between atoms: C_4  and  C_5
REMARK    4  A    between atoms: C_8  and  C_9
REMARK    5  A    between atoms: C_9  and  C_10
REMARK                            x       y       z     vdW  Elec       q    Type
REMARK                         _______ _______ _______ _____ _____    ______ ____
ROOT
ATOM      1  O   UNL     1      48.478   7.423  12.768  0.00  0.00    +0.000 OA
ATOM      2  C   UNL     1      47.792   6.981  13.686  0.00  0.00    +0.000 C 
ATOM      3  N   UNL     1      46.426   6.905  13.615  0.00  0.00    +0.000 N 
ATOM      4  H   UNL     1      45.894   6.672  14.446  0.00  0.00    +0.000 HD
ENDROOT
BRANCH   2   5
ATOM      5  C   UNL     1      48.405   6.464  14.914  0.00  0.00    +0.000 A 
ATOM      6  C   UNL     1      49.447   7.157  15.517  0.00  0.00    +0.000 A 
ATOM      7  S   UNL     1      50.002   6.435  16.959  0.00  0.00    +0.000 S 
ATOM      8  C   UNL     1      48.850   5.188  16.842  0.00  0.00    +0.000 A 
ATOM      9  N   UNL     1      48.748   4.235  17.809  0.00  0.00    +0.000 NA
ATOM     10  C   UNL     1      47.803   3.378  17.612  0.00  0.00    +0.000 A 
ATOM     11  N   UNL     1      46.965   3.371  16.529  0.00  0.00    +0.000 N 
ATOM     12  C   UNL     1      47.097   4.253  15.482  0.00  0.00    +0.000 A 
ATOM     13  O   UNL     1      46.450   4.108  14.452  0.00  0.00    +0.000 OA
ATOM     14  C   UNL     1      48.088   5.290  15.694  0.00  0.00    +0.000 A 
ATOM     15  H   UNL     1      46.279   2.642  16.409  0.00  0.00    +0.000 HD
ENDBRANCH   2   5
BRANCH   3  16
ATOM     16  C   UNL     1      45.672   7.415  12.501  0.00  0.00    +0.000 C 
BRANCH  16  17
ATOM     17  C   UNL     1      45.404   6.354  11.464  0.00  0.00    +0.000 A 
ATOM     18  C   UNL     1      44.339   5.460  11.630  0.00  0.00    +0.000 A 
ATOM     19  C   UNL     1      44.048   4.507  10.651  0.00  0.00    +0.000 A 
ATOM     20  C   UNL     1      44.823   4.421   9.486  0.00  0.00    +0.000 A 
ATOM     21  C   UNL     1      45.905   5.299   9.331  0.00  0.00    +0.000 A 
ATOM     22  C   UNL     1      46.200   6.247  10.317  0.00  0.00    +0.000 A 
BRANCH  20  23
ATOM     23  C   UNL     1      44.476   3.427   8.399  0.00  0.00    +0.000 C 
BRANCH  23  24
ATOM     24  C   UNL     1      45.686   2.762   7.789  0.00  0.00    +0.000 A 
ATOM     25  C   UNL     1      46.379   3.362   6.733  0.00  0.00    +0.000 A 
ATOM     26  C   UNL     1      47.441   2.679   6.158  0.00  0.00    +0.000 A 
ATOM     27  N   UNL     1      47.862   1.462   6.563  0.00  0.00    +0.000 NA
ATOM     28  C   UNL     1      47.188   0.904   7.591  0.00  0.00    +0.000 A 
ATOM     29  C   UNL     1      46.112   1.504   8.228  0.00  0.00    +0.000 A 
ENDBRANCH  23  24
ENDBRANCH  20  23
ENDBRANCH  16  17
ENDBRANCH   3  16
TORSDOF 5
ENDMDL
MODEL 2
REMARK VINA RESULT:    -8.313      1.905      3.310
REMARK INTER + INTRA:         -11.646
REMARK INTER:                 -10.774
REMARK INTRA:                  -0.871
REMARK UNBOUND:                -0.903
REMARK  Name = 
REMARK  5 active torsions:
REMARK  status: ('A' for Active; 'I' for Inactive)
REMARK    1  A    between atoms: C_2  and  C_18
REMARK    2  A    between atoms: N_3  and  C_4
REMARK    3  A    between atoms: C_4  and  C_5
REMARK    4  A    between atoms: C_8  and  C_9
REMARK    5  A    between atoms: C_9  and  C_10
REMARK                            x       y       z     vdW  Elec       q    Type
REMARK                         _______ _______ _______ _____ _____    ______ ____
ROOT
ATOM      1  O   UNL     1      47.411   4.457  14.059  0.00  0.00    +0.000 OA
ATOM      2  C   UNL     1      47.340   5.677  13.939  0.00  0.00    +0.000 C 
ATOM      3  N   UNL     1      46.175   6.320  13.612  0.00  0.00    +0.000 N 
ATOM      4  H   UNL     1      46.195   7.307  13.381  0.00  0.00    +0.000 HD
ENDROOT
BRANCH   2   5
ATOM      5  C   UNL     1      48.504   6.536  14.184  0.00  0.00    +0.000 A 
ATOM      6  C   UNL     1      49.052   6.618  15.456  0.00  0.00    +0.000 A 
ATOM      7  S   UNL     1      50.427   7.624  15.543  0.00  0.00    +0.000 S 
ATOM      8  C   UNL     1      50.353   7.959  13.876  0.00  0.00    +0.000 A 
ATOM      9  N   UNL     1      51.295   8.739  13.276  0.00  0.00    +0.000 NA
ATOM     10  C   UNL     1      51.139   8.872  12.002  0.00  0.00    +0.000 A 
ATOM     11  N   UNL     1      50.119   8.318  11.275  0.00  0.00    +0.000 N 
ATOM     12  C   UNL     1      49.094   7.609  11.855  0.00  0.00    +0.000 A 
ATOM     13  O   UNL     1      48.108   7.281  11.205  0.00  0.00    +0.000 OA
ATOM     14  C   UNL     1      49.267   7.357  13.272  0.00  0.00    +0.000 A 
ATOM     15  H   UNL     1      50.026   8.504  10.288  0.00  0.00    +0.000 HD
ENDBRANCH   2   5
BRANCH   3  16
ATOM     16  C   UNL     1      44.959   5.619  13.292  0.00  0.00    +0.000 C 
BRANCH  16  17
ATOM     17  C   UNL     1      44.960   5.101  11.876  0.00  0.00    +0.000 A 
ATOM     18  C   UNL     1      44.333   3.887  11.571  0.00  0.00    +0.000 A 
ATOM     19  C   UNL     1      44.280   3.423  10.253  0.00  0.00    +0.000 A 
ATOM     20  C   UNL     1      44.862   4.160   9.213  0.00  0.00    +0.000 A 
ATOM     21  C   UNL     1      45.512   5.363   9.522  0.00  0.00    +0.000 A 
ATOM     22  C   UNL     1      45.571   5.822  10.843  0.00  0.00    +0.000 A 
BRANCH  20  23
ATOM     23  C   UNL     1      44.757   3.687   7.780  0.00  0.00    +0.000 C 
BRANCH  23  24
ATOM     24  C   UNL     1      45.950   2.878   7.329  0.00  0.00    +0.000 A 
ATOM     25  C   UNL     1      46.728   3.290   6.242  0.00  0.00    +0.000 A 
ATOM     26  C   UNL     1      47.770   2.477   5.820  0.00  0.00    +0.000 A 
ATOM     27  N   UNL     1      48.093   1.304   6.404  0.00  0.00    +0.000 NA
ATOM     28  C   UNL     1      47.338   0.928   7.458  0.00  0.00    +0.000 A 
ATOM     29  C   UNL     1      46.275   1.669   7.952  0.00  0.00    +0.000 A 
ENDBRANCH  23  24
ENDBRANCH  20  23
ENDBRANCH  16  17
ENDBRANCH   3  16
TORSDOF 5
ENDMDL
MODEL 3
REMARK VINA RESULT:    -8.296      1.755      2.392
REMARK INTER + INTRA:         -11.624
REMARK INTER:                 -10.784
REMARK INTRA:                  -0.840
REMARK UNBOUND:                -0.903
REMARK  Name = 
REMARK  5 active torsions:
REMARK  status: ('A' for Active; 'I' for Inactive)
REMARK    1  A    between atoms: C_2  and  C_18
REMARK    2  A    between atoms: N_3  and  C_4
REMARK    3  A    between atoms: C_4  and  C_5
REMARK    4  A    between atoms: C_8  and  C_9
REMARK    5  A    between atoms: C_9  and  C_10
REMARK                            x       y       z     vdW  Elec       q    Type
REMARK                         _______ _______ _______ _____ _____    ______ ____
ROOT
ATOM      1  O   UNL     1      47.315   4.058  14.335  0.00  0.00    +0.000 OA
ATOM      2  C   UNL     1      47.187   5.261  14.130  0.00  0.00    +0.000 C 
ATOM      3  N   UNL     1      46.019   5.811  13.666  0.00  0.00    +0.000 N 
ATOM      4  H   UNL     1      46.004   6.781  13.374  0.00  0.00    +0.000 HD
ENDROOT
BRANCH   2   5
ATOM      5  C   UNL     1      48.276   6.203  14.412  0.00  0.00    +0.000 A 
ATOM      6  C   UNL     1      48.838   6.945  13.381  0.00  0.00    +0.000 A 
ATOM      7  S   UNL     1      50.055   8.021  13.900  0.00  0.00    +0.000 S 
ATOM      8  C   UNL     1      49.852   7.552  15.524  0.00  0.00    +0.000 A 
ATOM      9  N   UNL     1      50.571   8.142  16.519  0.00  0.00    +0.000 NA
ATOM     10  C   UNL     1      50.283   7.720  17.703  0.00  0.00    +0.000 A 
ATOM     11  N   UNL     1      49.359   6.749  17.986  0.00  0.00    +0.000 N 
ATOM     12  C   UNL     1      48.684   6.059  17.007  0.00  0.00    +0.000 A 
ATOM     13  O   UNL     1      48.002   5.079  17.283  0.00  0.00    +0.000 OA
ATOM     14  C   UNL     1      48.908   6.553  15.662  0.00  0.00    +0.000 A 
ATOM     15  H   UNL     1      49.217   6.427  18.931  0.00  0.00    +0.000 HD
ENDBRANCH   2   5
BRANCH   3  16
ATOM     16  C   UNL     1      44.877   5.018  13.295  0.00  0.00    +0.000 C 
BRANCH  16  17
ATOM     17  C   UNL     1      44.907   4.628  11.839  0.00  0.00    +0.000 A 
ATOM     18  C   UNL     1      44.302   3.439  11.416  0.00  0.00    +0.000 A 
ATOM     19  C   UNL     1      44.276   3.094  10.062  0.00  0.00    +0.000 A 
ATOM     20  C   UNL     1      44.865   3.927   9.101  0.00  0.00    +0.000 A 
ATOM     21  C   UNL     1      45.493   5.105   9.528  0.00  0.00    +0.000 A 
ATOM     22  C   UNL     1      45.526   5.445  10.884  0.00  0.00    +0.000 A 
BRANCH  20  23
ATOM     23  C   UNL     1      44.789   3.583   7.630  0.00  0.00    +0.000 C 
BRANCH  23  24
ATOM     24  C   UNL     1      46.023   2.879   7.117  0.00  0.00    +0.000 A 
ATOM     25  C   UNL     1      46.650   3.297   5.939  0.00  0.00    +0.000 A 
ATOM     26  C   UNL     1      47.738   2.575   5.469  0.00  0.00    +0.000 A 
ATOM     27  N   UNL     1      48.244   1.489   6.089  0.00  0.00    +0.000 NA
ATOM     28  C   UNL     1      47.633   1.107   7.230  0.00  0.00    +0.000 A 
ATOM     29  C   UNL     1      46.538   1.760   7.777  0.00  0.00    +0.000 A 
ENDBRANCH  23  24
ENDBRANCH  20  23
ENDBRANCH  16  17
ENDBRANCH   3  16
TORSDOF 5
ENDMDL
MODEL 4
REMARK VINA RESULT:    -7.710      2.611      3.914
REMARK INTER + INTRA:         -10.866
REMARK INTER:                  -9.888
REMARK INTRA:                  -0.978
REMARK UNBOUND:                -0.903
REMARK  Name = 
REMARK  5 active torsions:
REMARK  status: ('A' for Active; 'I' for Inactive)
REMARK    1  A    between atoms: C_2  and  C_18
REMARK    2  A    between atoms: N_3  and  C_4
REMARK    3  A    between atoms: C_4  and  C_5
REMARK    4  A    between atoms: C_8  and  C_9
REMARK    5  A    between atoms: C_9  and  C_10
REMARK                            x       y       z     vdW  Elec       q    Type
REMARK                         _______ _______ _______ _____ _____    ______ ____
ROOT
ATOM      1  O   UNL     1      48.432   5.920  13.978  0.00  0.00    +0.000 OA
ATOM      2  C   UNL     1      47.919   6.923  13.489  0.00  0.00    +0.000 C 
ATOM      3  N   UNL     1      46.584   6.997  13.187  0.00  0.00    +0.000 N 
ATOM      4  H   UNL     1      46.235   7.784  12.653  0.00  0.00    +0.000 HD
ENDROOT
BRANCH   2   5
ATOM      5  C   UNL     1      48.706   8.134  13.233  0.00  0.00    +0.000 A 
ATOM      6  C   UNL     1      49.353   8.299  12.016  0.00  0.00    +0.000 A 
ATOM      7  S   UNL     1      50.179   9.785  11.877  0.00  0.00    +0.000 S 
ATOM      8  C   UNL     1      49.676  10.270  13.429  0.00  0.00    +0.000 A 
ATOM      9  N   UNL     1      50.003  11.498  13.920  0.00  0.00    +0.000 NA
ATOM     10  C   UNL     1      49.518  11.747  15.089  0.00  0.00    +0.000 A 
ATOM     11  N   UNL     1      48.755  10.879  15.824  0.00  0.00    +0.000 N 
ATOM     12  C   UNL     1      48.484   9.596  15.409  0.00  0.00    +0.000 A 
ATOM     13  O   UNL     1      47.954   8.790  16.164  0.00  0.00    +0.000 OA
ATOM     14  C   UNL     1      48.933   9.293  14.065  0.00  0.00    +0.000 A 
ATOM     15  H   UNL     1      48.449  11.117  16.755  0.00  0.00    +0.000 HD
ENDBRANCH   2   5
BRANCH   3  16
ATOM     16  C   UNL     1      45.688   5.880  13.331  0.00  0.00    +0.000 C 
BRANCH  16  17
ATOM     17  C   UNL     1      45.343   5.255  12.003  0.00  0.00    +0.000 A 
ATOM     18  C   UNL     1      45.775   5.851  10.811  0.00  0.00    +0.000 A 
ATOM     19  C   UNL     1      45.508   5.253   9.577  0.00  0.00    +0.000 A 
ATOM     20  C   UNL     1      44.793   4.049   9.507  0.00  0.00    +0.000 A 
ATOM     21  C   UNL     1      44.338   3.467  10.697  0.00  0.00    +0.000 A 
ATOM     22  C   UNL     1      44.599   4.071  11.932  0.00  0.00    +0.000 A 
BRANCH  20  23
ATOM     23  C   UNL     1      44.551   3.372   8.175  0.00  0.00    +0.000 C 
BRANCH  23  24
ATOM     24  C   UNL     1      45.786   2.713   7.608  0.00  0.00    +0.000 A 
ATOM     25  C   UNL     1      46.508   3.314   6.571  0.00  0.00    +0.000 A 
ATOM     26  C   UNL     1      47.592   2.637   6.033  0.00  0.00    +0.000 A 
ATOM     27  N   UNL     1      48.009   1.426   6.457  0.00  0.00    +0.000 NA
ATOM     28  C   UNL     1      47.307   0.866   7.465  0.00  0.00    +0.000 A 
ATOM     29  C   UNL     1      46.207   1.461   8.065  0.00  0.00    +0.000 A 
ENDBRANCH  23  24
ENDBRANCH  20  23
ENDBRANCH  16  17
ENDBRANCH   3  16
TORSDOF 5
ENDMDL
MODEL 5
REMARK VINA RESULT:    -7.598      1.277      2.123
REMARK INTER + INTRA:         -10.721
REMARK INTER:                  -9.769
REMARK INTRA:                  -0.952
REMARK UNBOUND:                -0.903
REMARK  Name = 
REMARK  5 active torsions:
REMARK  status: ('A' for Active; 'I' for Inactive)
REMARK    1  A    between atoms: C_2  and  C_18
REMARK    2  A    between atoms: N_3  and  C_4
REMARK    3  A    between atoms: C_4  and  C_5
REMARK    4  A    between atoms: C_8  and  C_9
REMARK    5  A    between atoms: C_9  and  C_10
REMARK                            x       y       z     vdW  Elec       q    Type
REMARK                         _______ _______ _______ _____ _____    ______ ____
ROOT
ATOM      1  O   UNL     1      49.795   6.957  14.105  0.00  0.00    +0.000 OA
ATOM      2  C   UNL     1      48.951   6.932  14.997  0.00  0.00    +0.000 C 
ATOM      3  N   UNL     1      47.699   7.466  14.844  0.00  0.00    +0.000 N 
ATOM      4  H   UNL     1      47.089   7.552  15.649  0.00  0.00    +0.000 HD
ENDROOT
BRANCH   2   5
ATOM      5  C   UNL     1      49.223   6.282  16.284  0.00  0.00    +0.000 A 
ATOM      6  C   UNL     1      50.093   6.872  17.191  0.00  0.00    +0.000 A 
ATOM      7  S   UNL     1      50.251   6.003  18.650  0.00  0.00    +0.000 S 
ATOM      8  C   UNL     1      49.139   4.824  18.130  0.00  0.00    +0.000 A 
ATOM      9  N   UNL     1      48.775   3.795  18.945  0.00  0.00    +0.000 NA
ATOM     10  C   UNL     1      47.893   3.003  18.438  0.00  0.00    +0.000 A 
ATOM     11  N   UNL     1      47.355   3.128  17.184  0.00  0.00    +0.000 N 
ATOM     12  C   UNL     1      47.766   4.091  16.293  0.00  0.00    +0.000 A 
ATOM     13  O   UNL     1      47.398   4.066  15.125  0.00  0.00    +0.000 OA
ATOM     14  C   UNL     1      48.694   5.060  16.843  0.00  0.00    +0.000 A 
ATOM     15  H   UNL     1      46.706   2.444  16.828  0.00  0.00    +0.000 HD
ENDBRANCH   2   5
BRANCH   3  16
ATOM     16  C   UNL     1      47.294   8.181  13.662  0.00  0.00    +0.000 C 
BRANCH  16  17
ATOM     17  C   UNL     1      46.460   7.326  12.741  0.00  0.00    +0.000 A 
ATOM     18  C   UNL     1      46.779   5.975  12.554  0.00  0.00    +0.000 A 
ATOM     19  C   UNL     1      45.983   5.160  11.745  0.00  0.00    +0.000 A 
ATOM     20  C   UNL     1      44.854   5.681  11.098  0.00  0.00    +0.000 A 
ATOM     21  C   UNL     1      44.549   7.039  11.265  0.00  0.00    +0.000 A 
ATOM     22  C   UNL     1      45.352   7.856  12.068  0.00  0.00    +0.000 A 
BRANCH  20  23
ATOM     23  C   UNL     1      43.959   4.787  10.267  0.00  0.00    +0.000 C 
BRANCH  23  24
ATOM     24  C   UNL     1      44.724   3.878   9.335  0.00  0.00    +0.000 A 
ATOM     25  C   UNL     1      44.720   2.491   9.521  0.00  0.00    +0.000 A 
ATOM     26  C   UNL     1      45.496   1.703   8.683  0.00  0.00    +0.000 A 
ATOM     27  N   UNL     1      46.256   2.192   7.680  0.00  0.00    +0.000 NA
ATOM     28  C   UNL     1      46.239   3.531   7.509  0.00  0.00    +0.000 A 
ATOM     29  C   UNL     1      45.500   4.402   8.296  0.00  0.00    +0.000 A 
ENDBRANCH  23  24
ENDBRANCH  20  23
ENDBRANCH  16  17
ENDBRANCH   3  16
TORSDOF 5
ENDMDL
MODEL 6
REMARK VINA RESULT:    -7.217      2.865      3.865
REMARK INTER + INTRA:         -10.230
REMARK INTER:                  -9.214
REMARK INTRA:                  -1.015
REMARK UNBOUND:                -0.903
REMARK  Name = 
REMARK  5 active torsions:
REMARK  status: ('A' for Active; 'I' for Inactive)
REMARK    1  A    between atoms: C_2  and  C_18
REMARK    2  A    between atoms: N_3  and  C_4
REMARK    3  A    between atoms: C_4  and  C_5
REMARK    4  A    between atoms: C_8  and  C_9
REMARK    5  A    between atoms: C_9  and  C_10
REMARK                            x       y       z     vdW  Elec       q    Type
REMARK                         _______ _______ _______ _____ _____    ______ ____
ROOT
ATOM      1  O   UNL     1      50.113   5.796  16.159  0.00  0.00    +0.000 OA
ATOM      2  C   UNL     1      49.051   6.342  16.444  0.00  0.00    +0.000 C 
ATOM      3  N   UNL     1      48.217   6.874  15.495  0.00  0.00    +0.000 N 
ATOM      4  H   UNL     1      47.427   7.440  15.784  0.00  0.00    +0.000 HD
ENDROOT
BRANCH   2   5
ATOM      5  C   UNL     1      48.583   6.421  17.832  0.00  0.00    +0.000 A 
ATOM      6  C   UNL     1      48.625   5.297  18.645  0.00  0.00    +0.000 A 
ATOM      7  S   UNL     1      48.088   5.586  20.238  0.00  0.00    +0.000 S 
ATOM      8  C   UNL     1      47.809   7.231  19.902  0.00  0.00    +0.000 A 
ATOM      9  N   UNL     1      47.379   8.082  20.875  0.00  0.00    +0.000 NA
ATOM     10  C   UNL     1      47.252   9.307  20.490  0.00  0.00    +0.000 A 
ATOM     11  N   UNL     1      47.493   9.758  19.220  0.00  0.00    +0.000 N 
ATOM     12  C   UNL     1      47.831   8.917  18.185  0.00  0.00    +0.000 A 
ATOM     13  O   UNL     1      47.863   9.323  17.029  0.00  0.00    +0.000 OA
ATOM     14  C   UNL     1      48.070   7.544  18.582  0.00  0.00    +0.000 A 
ATOM     15  H   UNL     1      47.325  10.720  18.971  0.00  0.00    +0.000 HD
ENDBRANCH   2   5
BRANCH   3  16
ATOM     16  C   UNL     1      48.554   6.921  14.097  0.00  0.00    +0.000 C 
BRANCH  16  17
ATOM     17  C   UNL     1      47.442   6.390  13.228  0.00  0.00    +0.000 A 
ATOM     18  C   UNL     1      47.023   7.110  12.103  0.00  0.00    +0.000 A 
ATOM     19  C   UNL     1      46.031   6.602  11.260  0.00  0.00    +0.000 A 
ATOM     20  C   UNL     1      45.429   5.366  11.530  0.00  0.00    +0.000 A 
ATOM     21  C   UNL     1      45.830   4.657  12.670  0.00  0.00    +0.000 A 
ATOM     22  C   UNL     1      46.817   5.170  13.518  0.00  0.00    +0.000 A 
BRANCH  20  23
ATOM     23  C   UNL     1      44.394   4.789  10.588  0.00  0.00    +0.000 C 
BRANCH  23  24
ATOM     24  C   UNL     1      44.986   3.885   9.533  0.00  0.00    +0.000 A 
ATOM     25  C   UNL     1      44.922   2.493   9.662  0.00  0.00    +0.000 A 
ATOM     26  C   UNL     1      45.543   1.705   8.705  0.00  0.00    +0.000 A 
ATOM     27  N   UNL     1      46.204   2.198   7.636  0.00  0.00    +0.000 NA
ATOM     28  C   UNL     1      46.246   3.543   7.523  0.00  0.00    +0.000 A 
ATOM     29  C   UNL     1      45.660   4.414   8.429  0.00  0.00    +0.000 A 
ENDBRANCH  23  24
ENDBRANCH  20  23
ENDBRANCH  16  17
ENDBRANCH   3  16
TORSDOF 5
ENDMDL
MODEL 7
REMARK VINA RESULT:    -7.101      4.263      9.831
REMARK INTER + INTRA:         -10.079
REMARK INTER:                  -8.942
REMARK INTRA:                  -1.137
REMARK UNBOUND:                -0.903
REMARK  Name = 
REMARK  5 active torsions:
REMARK  status: ('A' for Active; 'I' for Inactive)
REMARK    1  A    between atoms: C_2  and  C_18
REMARK    2  A    between atoms: N_3  and  C_4
REMARK    3  A    between atoms: C_4  and  C_5
REMARK    4  A    between atoms: C_8  and  C_9
REMARK    5  A    between atoms: C_9  and  C_10
REMARK                            x       y       z     vdW  Elec       q    Type
REMARK                         _______ _______ _______ _____ _____    ______ ____
ROOT
ATOM      1  O   UNL     1      48.505   5.925  13.947  0.00  0.00    +0.000 OA
ATOM      2  C   UNL     1      47.355   5.543  14.142  0.00  0.00    +0.000 C 
ATOM      3  N   UNL     1      46.985   4.860  15.272  0.00  0.00    +0.000 N 
ATOM      4  H   UNL     1      46.065   4.439  15.323  0.00  0.00    +0.000 HD
ENDROOT
BRANCH   2   5
ATOM      5  C   UNL     1      46.282   5.835  13.185  0.00  0.00    +0.000 A 
ATOM      6  C   UNL     1      45.954   7.151  12.889  0.00  0.00    +0.000 A 
ATOM      7  S   UNL     1      44.719   7.301  11.722  0.00  0.00    +0.000 S 
ATOM      8  C   UNL     1      44.602   5.612  11.552  0.00  0.00    +0.000 A 
ATOM      9  N   UNL     1      43.745   5.056  10.650  0.00  0.00    +0.000 NA
ATOM     10  C   UNL     1      43.793   3.767  10.599  0.00  0.00    +0.000 A 
ATOM     11  N   UNL     1      44.599   2.981  11.377  0.00  0.00    +0.000 N 
ATOM     12  C   UNL     1      45.405   3.494  12.367  0.00  0.00    +0.000 A 
ATOM     13  O   UNL     1      45.975   2.755  13.161  0.00  0.00    +0.000 OA
ATOM     14  C   UNL     1      45.453   4.942  12.410  0.00  0.00    +0.000 A 
ATOM     15  H   UNL     1      44.551   1.975  11.323  0.00  0.00    +0.000 HD
ENDBRANCH   2   5
BRANCH   3  16
ATOM     16  C   UNL     1      47.927   4.452  16.281  0.00  0.00    +0.000 C 
BRANCH  16  17
ATOM     17  C   UNL     1      48.032   5.460  17.397  0.00  0.00    +0.000 A 
ATOM     18  C   UNL     1      47.188   5.368  18.510  0.00  0.00    +0.000 A 
ATOM     19  C   UNL     1      47.312   6.263  19.576  0.00  0.00    +0.000 A 
ATOM     20  C   UNL     1      48.278   7.278  19.547  0.00  0.00    +0.000 A 
ATOM     21  C   UNL     1      49.106   7.386  18.421  0.00  0.00    +0.000 A 
ATOM     22  C   UNL     1      48.976   6.494  17.352  0.00  0.00    +0.000 A 
BRANCH  20  23
ATOM     23  C   UNL     1      48.451   8.214  20.724  0.00  0.00    +0.000 C 
BRANCH  23  24
ATOM     24  C   UNL     1      47.287   9.158  20.911  0.00  0.00    +0.000 A 
ATOM     25  C   UNL     1      46.869   9.995  19.871  0.00  0.00    +0.000 A 
ATOM     26  C   UNL     1      45.843  10.897  20.113  0.00  0.00    +0.000 A 
ATOM     27  N   UNL     1      45.206  11.014  21.297  0.00  0.00    +0.000 NA
ATOM     28  C   UNL     1      45.617  10.190  22.285  0.00  0.00    +0.000 A 
ATOM     29  C   UNL     1      46.635   9.260  22.143  0.00  0.00    +0.000 A 
ENDBRANCH  23  24
ENDBRANCH  20  23
ENDBRANCH  16  17
ENDBRANCH   3  16
TORSDOF 5
ENDMDL
MODEL 8
REMARK VINA RESULT:    -6.984      3.309      7.945
REMARK INTER + INTRA:          -9.928
REMARK INTER:                  -8.985
REMARK INTRA:                  -0.944
REMARK UNBOUND:                -0.903
REMARK  Name = 
REMARK  5 active torsions:
REMARK  status: ('A' for Active; 'I' for Inactive)
REMARK    1  A    between atoms: C_2  and  C_18
REMARK    2  A    between atoms: N_3  and  C_4
REMARK    3  A    between atoms: C_4  and  C_5
REMARK    4  A    between atoms: C_8  and  C_9
REMARK    5  A    between atoms: C_9  and  C_10
REMARK                            x       y       z     vdW  Elec       q    Type
REMARK                         _______ _______ _______ _____ _____    ______ ____
ROOT
ATOM      1  O   UNL     1      45.790   7.867  11.795  0.00  0.00    +0.000 OA
ATOM      2  C   UNL     1      46.328   6.772  11.651  0.00  0.00    +0.000 C 
ATOM      3  N   UNL     1      47.546   6.471  12.202  0.00  0.00    +0.000 N 
ATOM      4  H   UNL     1      48.016   5.613  11.937  0.00  0.00    +0.000 HD
ENDROOT
BRANCH   2   5
ATOM      5  C   UNL     1      45.671   5.692  10.906  0.00  0.00    +0.000 A 
ATOM      6  C   UNL     1      45.875   5.567   9.538  0.00  0.00    +0.000 A 
ATOM      7  S   UNL     1      45.074   4.229   8.848  0.00  0.00    +0.000 S 
ATOM      8  C   UNL     1      44.450   3.756  10.359  0.00  0.00    +0.000 A 
ATOM      9  N   UNL     1      43.698   2.627  10.485  0.00  0.00    +0.000 NA
ATOM     10  C   UNL     1      43.330   2.367  11.694  0.00  0.00    +0.000 A 
ATOM     11  N   UNL     1      43.623   3.139  12.786  0.00  0.00    +0.000 N 
ATOM     12  C   UNL     1      44.292   4.337  12.690  0.00  0.00    +0.000 A 
ATOM     13  O   UNL     1      44.381   5.087  13.655  0.00  0.00    +0.000 OA
ATOM     14  C   UNL     1      44.804   4.633  11.366  0.00  0.00    +0.000 A 
ATOM     15  H   UNL     1      43.260   2.907  13.698  0.00  0.00    +0.000 HD
ENDBRANCH   2   5
BRANCH   3  16
ATOM     16  C   UNL     1      48.340   7.435  12.917  0.00  0.00    +0.000 C 
BRANCH  16  17
ATOM     17  C   UNL     1      48.773   6.922  14.267  0.00  0.00    +0.000 A 
ATOM     18  C   UNL     1      47.960   6.027  14.974  0.00  0.00    +0.000 A 
ATOM     19  C   UNL     1      48.376   5.503  16.201  0.00  0.00    +0.000 A 
ATOM     20  C   UNL     1      49.611   5.870  16.753  0.00  0.00    +0.000 A 
ATOM     21  C   UNL     1      50.413   6.785  16.057  0.00  0.00    +0.000 A 
ATOM     22  C   UNL     1      49.992   7.316  14.833  0.00  0.00    +0.000 A 
BRANCH  20  23
ATOM     23  C   UNL     1      50.086   5.261  18.054  0.00  0.00    +0.000 C 
BRANCH  23  24
ATOM     24  C   UNL     1      50.866   3.981  17.864  0.00  0.00    +0.000 A 
ATOM     25  C   UNL     1      50.241   2.825  17.384  0.00  0.00    +0.000 A 
ATOM     26  C   UNL     1      50.981   1.655  17.295  0.00  0.00    +0.000 A 
ATOM     27  N   UNL     1      52.284   1.560  17.635  0.00  0.00    +0.000 NA
ATOM     28  C   UNL     1      52.872   2.689  18.085  0.00  0.00    +0.000 A 
ATOM     29  C   UNL     1      52.217   3.905  18.214  0.00  0.00    +0.000 A 
ENDBRANCH  23  24
ENDBRANCH  20  23
ENDBRANCH  16  17
ENDBRANCH   3  16
TORSDOF 5
ENDMDL
MODEL 9
REMARK VINA RESULT:    -6.970      2.781      4.080
REMARK INTER + INTRA:          -9.910
REMARK INTER:                  -9.074
REMARK INTRA:                  -0.836
REMARK UNBOUND:                -0.903
REMARK  Name = 
REMARK  5 active torsions:
REMARK  status: ('A' for Active; 'I' for Inactive)
REMARK    1  A    between atoms: C_2  and  C_18
REMARK    2  A    between atoms: N_3  and  C_4
REMARK    3  A    between atoms: C_4  and  C_5
REMARK    4  A    between atoms: C_8  and  C_9
REMARK    5  A    between atoms: C_9  and  C_10
REMARK                            x       y       z     vdW  Elec       q    Type
REMARK                         _______ _______ _______ _____ _____    ______ ____
ROOT
ATOM      1  O   UNL     1      49.443   5.920  15.891  0.00  0.00    +0.000 OA
ATOM      2  C   UNL     1      49.033   6.692  15.030  0.00  0.00    +0.000 C 
ATOM      3  N   UNL     1      47.903   6.446  14.294  0.00  0.00    +0.000 N 
ATOM      4  H   UNL     1      47.686   7.035  13.499  0.00  0.00    +0.000 HD
ENDROOT
BRANCH   2   5
ATOM      5  C   UNL     1      49.715   7.963  14.760  0.00  0.00    +0.000 A 
ATOM      6  C   UNL     1      50.736   8.019  13.822  0.00  0.00    +0.000 A 
ATOM      7  S   UNL     1      51.378   9.584  13.604  0.00  0.00    +0.000 S 
ATOM      8  C   UNL     1      50.292  10.245  14.736  0.00  0.00    +0.000 A 
ATOM      9  N   UNL     1      50.275  11.583  14.992  0.00  0.00    +0.000 NA
ATOM     10  C   UNL     1      49.372  11.949  15.839  0.00  0.00    +0.000 A 
ATOM     11  N   UNL     1      48.500  11.102  16.469  0.00  0.00    +0.000 N 
ATOM     12  C   UNL     1      48.549   9.736  16.315  0.00  0.00    +0.000 A 
ATOM     13  O   UNL     1      47.876   8.998  17.026  0.00  0.00    +0.000 OA
ATOM     14  C   UNL     1      49.488   9.280  15.310  0.00  0.00    +0.000 A 
ATOM     15  H   UNL     1      47.851  11.446  17.160  0.00  0.00    +0.000 HD
ENDBRANCH   2   5
BRANCH   3  16
ATOM     16  C   UNL     1      47.152   5.223  14.403  0.00  0.00    +0.000 C 
BRANCH  16  17
ATOM     17  C   UNL     1      46.412   4.898  13.131  0.00  0.00    +0.000 A 
ATOM     18  C   UNL     1      46.338   5.841  12.098  0.00  0.00    +0.000 A 
ATOM     19  C   UNL     1      45.702   5.531  10.893  0.00  0.00    +0.000 A 
ATOM     20  C   UNL     1      45.117   4.273  10.698  0.00  0.00    +0.000 A 
ATOM     21  C   UNL     1      45.168   3.338  11.741  0.00  0.00    +0.000 A 
ATOM     22  C   UNL     1      45.798   3.652  12.950  0.00  0.00    +0.000 A 
BRANCH  20  23
ATOM     23  C   UNL     1      44.476   3.917   9.374  0.00  0.00    +0.000 C 
BRANCH  23  24
ATOM     24  C   UNL     1      45.387   3.128   8.463  0.00  0.00    +0.000 A 
ATOM     25  C   UNL     1      45.577   1.755   8.654  0.00  0.00    +0.000 A 
ATOM     26  C   UNL     1      46.478   1.087   7.838  0.00  0.00    +0.000 A 
ATOM     27  N   UNL     1      47.185   1.680   6.853  0.00  0.00    +0.000 NA
ATOM     28  C   UNL     1      46.980   3.003   6.677  0.00  0.00    +0.000 A 
ATOM     29  C   UNL     1      46.104   3.758   7.443  0.00  0.00    +0.000 A 
ENDBRANCH  23  24
ENDBRANCH  20  23
ENDBRANCH  16  17
ENDBRANCH   3  16
TORSDOF 5
ENDMDL
