MODEL 1
REMARK VINA RESULT:    -8.264      0.000      0.000
REMARK INTER + INTRA:         -10.900
REMARK INTER:                 -10.196
REMARK INTRA:                  -0.704
REMARK UNBOUND:                -0.704
REMARK  Name = 
REMARK  4 active torsions:
REMARK  status: ('A' for Active; 'I' for Inactive)
REMARK    1  A    between atoms: C_2  and  C_5
REMARK    2  A    between atoms: N_10  and  C_11
REMARK    3  A    between atoms: C_11  and  C_12
REMARK    4  A    between atoms: C_16  and  C_17
REMARK                            x       y       z     vdW  Elec       q    Type
REMARK                         _______ _______ _______ _____ _____    ______ ____
ROOT
ATOM      1  C   UNL     1      43.803   5.240  11.385  0.00  0.00    +0.000 C 
ATOM      2  C   UNL     1      42.734   5.757  12.355  0.00  0.00    +0.000 C 
ATOM      3  C   UNL     1      43.046   6.534  11.122  0.00  0.00    +0.000 C 
ENDROOT
BRANCH   1   9
ATOM      4  C   UNL     1      46.071   3.125   8.112  0.00  0.00    +0.000 A 
ATOM      5  C   UNL     1      45.894   1.752   8.143  0.00  0.00    +0.000 A 
ATOM      6  N   UNL     1      45.051   1.169   9.007  0.00  0.00    +0.000 NA
ATOM      7  N   UNL     1      44.306   1.948   9.857  0.00  0.00    +0.000 NA
ATOM      8  C   UNL     1      44.421   3.295   9.864  0.00  0.00    +0.000 A 
ATOM      9  N   UNL     1      43.510   3.990  10.674  0.00  0.00    +0.000 N 
ATOM     10  C   UNL     1      45.321   3.905   9.009  0.00  0.00    +0.000 A 
ATOM     11  H   UNL     1      43.042   3.278  11.235  0.00  0.00    +0.000 HD
BRANCH   4  13
ATOM     12  F   UNL     1      46.475   3.879   5.881  0.00  0.00    +0.000 F 
ATOM     13  C   UNL     1      47.005   3.743   7.128  0.00  0.00    +0.000 C 
ATOM     14  F   UNL     1      48.147   3.019   6.971  0.00  0.00    +0.000 F 
ATOM     15  F   UNL     1      47.404   4.991   7.499  0.00  0.00    +0.000 F 
ENDBRANCH   4  13
ENDBRANCH   1   9
BRANCH   1  16
ATOM     16  C   UNL     1      45.230   5.362  11.885  0.00  0.00    +0.000 A 
ATOM     17  C   UNL     1      46.100   6.333  11.373  0.00  0.00    +0.000 A 
ATOM     18  C   UNL     1      47.299   6.618  12.015  0.00  0.00    +0.000 A 
ATOM     19  C   UNL     1      47.648   5.931  13.175  0.00  0.00    +0.000 A 
ATOM     20  C   UNL     1      46.850   4.886  13.678  0.00  0.00    +0.000 A 
ATOM     21  C   UNL     1      45.673   4.589  12.973  0.00  0.00    +0.000 A 
BRANCH  20  22
ATOM     22  C   UNL     1      47.176   4.206  14.945  0.00  0.00    +0.000 A 
ATOM     23  N   UNL     1      47.733   2.987  14.868  0.00  0.00    +0.000 NA
ATOM     24  C   UNL     1      48.107   2.413  16.035  0.00  0.00    +0.000 A 
ATOM     25  C   UNL     1      47.950   3.018  17.255  0.00  0.00    +0.000 A 
ATOM     26  C   UNL     1      47.369   4.258  17.235  0.00  0.00    +0.000 A 
ATOM     27  N   UNL     1      46.982   4.881  16.101  0.00  0.00    +0.000 NA
ENDBRANCH  20  22
ENDBRANCH   1  16
TORSDOF 4
ENDMDL
MODEL 2
REMARK VINA RESULT:    -7.688      1.550      2.235
REMARK INTER + INTRA:         -10.190
REMARK INTER:                  -9.359
REMARK INTRA:                  -0.831
REMARK UNBOUND:                -0.704
REMARK  Name = 
REMARK  4 active torsions:
REMARK  status: ('A' for Active; 'I' for Inactive)
REMARK    1  A    between atoms: C_2  and  C_5
REMARK    2  A    between atoms: N_10  and  C_11
REMARK    3  A    between atoms: C_11  and  C_12
REMARK    4  A    between atoms: C_16  and  C_17
REMARK                            x       y       z     vdW  Elec       q    Type
REMARK                         _______ _______ _______ _____ _____    ______ ____
ROOT
ATOM      1  C   UNL     1      44.986   7.556  11.815  0.00  0.00    +0.000 C 
ATOM      2  C   UNL     1      44.556   8.864  12.489  0.00  0.00    +0.000 C 
ATOM      3  C   UNL     1      44.934   8.870  11.048  0.00  0.00    +0.000 C 
ENDROOT
BRANCH   1   9
ATOM      4  C   UNL     1      44.978   3.774   9.360  0.00  0.00    +0.000 A 
ATOM      5  C   UNL     1      44.215   2.769   9.930  0.00  0.00    +0.000 A 
ATOM      6  N   UNL     1      43.494   2.977  11.041  0.00  0.00    +0.000 NA
ATOM      7  N   UNL     1      43.468   4.226  11.609  0.00  0.00    +0.000 NA
ATOM      8  C   UNL     1      44.179   5.253  11.090  0.00  0.00    +0.000 A 
ATOM      9  N   UNL     1      43.964   6.512  11.672  0.00  0.00    +0.000 N 
ATOM     10  C   UNL     1      44.963   5.039   9.970  0.00  0.00    +0.000 A 
ATOM     11  H   UNL     1      43.411   6.335  12.510  0.00  0.00    +0.000 HD
BRANCH   4  13
ATOM     12  F   UNL     1      46.457   2.346   8.140  0.00  0.00    +0.000 F 
ATOM     13  C   UNL     1      45.757   3.514   8.115  0.00  0.00    +0.000 C 
ATOM     14  F   UNL     1      46.670   4.491   7.861  0.00  0.00    +0.000 F 
ATOM     15  F   UNL     1      44.965   3.447   7.008  0.00  0.00    +0.000 F 
ENDBRANCH   4  13
ENDBRANCH   1   9
BRANCH   1  16
ATOM     16  C   UNL     1      46.354   7.046  12.225  0.00  0.00    +0.000 A 
ATOM     17  C   UNL     1      47.519   7.490  11.585  0.00  0.00    +0.000 A 
ATOM     18  C   UNL     1      48.769   7.236  12.135  0.00  0.00    +0.000 A 
ATOM     19  C   UNL     1      48.874   6.530  13.330  0.00  0.00    +0.000 A 
ATOM     20  C   UNL     1      47.740   5.987  13.964  0.00  0.00    +0.000 A 
ATOM     21  C   UNL     1      46.499   6.217  13.352  0.00  0.00    +0.000 A 
BRANCH  20  22
ATOM     22  C   UNL     1      47.837   5.303  15.266  0.00  0.00    +0.000 A 
ATOM     23  N   UNL     1      46.972   4.305  15.509  0.00  0.00    +0.000 NA
ATOM     24  C   UNL     1      47.130   3.630  16.670  0.00  0.00    +0.000 A 
ATOM     25  C   UNL     1      48.117   3.915  17.577  0.00  0.00    +0.000 A 
ATOM     26  C   UNL     1      48.949   4.951  17.248  0.00  0.00    +0.000 A 
ATOM     27  N   UNL     1      48.842   5.656  16.101  0.00  0.00    +0.000 NA
ENDBRANCH  20  22
ENDBRANCH   1  16
TORSDOF 4
ENDMDL
MODEL 3
REMARK VINA RESULT:    -7.407      2.517      3.497
REMARK INTER + INTRA:          -9.843
REMARK INTER:                  -8.864
REMARK INTRA:                  -0.979
REMARK UNBOUND:                -0.704
REMARK  Name = 
REMARK  4 active torsions:
REMARK  status: ('A' for Active; 'I' for Inactive)
REMARK    1  A    between atoms: C_2  and  C_5
REMARK    2  A    between atoms: N_10  and  C_11
REMARK    3  A    between atoms: C_11  and  C_12
REMARK    4  A    between atoms: C_16  and  C_17
REMARK                            x       y       z     vdW  Elec       q    Type
REMARK                         _______ _______ _______ _____ _____    ______ ____
ROOT
ATOM      1  C   UNL     1      45.492   7.689  12.449  0.00  0.00    +0.000 C 
ATOM      2  C   UNL     1      45.094   9.139  12.752  0.00  0.00    +0.000 C 
ATOM      3  C   UNL     1      45.185   8.682  11.337  0.00  0.00    +0.000 C 
ENDROOT
BRANCH   1   9
ATOM      4  C   UNL     1      44.471   3.744  10.519  0.00  0.00    +0.000 A 
ATOM      5  C   UNL     1      44.086   2.784  11.440  0.00  0.00    +0.000 A 
ATOM      6  N   UNL     1      43.951   3.071  12.742  0.00  0.00    +0.000 NA
ATOM      7  N   UNL     1      44.152   4.357  13.178  0.00  0.00    +0.000 NA
ATOM      8  C   UNL     1      44.512   5.343  12.326  0.00  0.00    +0.000 A 
ATOM      9  N   UNL     1      44.551   6.640  12.860  0.00  0.00    +0.000 N 
ATOM     10  C   UNL     1      44.700   5.050  10.987  0.00  0.00    +0.000 A 
ATOM     11  H   UNL     1      44.451   6.525  13.868  0.00  0.00    +0.000 HD
BRANCH   4  13
ATOM     12  F   UNL     1      45.886   3.298   8.646  0.00  0.00    +0.000 F 
ATOM     13  C   UNL     1      44.597   3.396   9.075  0.00  0.00    +0.000 C 
ATOM     14  F   UNL     1      44.003   4.315   8.266  0.00  0.00    +0.000 F 
ATOM     15  F   UNL     1      44.015   2.202   8.773  0.00  0.00    +0.000 F 
ENDBRANCH   4  13
ENDBRANCH   1   9
BRANCH   1  16
ATOM     16  C   UNL     1      46.951   7.361  12.702  0.00  0.00    +0.000 A 
ATOM     17  C   UNL     1      47.934   7.626  11.739  0.00  0.00    +0.000 A 
ATOM     18  C   UNL     1      49.282   7.580  12.073  0.00  0.00    +0.000 A 
ATOM     19  C   UNL     1      49.667   7.264  13.374  0.00  0.00    +0.000 A 
ATOM     20  C   UNL     1      48.720   6.905  14.353  0.00  0.00    +0.000 A 
ATOM     21  C   UNL     1      47.372   6.910  13.965  0.00  0.00    +0.000 A 
BRANCH  20  22
ATOM     22  C   UNL     1      49.116   6.643  15.748  0.00  0.00    +0.000 A 
ATOM     23  N   UNL     1      49.430   7.701  16.513  0.00  0.00    +0.000 NA
ATOM     24  C   UNL     1      49.706   7.452  17.814  0.00  0.00    +0.000 A 
ATOM     25  C   UNL     1      49.671   6.198  18.364  0.00  0.00    +0.000 A 
ATOM     26  C   UNL     1      49.346   5.180  17.507  0.00  0.00    +0.000 A 
ATOM     27  N   UNL     1      49.055   5.370  16.202  0.00  0.00    +0.000 NA
ENDBRANCH  20  22
ENDBRANCH   1  16
TORSDOF 4
ENDMDL
MODEL 4
REMARK VINA RESULT:    -7.077      3.211      6.775
REMARK INTER + INTRA:          -9.435
REMARK INTER:                  -8.559
REMARK INTRA:                  -0.877
REMARK UNBOUND:                -0.704
REMARK  Name = 
REMARK  4 active torsions:
REMARK  status: ('A' for Active; 'I' for Inactive)
REMARK    1  A    between atoms: C_2  and  C_5
REMARK    2  A    between atoms: N_10  and  C_11
REMARK    3  A    between atoms: C_11  and  C_12
REMARK    4  A    between atoms: C_16  and  C_17
REMARK                            x       y       z     vdW  Elec       q    Type
REMARK                         _______ _______ _______ _____ _____    ______ ____
ROOT
ATOM      1  C   UNL     1      46.206   5.521  13.403  0.00  0.00    +0.000 C 
ATOM      2  C   UNL     1      46.273   4.642  14.658  0.00  0.00    +0.000 C 
ATOM      3  C   UNL     1      47.408   4.633  13.693  0.00  0.00    +0.000 C 
ENDROOT
BRANCH   1   9
ATOM      4  C   UNL     1      49.043   8.663  11.850  0.00  0.00    +0.000 A 
ATOM      5  C   UNL     1      48.434   9.895  11.684  0.00  0.00    +0.000 A 
ATOM      6  N   UNL     1      47.163  10.109  12.053  0.00  0.00    +0.000 NA
ATOM      7  N   UNL     1      46.452   9.100  12.654  0.00  0.00    +0.000 NA
ATOM      8  C   UNL     1      46.996   7.879  12.859  0.00  0.00    +0.000 A 
ATOM      9  N   UNL     1      46.225   6.974  13.605  0.00  0.00    +0.000 N 
ATOM     10  C   UNL     1      48.292   7.632  12.441  0.00  0.00    +0.000 A 
ATOM     11  H   UNL     1      45.305   7.407  13.694  0.00  0.00    +0.000 HD
BRANCH   4  13
ATOM     12  F   UNL     1      50.974   9.492  10.711  0.00  0.00    +0.000 F 
ATOM     13  C   UNL     1      50.463   8.463  11.443  0.00  0.00    +0.000 C 
ATOM     14  F   UNL     1      50.633   7.345  10.685  0.00  0.00    +0.000 F 
ATOM     15  F   UNL     1      51.297   8.319  12.511  0.00  0.00    +0.000 F 
ENDBRANCH   4  13
ENDBRANCH   1   9
BRANCH   1  16
ATOM     16  C   UNL     1      45.233   5.044  12.341  0.00  0.00    +0.000 A 
ATOM     17  C   UNL     1      43.905   5.490  12.318  0.00  0.00    +0.000 A 
ATOM     18  C   UNL     1      43.105   5.271  11.204  0.00  0.00    +0.000 A 
ATOM     19  C   UNL     1      43.619   4.599  10.098  0.00  0.00    +0.000 A 
ATOM     20  C   UNL     1      44.918   4.056  10.108  0.00  0.00    +0.000 A 
ATOM     21  C   UNL     1      45.679   4.249  11.270  0.00  0.00    +0.000 A 
BRANCH  20  22
ATOM     22  C   UNL     1      45.492   3.409   8.914  0.00  0.00    +0.000 A 
ATOM     23  N   UNL     1      45.862   4.202   7.896  0.00  0.00    +0.000 NA
ATOM     24  C   UNL     1      46.467   3.604   6.845  0.00  0.00    +0.000 A 
ATOM     25  C   UNL     1      46.715   2.258   6.787  0.00  0.00    +0.000 A 
ATOM     26  C   UNL     1      46.300   1.527   7.868  0.00  0.00    +0.000 A 
ATOM     27  N   UNL     1      45.696   2.072   8.947  0.00  0.00    +0.000 NA
ENDBRANCH  20  22
ENDBRANCH   1  16
TORSDOF 4
ENDMDL
MODEL 5
REMARK VINA RESULT:    -7.067      2.534      4.005
REMARK INTER + INTRA:          -9.423
REMARK INTER:                  -9.116
REMARK INTRA:                  -0.307
REMARK UNBOUND:                -0.704
REMARK  Name = 
REMARK  4 active torsions:
REMARK  status: ('A' for Active; 'I' for Inactive)
REMARK    1  A    between atoms: C_2  and  C_5
REMARK    2  A    between atoms: N_10  and  C_11
REMARK    3  A    between atoms: C_11  and  C_12
REMARK    4  A    between atoms: C_16  and  C_17
REMARK                            x       y       z     vdW  Elec       q    Type
REMARK                         _______ _______ _______ _____ _____    ______ ____
ROOT
ATOM      1  C   UNL     1      47.225   7.866  13.030  0.00  0.00    +0.000 C 
ATOM      2  C   UNL     1      47.608   9.072  12.164  0.00  0.00    +0.000 C 
ATOM      3  C   UNL     1      48.032   7.706  11.749  0.00  0.00    +0.000 C 
ENDROOT
BRANCH   1   9
ATOM      4  C   UNL     1      44.764   4.872  10.725  0.00  0.00    +0.000 A 
ATOM      5  C   UNL     1      43.699   4.379  11.460  0.00  0.00    +0.000 A 
ATOM      6  N   UNL     1      43.412   4.844  12.684  0.00  0.00    +0.000 NA
ATOM      7  N   UNL     1      44.159   5.868  13.213  0.00  0.00    +0.000 NA
ATOM      8  C   UNL     1      45.201   6.403  12.538  0.00  0.00    +0.000 A 
ATOM      9  N   UNL     1      45.798   7.534  13.116  0.00  0.00    +0.000 N 
ATOM     10  C   UNL     1      45.535   5.900  11.293  0.00  0.00    +0.000 A 
ATOM     11  H   UNL     1      45.396   7.608  14.051  0.00  0.00    +0.000 HD
BRANCH   4  13
ATOM     12  F   UNL     1      43.977   4.394   8.520  0.00  0.00    +0.000 F 
ATOM     13  C   UNL     1      45.047   4.343   9.360  0.00  0.00    +0.000 C 
ATOM     14  F   UNL     1      45.444   3.041   9.380  0.00  0.00    +0.000 F 
ATOM     15  F   UNL     1      46.044   5.027   8.732  0.00  0.00    +0.000 F 
ENDBRANCH   4  13
ENDBRANCH   1   9
BRANCH   1  16
ATOM     16  C   UNL     1      47.978   7.756  14.341  0.00  0.00    +0.000 A 
ATOM     17  C   UNL     1      48.094   8.850  15.208  0.00  0.00    +0.000 A 
ATOM     18  C   UNL     1      48.540   8.676  16.513  0.00  0.00    +0.000 A 
ATOM     19  C   UNL     1      48.882   7.405  16.968  0.00  0.00    +0.000 A 
ATOM     20  C   UNL     1      48.867   6.289  16.109  0.00  0.00    +0.000 A 
ATOM     21  C   UNL     1      48.463   6.512  14.784  0.00  0.00    +0.000 A 
BRANCH  20  22
ATOM     22  C   UNL     1      49.157   4.931  16.604  0.00  0.00    +0.000 A 
ATOM     23  N   UNL     1      48.255   3.971  16.344  0.00  0.00    +0.000 NA
ATOM     24  C   UNL     1      48.575   2.714  16.727  0.00  0.00    +0.000 A 
ATOM     25  C   UNL     1      49.755   2.394  17.347  0.00  0.00    +0.000 A 
ATOM     26  C   UNL     1      50.610   3.438  17.576  0.00  0.00    +0.000 A 
ATOM     27  N   UNL     1      50.346   4.711  17.210  0.00  0.00    +0.000 NA
ENDBRANCH  20  22
ENDBRANCH   1  16
TORSDOF 4
ENDMDL
MODEL 6
REMARK VINA RESULT:    -7.057      3.469      6.263
REMARK INTER + INTRA:          -9.410
REMARK INTER:                  -9.348
REMARK INTRA:                  -0.062
REMARK UNBOUND:                -0.704
REMARK  Name = 
REMARK  4 active torsions:
REMARK  status: ('A' for Active; 'I' for Inactive)
REMARK    1  A    between atoms: C_2  and  C_5
REMARK    2  A    between atoms: N_10  and  C_11
REMARK    3  A    between atoms: C_11  and  C_12
REMARK    4  A    between atoms: C_16  and  C_17
REMARK                            x       y       z     vdW  Elec       q    Type
REMARK                         _______ _______ _______ _____ _____    ______ ____
ROOT
ATOM      1  C   UNL     1      47.031   7.216  13.352  0.00  0.00    +0.000 C 
ATOM      2  C   UNL     1      48.253   6.540  12.719  0.00  0.00    +0.000 C 
ATOM      3  C   UNL     1      48.314   6.987  14.139  0.00  0.00    +0.000 C 
ENDROOT
BRANCH   1   9
ATOM      4  C   UNL     1      45.067   4.249  10.583  0.00  0.00    +0.000 A 
ATOM      5  C   UNL     1      44.408   3.239  11.265  0.00  0.00    +0.000 A 
ATOM      6  N   UNL     1      44.307   3.240  12.601  0.00  0.00    +0.000 NA
ATOM      7  N   UNL     1      44.827   4.288  13.320  0.00  0.00    +0.000 NA
ATOM      8  C   UNL     1      45.467   5.312  12.712  0.00  0.00    +0.000 A 
ATOM      9  N   UNL     1      45.831   6.391  13.533  0.00  0.00    +0.000 N 
ATOM     10  C   UNL     1      45.618   5.300  11.337  0.00  0.00    +0.000 A 
ATOM     11  H   UNL     1      45.668   6.074  14.489  0.00  0.00    +0.000 HD
BRANCH   4  13
ATOM     12  F   UNL     1      45.921   5.218   8.572  0.00  0.00    +0.000 F 
ATOM     13  C   UNL     1      45.148   4.226   9.095  0.00  0.00    +0.000 C 
ATOM     14  F   UNL     1      43.927   4.355   8.507  0.00  0.00    +0.000 F 
ATOM     15  F   UNL     1      45.669   3.061   8.618  0.00  0.00    +0.000 F 
ENDBRANCH   4  13
ENDBRANCH   1   9
BRANCH   1  16
ATOM     16  C   UNL     1      46.759   8.626  12.866  0.00  0.00    +0.000 A 
ATOM     17  C   UNL     1      47.805   9.515  12.585  0.00  0.00    +0.000 A 
ATOM     18  C   UNL     1      47.565  10.693  11.889  0.00  0.00    +0.000 A 
ATOM     19  C   UNL     1      46.275  11.003  11.467  0.00  0.00    +0.000 A 
ATOM     20  C   UNL     1      45.177  10.186  11.802  0.00  0.00    +0.000 A 
ATOM     21  C   UNL     1      45.449   9.033  12.552  0.00  0.00    +0.000 A 
BRANCH  20  22
ATOM     22  C   UNL     1      43.822  10.471  11.296  0.00  0.00    +0.000 A 
ATOM     23  N   UNL     1      42.942  11.012  12.153  0.00  0.00    +0.000 NA
ATOM     24  C   UNL     1      41.731  11.348  11.652  0.00  0.00    +0.000 A 
ATOM     25  C   UNL     1      41.384  11.167  10.338  0.00  0.00    +0.000 A 
ATOM     26  C   UNL     1      42.344  10.604   9.540  0.00  0.00    +0.000 A 
ATOM     27  N   UNL     1      43.570  10.255   9.984  0.00  0.00    +0.000 NA
ENDBRANCH  20  22
ENDBRANCH   1  16
TORSDOF 4
ENDMDL
MODEL 7
REMARK VINA RESULT:    -6.929      4.719      8.201
REMARK INTER + INTRA:          -9.253
REMARK INTER:                  -8.321
REMARK INTRA:                  -0.932
REMARK UNBOUND:                -0.704
REMARK  Name = 
REMARK  4 active torsions:
REMARK  status: ('A' for Active; 'I' for Inactive)
REMARK    1  A    between atoms: C_2  and  C_5
REMARK    2  A    between atoms: N_10  and  C_11
REMARK    3  A    between atoms: C_11  and  C_12
REMARK    4  A    between atoms: C_16  and  C_17
REMARK                            x       y       z     vdW  Elec       q    Type
REMARK                         _______ _______ _______ _____ _____    ______ ____
ROOT
ATOM      1  C   UNL     1      48.829   7.776  12.669  0.00  0.00    +0.000 C 
ATOM      2  C   UNL     1      49.687   8.008  11.420  0.00  0.00    +0.000 C 
ATOM      3  C   UNL     1      49.397   9.148  12.334  0.00  0.00    +0.000 C 
ENDROOT
BRANCH   1   9
ATOM      4  C   UNL     1      48.436   7.973  17.157  0.00  0.00    +0.000 A 
ATOM      5  C   UNL     1      48.525   6.727  17.754  0.00  0.00    +0.000 A 
ATOM      6  N   UNL     1      48.798   5.623  17.046  0.00  0.00    +0.000 NA
ATOM      7  N   UNL     1      49.044   5.725  15.699  0.00  0.00    +0.000 NA
ATOM      8  C   UNL     1      48.989   6.916  15.059  0.00  0.00    +0.000 A 
ATOM      9  N   UNL     1      49.394   6.917  13.716  0.00  0.00    +0.000 N 
ATOM     10  C   UNL     1      48.662   8.056  15.772  0.00  0.00    +0.000 A 
ATOM     11  H   UNL     1      49.492   5.934  13.458  0.00  0.00    +0.000 HD
BRANCH   4  13
ATOM     12  F   UNL     1      49.199   9.599  18.733  0.00  0.00    +0.000 F 
ATOM     13  C   UNL     1      48.146   9.184  17.977  0.00  0.00    +0.000 C 
ATOM     14  F   UNL     1      47.117   8.988  18.845  0.00  0.00    +0.000 F 
ATOM     15  F   UNL     1      47.791  10.257  17.216  0.00  0.00    +0.000 F 
ENDBRANCH   4  13
ENDBRANCH   1   9
BRANCH   1  16
ATOM     16  C   UNL     1      47.354   7.552  12.397  0.00  0.00    +0.000 A 
ATOM     17  C   UNL     1      46.407   8.554  12.644  0.00  0.00    +0.000 A 
ATOM     18  C   UNL     1      45.115   8.446  12.145  0.00  0.00    +0.000 A 
ATOM     19  C   UNL     1      44.749   7.330  11.396  0.00  0.00    +0.000 A 
ATOM     20  C   UNL     1      45.638   6.256  11.196  0.00  0.00    +0.000 A 
ATOM     21  C   UNL     1      46.917   6.376  11.760  0.00  0.00    +0.000 A 
BRANCH  20  22
ATOM     22  C   UNL     1      45.281   5.108  10.343  0.00  0.00    +0.000 A 
ATOM     23  N   UNL     1      45.664   5.149   9.057  0.00  0.00    +0.000 NA
ATOM     24  C   UNL     1      45.407   4.052   8.309  0.00  0.00    +0.000 A 
ATOM     25  C   UNL     1      44.792   2.931   8.804  0.00  0.00    +0.000 A 
ATOM     26  C   UNL     1      44.433   2.982  10.125  0.00  0.00    +0.000 A 
ATOM     27  N   UNL     1      44.670   4.048  10.920  0.00  0.00    +0.000 NA
ENDBRANCH  20  22
ENDBRANCH   1  16
TORSDOF 4
ENDMDL
MODEL 8
REMARK VINA RESULT:    -6.800      2.234      3.180
REMARK INTER + INTRA:          -9.093
REMARK INTER:                  -8.558
REMARK INTRA:                  -0.535
REMARK UNBOUND:                -0.704
REMARK  Name = 
REMARK  4 active torsions:
REMARK  status: ('A' for Active; 'I' for Inactive)
REMARK    1  A    between atoms: C_2  and  C_5
REMARK    2  A    between atoms: N_10  and  C_11
REMARK    3  A    between atoms: C_11  and  C_12
REMARK    4  A    between atoms: C_16  and  C_17
REMARK                            x       y       z     vdW  Elec       q    Type
REMARK                         _______ _______ _______ _____ _____    ______ ____
ROOT
ATOM      1  C   UNL     1      45.165   6.405  11.730  0.00  0.00    +0.000 C 
ATOM      2  C   UNL     1      44.707   7.867  11.673  0.00  0.00    +0.000 C 
ATOM      3  C   UNL     1      45.807   7.407  10.781  0.00  0.00    +0.000 C 
ENDROOT
BRANCH   1   9
ATOM      4  C   UNL     1      45.540   3.207   8.574  0.00  0.00    +0.000 A 
ATOM      5  C   UNL     1      44.773   2.089   8.854  0.00  0.00    +0.000 A 
ATOM      6  N   UNL     1      43.948   2.047   9.909  0.00  0.00    +0.000 NA
ATOM      7  N   UNL     1      43.818   3.153  10.713  0.00  0.00    +0.000 NA
ATOM      8  C   UNL     1      44.526   4.281  10.482  0.00  0.00    +0.000 A 
ATOM      9  N   UNL     1      44.206   5.388  11.282  0.00  0.00    +0.000 N 
ATOM     10  C   UNL     1      45.416   4.320   9.423  0.00  0.00    +0.000 A 
ATOM     11  H   UNL     1      43.589   5.030  12.011  0.00  0.00    +0.000 HD
BRANCH   4  13
ATOM     12  F   UNL     1      47.375   2.239   7.386  0.00  0.00    +0.000 F 
ATOM     13  C   UNL     1      46.437   3.227   7.383  0.00  0.00    +0.000 C 
ATOM     14  F   UNL     1      47.127   4.395   7.272  0.00  0.00    +0.000 F 
ATOM     15  F   UNL     1      45.754   3.085   6.213  0.00  0.00    +0.000 F 
ENDBRANCH   4  13
ENDBRANCH   1   9
BRANCH   1  16
ATOM     16  C   UNL     1      45.947   6.029  12.974  0.00  0.00    +0.000 A 
ATOM     17  C   UNL     1      45.680   4.845  13.672  0.00  0.00    +0.000 A 
ATOM     18  C   UNL     1      46.566   4.375  14.634  0.00  0.00    +0.000 A 
ATOM     19  C   UNL     1      47.729   5.086  14.916  0.00  0.00    +0.000 A 
ATOM     20  C   UNL     1      47.998   6.326  14.305  0.00  0.00    +0.000 A 
ATOM     21  C   UNL     1      47.055   6.796  13.379  0.00  0.00    +0.000 A 
BRANCH  20  22
ATOM     22  C   UNL     1      49.262   7.046  14.545  0.00  0.00    +0.000 A 
ATOM     23  N   UNL     1      50.038   6.617  15.554  0.00  0.00    +0.000 NA
ATOM     24  C   UNL     1      51.233   7.231  15.707  0.00  0.00    +0.000 A 
ATOM     25  C   UNL     1      51.671   8.240  14.889  0.00  0.00    +0.000 A 
ATOM     26  C   UNL     1      50.811   8.614  13.891  0.00  0.00    +0.000 A 
ATOM     27  N   UNL     1      49.608   8.033  13.688  0.00  0.00    +0.000 NA
ENDBRANCH  20  22
ENDBRANCH   1  16
TORSDOF 4
ENDMDL
MODEL 9
REMARK VINA RESULT:    -6.723      3.780      7.495
REMARK INTER + INTRA:          -8.999
REMARK INTER:                  -8.718
REMARK INTRA:                  -0.281
REMARK UNBOUND:                -0.704
REMARK  Name = 
REMARK  4 active torsions:
REMARK  status: ('A' for Active; 'I' for Inactive)
REMARK    1  A    between atoms: C_2  and  C_5
REMARK    2  A    between atoms: N_10  and  C_11
REMARK    3  A    between atoms: C_11  and  C_12
REMARK    4  A    between atoms: C_16  and  C_17
REMARK                            x       y       z     vdW  Elec       q    Type
REMARK                         _______ _______ _______ _____ _____    ______ ____
ROOT
ATOM      1  C   UNL     1      48.838   8.237  12.662  0.00  0.00    +0.000 C 
ATOM      2  C   UNL     1      49.831   7.478  11.773  0.00  0.00    +0.000 C 
ATOM      3  C   UNL     1      49.605   8.933  11.546  0.00  0.00    +0.000 C 
ENDROOT
BRANCH   1   9
ATOM      4  C   UNL     1      48.391   5.370  16.112  0.00  0.00    +0.000 A 
ATOM      5  C   UNL     1      49.359   5.551  17.085  0.00  0.00    +0.000 A 
ATOM      6  N   UNL     1      50.252   6.549  17.014  0.00  0.00    +0.000 NA
ATOM      7  N   UNL     1      50.184   7.446  15.978  0.00  0.00    +0.000 NA
ATOM      8  C   UNL     1      49.251   7.333  15.006  0.00  0.00    +0.000 A 
ATOM      9  N   UNL     1      49.191   8.386  14.079  0.00  0.00    +0.000 N 
ATOM     10  C   UNL     1      48.353   6.281  15.043  0.00  0.00    +0.000 A 
ATOM     11  H   UNL     1      50.017   8.956  14.258  0.00  0.00    +0.000 HD
BRANCH   4  13
ATOM     12  F   UNL     1      46.715   4.259  17.405  0.00  0.00    +0.000 F 
ATOM     13  C   UNL     1      47.403   4.259  16.230  0.00  0.00    +0.000 C 
ATOM     14  F   UNL     1      47.988   3.033  16.140  0.00  0.00    +0.000 F 
ATOM     15  F   UNL     1      46.459   4.294  15.248  0.00  0.00    +0.000 F 
ENDBRANCH   4  13
ENDBRANCH   1   9
BRANCH   1  16
ATOM     16  C   UNL     1      47.378   7.918  12.406  0.00  0.00    +0.000 A 
ATOM     17  C   UNL     1      46.373   8.861  12.653  0.00  0.00    +0.000 A 
ATOM     18  C   UNL     1      45.085   8.668  12.167  0.00  0.00    +0.000 A 
ATOM     19  C   UNL     1      44.784   7.525  11.430  0.00  0.00    +0.000 A 
ATOM     20  C   UNL     1      45.737   6.508  11.230  0.00  0.00    +0.000 A 
ATOM     21  C   UNL     1      47.010   6.712  11.782  0.00  0.00    +0.000 A 
BRANCH  20  22
ATOM     22  C   UNL     1      45.445   5.332  10.390  0.00  0.00    +0.000 A 
ATOM     23  N   UNL     1      44.673   4.369  10.918  0.00  0.00    +0.000 NA
ATOM     24  C   UNL     1      44.342   3.339  10.106  0.00  0.00    +0.000 A 
ATOM     25  C   UNL     1      44.749   3.250   8.800  0.00  0.00    +0.000 A 
ATOM     26  C   UNL     1      45.537   4.276   8.350  0.00  0.00    +0.000 A 
ATOM     27  N   UNL     1      45.893   5.331   9.114  0.00  0.00    +0.000 NA
ENDBRANCH  20  22
ENDBRANCH   1  16
TORSDOF 4
ENDMDL
