MODEL 1
REMARK VINA RESULT:    -8.711      0.000      0.000
REMARK INTER + INTRA:         -13.287
REMARK INTER:                 -12.276
REMARK INTRA:                  -1.011
REMARK UNBOUND:                -1.011
REMARK  Name = 
REMARK  7 active torsions:
REMARK  status: ('A' for Active; 'I' for Inactive)
REMARK    1  A    between atoms: C_2  and  C_20
REMARK    2  A    between atoms: N_3  and  C_4
REMARK    3  A    between atoms: C_4  and  C_5
REMARK    4  A    between atoms: C_10  and  C_11
REMARK    5  A    between atoms: C_11  and  N_12
REMARK    6  A    between atoms: N_12  and  C_13
REMARK    7  A    between atoms: C_13  and  C_14
REMARK                            x       y       z     vdW  Elec       q    Type
REMARK                         _______ _______ _______ _____ _____    ______ ____
ROOT
ATOM      1  C   UNL     1      46.804   4.150  14.574  0.00  0.00    +0.000 C 
ENDROOT
BRANCH   1   2
ATOM      2  C   UNL     1      46.617   5.138  13.445  0.00  0.00    +0.000 A 
ATOM      3  C   UNL     1      47.514   6.226  13.389  0.00  0.00    +0.000 A 
ATOM      4  C   UNL     1      47.448   7.173  12.368  0.00  0.00    +0.000 A 
ATOM      5  C   UNL     1      46.500   7.040  11.364  0.00  0.00    +0.000 A 
ATOM      6  C   UNL     1      45.612   5.966  11.393  0.00  0.00    +0.000 A 
ATOM      7  C   UNL     1      45.640   5.009  12.430  0.00  0.00    +0.000 A 
BRANCH   7   8
ATOM      8  C   UNL     1      44.593   3.909  12.389  0.00  0.00    +0.000 C 
BRANCH   8   9
ATOM      9  N   UNL     1      44.911   2.776  11.511  0.00  0.00    +0.000 NA
ATOM     10  H   UNL     1      44.717   1.904  11.997  0.00  0.00    +0.000 HD
BRANCH   9  11
ATOM     11  C   UNL     1      44.184   2.783  10.241  0.00  0.00    +0.000 C 
BRANCH  11  12
ATOM     12  C   UNL     1      45.098   2.829   9.039  0.00  0.00    +0.000 A 
ATOM     13  C   UNL     1      45.801   1.706   8.593  0.00  0.00    +0.000 A 
ATOM     14  C   UNL     1      46.729   1.831   7.557  0.00  0.00    +0.000 A 
ATOM     15  C   UNL     1      46.922   3.081   6.996  0.00  0.00    +0.000 A 
ATOM     16  N   UNL     1      46.238   4.182   7.371  0.00  0.00    +0.000 NA
ATOM     17  C   UNL     1      45.343   4.030   8.375  0.00  0.00    +0.000 A 
ENDBRANCH  11  12
ENDBRANCH   9  11
ENDBRANCH   8   9
ENDBRANCH   7   8
ENDBRANCH   1   2
BRANCH   1  20
ATOM     18  O   UNL     1      46.568   3.164  17.161  0.00  0.00    +0.000 OA
ATOM     19  C   UNL     1      47.220   4.189  16.991  0.00  0.00    +0.000 C 
ATOM     20  N   UNL     1      47.341   4.783  15.756  0.00  0.00    +0.000 N 
ATOM     21  H   UNL     1      48.010   5.536  15.625  0.00  0.00    +0.000 HD
BRANCH  19  22
ATOM     22  C   UNL     1      47.882   4.856  18.111  0.00  0.00    +0.000 A 
ATOM     23  C   UNL     1      47.184   5.734  18.929  0.00  0.00    +0.000 A 
ATOM     24  S   UNL     1      48.111   6.352  20.222  0.00  0.00    +0.000 S 
ATOM     25  C   UNL     1      49.473   5.449  19.744  0.00  0.00    +0.000 A 
ATOM     26  N   UNL     1      50.624   5.478  20.474  0.00  0.00    +0.000 NA
ATOM     27  C   UNL     1      51.563   4.718  20.017  0.00  0.00    +0.000 A 
ATOM     28  N   UNL     1      51.463   3.947  18.886  0.00  0.00    +0.000 N 
ATOM     29  C   UNL     1      50.347   3.936  18.082  0.00  0.00    +0.000 A 
ATOM     30  O   UNL     1      50.332   3.334  17.015  0.00  0.00    +0.000 OA
ATOM     31  C   UNL     1      49.242   4.731  18.592  0.00  0.00    +0.000 A 
ATOM     32  H   UNL     1      52.250   3.404  18.559  0.00  0.00    +0.000 HD
ENDBRANCH  19  22
ENDBRANCH   1  20
TORSDOF 7
ENDMDL
MODEL 2
REMARK VINA RESULT:    -8.680      1.449      1.623
REMARK INTER + INTRA:         -13.243
REMARK INTER:                 -12.146
REMARK INTRA:                  -1.097
REMARK UNBOUND:                -1.011
REMARK  Name = 
REMARK  7 active torsions:
REMARK  status: ('A' for Active; 'I' for Inactive)
REMARK    1  A    between atoms: C_2  and  C_20
REMARK    2  A    between atoms: N_3  and  C_4
REMARK    3  A    between atoms: C_4  and  C_5
REMARK    4  A    between atoms: C_10  and  C_11
REMARK    5  A    between atoms: C_11  and  N_12
REMARK    6  A    between atoms: N_12  and  C_13
REMARK    7  A    between atoms: C_13  and  C_14
REMARK                            x       y       z     vdW  Elec       q    Type
REMARK                         _______ _______ _______ _____ _____    ______ ____
ROOT
ATOM      1  C   UNL     1      46.148   4.399  14.120  0.00  0.00    +0.000 C 
ENDROOT
BRANCH   1   2
ATOM      2  C   UNL     1      45.715   5.565  13.259  0.00  0.00    +0.000 A 
ATOM      3  C   UNL     1      46.582   6.678  13.204  0.00  0.00    +0.000 A 
ATOM      4  C   UNL     1      46.292   7.789  12.413  0.00  0.00    +0.000 A 
ATOM      5  C   UNL     1      45.141   7.802  11.638  0.00  0.00    +0.000 A 
ATOM      6  C   UNL     1      44.278   6.708  11.667  0.00  0.00    +0.000 A 
ATOM      7  C   UNL     1      44.535   5.583  12.481  0.00  0.00    +0.000 A 
BRANCH   7   8
ATOM      8  C   UNL     1      43.500   4.470  12.473  0.00  0.00    +0.000 C 
BRANCH   8   9
ATOM      9  N   UNL     1      43.233   3.875  11.158  0.00  0.00    +0.000 NA
ATOM     10  H   UNL     1      43.307   4.591  10.439  0.00  0.00    +0.000 HD
BRANCH   9  11
ATOM     11  C   UNL     1      44.123   2.765  10.815  0.00  0.00    +0.000 C 
BRANCH  11  12
ATOM     12  C   UNL     1      44.895   3.001   9.539  0.00  0.00    +0.000 A 
ATOM     13  C   UNL     1      45.467   1.955   8.808  0.00  0.00    +0.000 A 
ATOM     14  C   UNL     1      46.278   2.237   7.707  0.00  0.00    +0.000 A 
ATOM     15  C   UNL     1      46.488   3.561   7.368  0.00  0.00    +0.000 A 
ATOM     16  N   UNL     1      45.925   4.599   8.023  0.00  0.00    +0.000 NA
ATOM     17  C   UNL     1      45.142   4.295   9.084  0.00  0.00    +0.000 A 
ENDBRANCH  11  12
ENDBRANCH   9  11
ENDBRANCH   8   9
ENDBRANCH   7   8
ENDBRANCH   1   2
BRANCH   1  20
ATOM     18  O   UNL     1      46.519   3.545  16.737  0.00  0.00    +0.000 OA
ATOM     19  C   UNL     1      47.402   4.222  16.219  0.00  0.00    +0.000 C 
ATOM     20  N   UNL     1      47.280   4.739  14.951  0.00  0.00    +0.000 N 
ATOM     21  H   UNL     1      48.087   5.159  14.501  0.00  0.00    +0.000 HD
BRANCH  19  22
ATOM     22  C   UNL     1      48.630   4.542  16.947  0.00  0.00    +0.000 A 
ATOM     23  C   UNL     1      48.818   5.798  17.506  0.00  0.00    +0.000 A 
ATOM     24  S   UNL     1      50.279   5.952  18.374  0.00  0.00    +0.000 S 
ATOM     25  C   UNL     1      50.701   4.335  18.049  0.00  0.00    +0.000 A 
ATOM     26  N   UNL     1      51.842   3.792  18.561  0.00  0.00    +0.000 NA
ATOM     27  C   UNL     1      52.019   2.547  18.265  0.00  0.00    +0.000 A 
ATOM     28  N   UNL     1      51.169   1.801  17.488  0.00  0.00    +0.000 N 
ATOM     29  C   UNL     1      50.043   2.323  16.894  0.00  0.00    +0.000 A 
ATOM     30  O   UNL     1      49.371   1.667  16.107  0.00  0.00    +0.000 OA
ATOM     31  C   UNL     1      49.772   3.706  17.251  0.00  0.00    +0.000 A 
ATOM     32  H   UNL     1      51.386   0.841  17.258  0.00  0.00    +0.000 HD
ENDBRANCH  19  22
ENDBRANCH   1  20
TORSDOF 7
ENDMDL
MODEL 3
REMARK VINA RESULT:    -8.550      1.859      1.996
REMARK INTER + INTRA:         -13.059
REMARK INTER:                 -11.648
REMARK INTRA:                  -1.411
REMARK UNBOUND:                -1.011
REMARK  Name = 
REMARK  7 active torsions:
REMARK  status: ('A' for Active; 'I' for Inactive)
REMARK    1  A    between atoms: C_2  and  C_20
REMARK    2  A    between atoms: N_3  and  C_4
REMARK    3  A    between atoms: C_4  and  C_5
REMARK    4  A    between atoms: C_10  and  C_11
REMARK    5  A    between atoms: C_11  and  N_12
REMARK    6  A    between atoms: N_12  and  C_13
REMARK    7  A    between atoms: C_13  and  C_14
REMARK                            x       y       z     vdW  Elec       q    Type
REMARK                         _______ _______ _______ _____ _____    ______ ____
ROOT
ATOM      1  C   UNL     1      46.012   4.328  13.658  0.00  0.00    +0.000 C 
ENDROOT
BRANCH   1   2
ATOM      2  C   UNL     1      45.492   5.537  12.913  0.00  0.00    +0.000 A 
ATOM      3  C   UNL     1      46.368   6.637  12.785  0.00  0.00    +0.000 A 
ATOM      4  C   UNL     1      45.997   7.786  12.087  0.00  0.00    +0.000 A 
ATOM      5  C   UNL     1      44.752   7.852  11.478  0.00  0.00    +0.000 A 
ATOM      6  C   UNL     1      43.877   6.771  11.580  0.00  0.00    +0.000 A 
ATOM      7  C   UNL     1      44.218   5.608  12.305  0.00  0.00    +0.000 A 
BRANCH   7   8
ATOM      8  C   UNL     1      43.167   4.514  12.394  0.00  0.00    +0.000 C 
BRANCH   8   9
ATOM      9  N   UNL     1      42.971   3.735  11.165  0.00  0.00    +0.000 NA
ATOM     10  H   UNL     1      42.921   4.365  10.367  0.00  0.00    +0.000 HD
BRANCH   9  11
ATOM     11  C   UNL     1      44.014   2.739  10.917  0.00  0.00    +0.000 C 
BRANCH  11  12
ATOM     12  C   UNL     1      44.758   2.973   9.624  0.00  0.00    +0.000 A 
ATOM     13  C   UNL     1      45.429   1.947   8.952  0.00  0.00    +0.000 A 
ATOM     14  C   UNL     1      46.207   2.241   7.831  0.00  0.00    +0.000 A 
ATOM     15  C   UNL     1      46.286   3.557   7.413  0.00  0.00    +0.000 A 
ATOM     16  N   UNL     1      45.624   4.571   8.009  0.00  0.00    +0.000 NA
ATOM     17  C   UNL     1      44.877   4.256   9.092  0.00  0.00    +0.000 A 
ENDBRANCH  11  12
ENDBRANCH   9  11
ENDBRANCH   8   9
ENDBRANCH   7   8
ENDBRANCH   1   2
BRANCH   1  20
ATOM     18  O   UNL     1      47.784   2.761  15.114  0.00  0.00    +0.000 OA
ATOM     19  C   UNL     1      47.500   3.871  15.552  0.00  0.00    +0.000 C 
ATOM     20  N   UNL     1      46.587   4.691  14.932  0.00  0.00    +0.000 N 
ATOM     21  H   UNL     1      46.493   5.656  15.234  0.00  0.00    +0.000 HD
BRANCH  19  22
ATOM     22  C   UNL     1      48.101   4.369  16.789  0.00  0.00    +0.000 A 
ATOM     23  C   UNL     1      47.865   3.735  18.001  0.00  0.00    +0.000 A 
ATOM     24  S   UNL     1      48.712   4.423  19.313  0.00  0.00    +0.000 S 
ATOM     25  C   UNL     1      49.441   5.581  18.301  0.00  0.00    +0.000 A 
ATOM     26  N   UNL     1      50.348   6.471  18.794  0.00  0.00    +0.000 NA
ATOM     27  C   UNL     1      50.849   7.266  17.909  0.00  0.00    +0.000 A 
ATOM     28  N   UNL     1      50.512   7.267  16.579  0.00  0.00    +0.000 N 
ATOM     29  C   UNL     1      49.554   6.434  16.048  0.00  0.00    +0.000 A 
ATOM     30  O   UNL     1      49.187   6.540  14.884  0.00  0.00    +0.000 OA
ATOM     31  C   UNL     1      49.008   5.479  16.997  0.00  0.00    +0.000 A 
ATOM     32  H   UNL     1      50.910   7.944  15.944  0.00  0.00    +0.000 HD
ENDBRANCH  19  22
ENDBRANCH   1  20
TORSDOF 7
ENDMDL
MODEL 4
REMARK VINA RESULT:    -8.520      2.137      2.982
REMARK INTER + INTRA:         -13.017
REMARK INTER:                 -12.087
REMARK INTRA:                  -0.930
REMARK UNBOUND:                -1.011
REMARK  Name = 
REMARK  7 active torsions:
REMARK  status: ('A' for Active; 'I' for Inactive)
REMARK    1  A    between atoms: C_2  and  C_20
REMARK    2  A    between atoms: N_3  and  C_4
REMARK    3  A    between atoms: C_4  and  C_5
REMARK    4  A    between atoms: C_10  and  C_11
REMARK    5  A    between atoms: C_11  and  N_12
REMARK    6  A    between atoms: N_12  and  C_13
REMARK    7  A    between atoms: C_13  and  C_14
REMARK                            x       y       z     vdW  Elec       q    Type
REMARK                         _______ _______ _______ _____ _____    ______ ____
ROOT
ATOM      1  C   UNL     1      46.202   4.127  12.988  0.00  0.00    +0.000 C 
ENDROOT
BRANCH   1   2
ATOM      2  C   UNL     1      44.905   4.691  12.453  0.00  0.00    +0.000 A 
ATOM      3  C   UNL     1      43.762   4.554  13.270  0.00  0.00    +0.000 A 
ATOM      4  C   UNL     1      42.525   5.070  12.885  0.00  0.00    +0.000 A 
ATOM      5  C   UNL     1      42.408   5.758  11.686  0.00  0.00    +0.000 A 
ATOM      6  C   UNL     1      43.527   5.917  10.870  0.00  0.00    +0.000 A 
ATOM      7  C   UNL     1      44.784   5.380  11.224  0.00  0.00    +0.000 A 
BRANCH   7   8
ATOM      8  C   UNL     1      45.922   5.568  10.236  0.00  0.00    +0.000 C 
BRANCH   8   9
ATOM      9  N   UNL     1      45.556   5.405   8.824  0.00  0.00    +0.000 NA
ATOM     10  H   UNL     1      46.388   5.487   8.244  0.00  0.00    +0.000 HD
BRANCH   9  11
ATOM     11  C   UNL     1      44.893   4.136   8.523  0.00  0.00    +0.000 C 
BRANCH  11  12
ATOM     12  C   UNL     1      45.841   3.084   8.000  0.00  0.00    +0.000 A 
ATOM     13  C   UNL     1      46.708   3.326   6.929  0.00  0.00    +0.000 A 
ATOM     14  C   UNL     1      47.472   2.284   6.402  0.00  0.00    +0.000 A 
ATOM     15  C   UNL     1      47.348   1.027   6.967  0.00  0.00    +0.000 A 
ATOM     16  N   UNL     1      46.553   0.759   8.025  0.00  0.00    +0.000 NA
ATOM     17  C   UNL     1      45.826   1.789   8.516  0.00  0.00    +0.000 A 
ENDBRANCH  11  12
ENDBRANCH   9  11
ENDBRANCH   8   9
ENDBRANCH   7   8
ENDBRANCH   1   2
BRANCH   1  20
ATOM     18  O   UNL     1      47.700   2.873  14.963  0.00  0.00    +0.000 OA
ATOM     19  C   UNL     1      47.351   4.034  15.152  0.00  0.00    +0.000 C 
ATOM     20  N   UNL     1      46.559   4.715  14.258  0.00  0.00    +0.000 N 
ATOM     21  H   UNL     1      46.420   5.715  14.370  0.00  0.00    +0.000 HD
BRANCH  19  22
ATOM     22  C   UNL     1      47.741   4.750  16.367  0.00  0.00    +0.000 A 
ATOM     23  C   UNL     1      47.315   4.318  17.614  0.00  0.00    +0.000 A 
ATOM     24  S   UNL     1      47.934   5.241  18.909  0.00  0.00    +0.000 S 
ATOM     25  C   UNL     1      48.811   6.239  17.845  0.00  0.00    +0.000 A 
ATOM     26  N   UNL     1      49.620   7.229  18.319  0.00  0.00    +0.000 NA
ATOM     27  C   UNL     1      50.253   7.883  17.404  0.00  0.00    +0.000 A 
ATOM     28  N   UNL     1      50.136   7.652  16.056  0.00  0.00    +0.000 N 
ATOM     29  C   UNL     1      49.282   6.711  15.527  0.00  0.00    +0.000 A 
ATOM     30  O   UNL     1      49.108   6.611  14.319  0.00  0.00    +0.000 OA
ATOM     31  C   UNL     1      48.595   5.909  16.526  0.00  0.00    +0.000 A 
ATOM     32  H   UNL     1      50.628   8.228  15.387  0.00  0.00    +0.000 HD
ENDBRANCH  19  22
ENDBRANCH   1  20
TORSDOF 7
ENDMDL
MODEL 5
REMARK VINA RESULT:    -8.451      2.022      3.273
REMARK INTER + INTRA:         -12.919
REMARK INTER:                 -11.644
REMARK INTRA:                  -1.275
REMARK UNBOUND:                -1.011
REMARK  Name = 
REMARK  7 active torsions:
REMARK  status: ('A' for Active; 'I' for Inactive)
REMARK    1  A    between atoms: C_2  and  C_20
REMARK    2  A    between atoms: N_3  and  C_4
REMARK    3  A    between atoms: C_4  and  C_5
REMARK    4  A    between atoms: C_10  and  C_11
REMARK    5  A    between atoms: C_11  and  N_12
REMARK    6  A    between atoms: N_12  and  C_13
REMARK    7  A    between atoms: C_13  and  C_14
REMARK                            x       y       z     vdW  Elec       q    Type
REMARK                         _______ _______ _______ _____ _____    ______ ____
ROOT
ATOM      1  C   UNL     1      46.289   6.534  12.718  0.00  0.00    +0.000 C 
ENDROOT
BRANCH   1   2
ATOM      2  C   UNL     1      45.237   5.540  12.280  0.00  0.00    +0.000 A 
ATOM      3  C   UNL     1      44.352   5.065  13.271  0.00  0.00    +0.000 A 
ATOM      4  C   UNL     1      43.325   4.173  12.964  0.00  0.00    +0.000 A 
ATOM      5  C   UNL     1      43.143   3.756  11.653  0.00  0.00    +0.000 A 
ATOM      6  C   UNL     1      43.997   4.225  10.656  0.00  0.00    +0.000 A 
ATOM      7  C   UNL     1      45.061   5.106  10.946  0.00  0.00    +0.000 A 
BRANCH   7   8
ATOM      8  C   UNL     1      45.961   5.511   9.790  0.00  0.00    +0.000 C 
BRANCH   8   9
ATOM      9  N   UNL     1      45.481   5.121   8.459  0.00  0.00    +0.000 NA
ATOM     10  H   UNL     1      45.002   5.907   8.026  0.00  0.00    +0.000 HD
BRANCH   9  11
ATOM     11  C   UNL     1      46.536   4.654   7.559  0.00  0.00    +0.000 C 
BRANCH  11  12
ATOM     12  C   UNL     1      46.633   3.149   7.495  0.00  0.00    +0.000 A 
ATOM     13  C   UNL     1      45.759   2.313   8.198  0.00  0.00    +0.000 A 
ATOM     14  C   UNL     1      45.971   0.933   8.208  0.00  0.00    +0.000 A 
ATOM     15  C   UNL     1      47.053   0.430   7.508  0.00  0.00    +0.000 A 
ATOM     16  N   UNL     1      47.897   1.196   6.786  0.00  0.00    +0.000 NA
ATOM     17  C   UNL     1      47.666   2.529   6.793  0.00  0.00    +0.000 A 
ENDBRANCH  11  12
ENDBRANCH   9  11
ENDBRANCH   8   9
ENDBRANCH   7   8
ENDBRANCH   1   2
BRANCH   1  20
ATOM     18  O   UNL     1      48.964   6.642  13.460  0.00  0.00    +0.000 OA
ATOM     19  C   UNL     1      48.136   6.364  14.322  0.00  0.00    +0.000 C 
ATOM     20  N   UNL     1      46.798   6.229  14.035  0.00  0.00    +0.000 N 
ATOM     21  H   UNL     1      46.128   6.153  14.794  0.00  0.00    +0.000 HD
BRANCH  19  22
ATOM     22  C   UNL     1      48.541   6.129  15.708  0.00  0.00    +0.000 A 
ATOM     23  C   UNL     1      49.159   7.128  16.447  0.00  0.00    +0.000 A 
ATOM     24  S   UNL     1      49.487   6.683  18.062  0.00  0.00    +0.000 S 
ATOM     25  C   UNL     1      48.793   5.146  17.833  0.00  0.00    +0.000 A 
ATOM     26  N   UNL     1      48.698   4.259  18.864  0.00  0.00    +0.000 NA
ATOM     27  C   UNL     1      48.118   3.147  18.558  0.00  0.00    +0.000 A 
ATOM     28  N   UNL     1      47.641   2.832  17.310  0.00  0.00    +0.000 N 
ATOM     29  C   UNL     1      47.774   3.665  16.224  0.00  0.00    +0.000 A 
ATOM     30  O   UNL     1      47.449   3.308  15.099  0.00  0.00    +0.000 OA
ATOM     31  C   UNL     1      48.367   4.955  16.537  0.00  0.00    +0.000 A 
ATOM     32  H   UNL     1      47.233   1.926  17.126  0.00  0.00    +0.000 HD
ENDBRANCH  19  22
ENDBRANCH   1  20
TORSDOF 7
ENDMDL
MODEL 6
REMARK VINA RESULT:    -7.958      1.993      2.452
REMARK INTER + INTRA:         -12.225
REMARK INTER:                 -11.419
REMARK INTRA:                  -0.807
REMARK UNBOUND:                -1.011
REMARK  Name = 
REMARK  7 active torsions:
REMARK  status: ('A' for Active; 'I' for Inactive)
REMARK    1  A    between atoms: C_2  and  C_20
REMARK    2  A    between atoms: N_3  and  C_4
REMARK    3  A    between atoms: C_4  and  C_5
REMARK    4  A    between atoms: C_10  and  C_11
REMARK    5  A    between atoms: C_11  and  N_12
REMARK    6  A    between atoms: N_12  and  C_13
REMARK    7  A    between atoms: C_13  and  C_14
REMARK                            x       y       z     vdW  Elec       q    Type
REMARK                         _______ _______ _______ _____ _____    ______ ____
ROOT
ATOM      1  C   UNL     1      47.290   5.741  13.187  0.00  0.00    +0.000 C 
ENDROOT
BRANCH   1   2
ATOM      2  C   UNL     1      46.350   6.808  12.674  0.00  0.00    +0.000 A 
ATOM      3  C   UNL     1      46.482   8.100  13.227  0.00  0.00    +0.000 A 
ATOM      4  C   UNL     1      45.688   9.162  12.798  0.00  0.00    +0.000 A 
ATOM      5  C   UNL     1      44.760   8.963  11.785  0.00  0.00    +0.000 A 
ATOM      6  C   UNL     1      44.622   7.699  11.215  0.00  0.00    +0.000 A 
ATOM      7  C   UNL     1      45.395   6.601  11.651  0.00  0.00    +0.000 A 
BRANCH   7   8
ATOM      8  C   UNL     1      45.125   5.257  10.995  0.00  0.00    +0.000 C 
BRANCH   8   9
ATOM      9  N   UNL     1      45.266   5.237   9.534  0.00  0.00    +0.000 NA
ATOM     10  H   UNL     1      46.253   5.236   9.288  0.00  0.00    +0.000 HD
BRANCH   9  11
ATOM     11  C   UNL     1      44.616   4.096   8.888  0.00  0.00    +0.000 C 
BRANCH  11  12
ATOM     12  C   UNL     1      45.597   3.125   8.278  0.00  0.00    +0.000 A 
ATOM     13  C   UNL     1      46.462   3.489   7.241  0.00  0.00    +0.000 A 
ATOM     14  C   UNL     1      47.259   2.522   6.626  0.00  0.00    +0.000 A 
ATOM     15  C   UNL     1      47.169   1.216   7.074  0.00  0.00    +0.000 A 
ATOM     16  N   UNL     1      46.378   0.829   8.096  0.00  0.00    +0.000 NA
ATOM     17  C   UNL     1      45.618   1.788   8.674  0.00  0.00    +0.000 A 
ENDBRANCH  11  12
ENDBRANCH   9  11
ENDBRANCH   8   9
ENDBRANCH   7   8
ENDBRANCH   1   2
BRANCH   1  20
ATOM     18  O   UNL     1      49.590   6.798  14.332  0.00  0.00    +0.000 OA
ATOM     19  C   UNL     1      48.676   6.460  15.078  0.00  0.00    +0.000 C 
ATOM     20  N   UNL     1      47.526   5.873  14.606  0.00  0.00    +0.000 N 
ATOM     21  H   UNL     1      46.733   5.751  15.229  0.00  0.00    +0.000 HD
BRANCH  19  22
ATOM     22  C   UNL     1      48.779   6.639  16.526  0.00  0.00    +0.000 A 
ATOM     23  C   UNL     1      48.794   7.909  17.086  0.00  0.00    +0.000 A 
ATOM     24  S   UNL     1      48.845   7.906  18.792  0.00  0.00    +0.000 S 
ATOM     25  C   UNL     1      48.829   6.205  18.841  0.00  0.00    +0.000 A 
ATOM     26  N   UNL     1      48.804   5.538  20.029  0.00  0.00    +0.000 NA
ATOM     27  C   UNL     1      48.755   4.252  19.918  0.00  0.00    +0.000 A 
ATOM     28  N   UNL     1      48.750   3.572  18.726  0.00  0.00    +0.000 N 
ATOM     29  C   UNL     1      48.842   4.197  17.504  0.00  0.00    +0.000 A 
ATOM     30  O   UNL     1      48.958   3.559  16.465  0.00  0.00    +0.000 OA
ATOM     31  C   UNL     1      48.837   5.649  17.581  0.00  0.00    +0.000 A 
ATOM     32  H   UNL     1      48.753   2.561  18.707  0.00  0.00    +0.000 HD
ENDBRANCH  19  22
ENDBRANCH   1  20
TORSDOF 7
ENDMDL
MODEL 7
REMARK VINA RESULT:    -7.794      1.383      2.056
REMARK INTER + INTRA:         -11.994
REMARK INTER:                 -10.786
REMARK INTRA:                  -1.208
REMARK UNBOUND:                -1.011
REMARK  Name = 
REMARK  7 active torsions:
REMARK  status: ('A' for Active; 'I' for Inactive)
REMARK    1  A    between atoms: C_2  and  C_20
REMARK    2  A    between atoms: N_3  and  C_4
REMARK    3  A    between atoms: C_4  and  C_5
REMARK    4  A    between atoms: C_10  and  C_11
REMARK    5  A    between atoms: C_11  and  N_12
REMARK    6  A    between atoms: N_12  and  C_13
REMARK    7  A    between atoms: C_13  and  C_14
REMARK                            x       y       z     vdW  Elec       q    Type
REMARK                         _______ _______ _______ _____ _____    ______ ____
ROOT
ATOM      1  C   UNL     1      46.778   4.420  14.736  0.00  0.00    +0.000 C 
ENDROOT
BRANCH   1   2
ATOM      2  C   UNL     1      46.897   5.389  13.581  0.00  0.00    +0.000 A 
ATOM      3  C   UNL     1      48.048   6.205  13.544  0.00  0.00    +0.000 A 
ATOM      4  C   UNL     1      48.269   7.106  12.503  0.00  0.00    +0.000 A 
ATOM      5  C   UNL     1      47.357   7.194  11.461  0.00  0.00    +0.000 A 
ATOM      6  C   UNL     1      46.220   6.388  11.471  0.00  0.00    +0.000 A 
ATOM      7  C   UNL     1      45.959   5.487  12.527  0.00  0.00    +0.000 A 
BRANCH   7   8
ATOM      8  C   UNL     1      44.664   4.696  12.459  0.00  0.00    +0.000 C 
BRANCH   8   9
ATOM      9  N   UNL     1      44.074   4.576  11.120  0.00  0.00    +0.000 NA
ATOM     10  H   UNL     1      44.544   5.215  10.483  0.00  0.00    +0.000 HD
BRANCH   9  11
ATOM     11  C   UNL     1      44.130   3.224  10.563  0.00  0.00    +0.000 C 
BRANCH  11  12
ATOM     12  C   UNL     1      44.981   3.134   9.320  0.00  0.00    +0.000 A 
ATOM     13  C   UNL     1      45.511   1.923   8.863  0.00  0.00    +0.000 A 
ATOM     14  C   UNL     1      46.395   1.912   7.783  0.00  0.00    +0.000 A 
ATOM     15  C   UNL     1      46.720   3.118   7.188  0.00  0.00    +0.000 A 
ATOM     16  N   UNL     1      46.203   4.304   7.573  0.00  0.00    +0.000 NA
ATOM     17  C   UNL     1      45.347   4.284   8.621  0.00  0.00    +0.000 A 
ENDBRANCH  11  12
ENDBRANCH   9  11
ENDBRANCH   8   9
ENDBRANCH   7   8
ENDBRANCH   1   2
BRANCH   1  20
ATOM     18  O   UNL     1      48.405   2.780  16.278  0.00  0.00    +0.000 OA
ATOM     19  C   UNL     1      48.369   3.976  16.548  0.00  0.00    +0.000 C 
ATOM     20  N   UNL     1      47.548   4.853  15.879  0.00  0.00    +0.000 N 
ATOM     21  H   UNL     1      47.658   5.852  16.022  0.00  0.00    +0.000 HD
BRANCH  19  22
ATOM     22  C   UNL     1      49.184   4.531  17.629  0.00  0.00    +0.000 A 
ATOM     23  C   UNL     1      50.562   4.367  17.636  0.00  0.00    +0.000 A 
ATOM     24  S   UNL     1      51.340   5.147  18.940  0.00  0.00    +0.000 S 
ATOM     25  C   UNL     1      49.861   5.749  19.528  0.00  0.00    +0.000 A 
ATOM     26  N   UNL     1      49.820   6.564  20.621  0.00  0.00    +0.000 NA
ATOM     27  C   UNL     1      48.637   6.976  20.933  0.00  0.00    +0.000 A 
ATOM     28  N   UNL     1      47.488   6.633  20.266  0.00  0.00    +0.000 N 
ATOM     29  C   UNL     1      47.471   5.762  19.201  0.00  0.00    +0.000 A 
ATOM     30  O   UNL     1      46.419   5.380  18.703  0.00  0.00    +0.000 OA
ATOM     31  C   UNL     1      48.789   5.321  18.776  0.00  0.00    +0.000 A 
ATOM     32  H   UNL     1      46.586   6.958  20.587  0.00  0.00    +0.000 HD
ENDBRANCH  19  22
ENDBRANCH   1  20
TORSDOF 7
ENDMDL
MODEL 8
REMARK VINA RESULT:    -7.774      3.167      8.269
REMARK INTER + INTRA:         -11.966
REMARK INTER:                 -10.435
REMARK INTRA:                  -1.532
REMARK UNBOUND:                -1.011
REMARK  Name = 
REMARK  7 active torsions:
REMARK  status: ('A' for Active; 'I' for Inactive)
REMARK    1  A    between atoms: C_2  and  C_20
REMARK    2  A    between atoms: N_3  and  C_4
REMARK    3  A    between atoms: C_4  and  C_5
REMARK    4  A    between atoms: C_10  and  C_11
REMARK    5  A    between atoms: C_11  and  N_12
REMARK    6  A    between atoms: N_12  and  C_13
REMARK    7  A    between atoms: C_13  and  C_14
REMARK                            x       y       z     vdW  Elec       q    Type
REMARK                         _______ _______ _______ _____ _____    ______ ____
ROOT
ATOM      1  C   UNL     1      48.956   6.248  15.927  0.00  0.00    +0.000 C 
ENDROOT
BRANCH   1   2
ATOM      2  C   UNL     1      48.579   6.404  17.383  0.00  0.00    +0.000 A 
ATOM      3  C   UNL     1      49.052   7.556  18.048  0.00  0.00    +0.000 A 
ATOM      4  C   UNL     1      48.731   7.811  19.381  0.00  0.00    +0.000 A 
ATOM      5  C   UNL     1      47.908   6.933  20.073  0.00  0.00    +0.000 A 
ATOM      6  C   UNL     1      47.419   5.797  19.431  0.00  0.00    +0.000 A 
ATOM      7  C   UNL     1      47.752   5.501  18.091  0.00  0.00    +0.000 A 
BRANCH   7   8
ATOM      8  C   UNL     1      47.204   4.209  17.509  0.00  0.00    +0.000 C 
BRANCH   8   9
ATOM      9  N   UNL     1      47.939   2.995  17.885  0.00  0.00    +0.000 NA
ATOM     10  H   UNL     1      47.280   2.248  18.091  0.00  0.00    +0.000 HD
BRANCH   9  11
ATOM     11  C   UNL     1      48.880   2.528  16.866  0.00  0.00    +0.000 C 
BRANCH  11  12
ATOM     12  C   UNL     1      50.310   2.509  17.349  0.00  0.00    +0.000 A 
ATOM     13  C   UNL     1      50.956   3.658  17.816  0.00  0.00    +0.000 A 
ATOM     14  C   UNL     1      52.316   3.614  18.130  0.00  0.00    +0.000 A 
ATOM     15  C   UNL     1      52.988   2.415  17.970  0.00  0.00    +0.000 A 
ATOM     16  N   UNL     1      52.395   1.275  17.559  0.00  0.00    +0.000 NA
ATOM     17  C   UNL     1      51.076   1.347  17.264  0.00  0.00    +0.000 A 
ENDBRANCH  11  12
ENDBRANCH   9  11
ENDBRANCH   8   9
ENDBRANCH   7   8
ENDBRANCH   1   2
BRANCH   1  20
ATOM     18  O   UNL     1      49.012   6.446  13.157  0.00  0.00    +0.000 OA
ATOM     19  C   UNL     1      47.925   6.287  13.703  0.00  0.00    +0.000 C 
ATOM     20  N   UNL     1      47.793   6.238  15.071  0.00  0.00    +0.000 N 
ATOM     21  H   UNL     1      46.909   5.952  15.479  0.00  0.00    +0.000 HD
BRANCH  19  22
ATOM     22  C   UNL     1      46.696   6.171  12.917  0.00  0.00    +0.000 A 
ATOM     23  C   UNL     1      46.156   7.277  12.276  0.00  0.00    +0.000 A 
ATOM     24  S   UNL     1      44.765   6.923  11.352  0.00  0.00    +0.000 S 
ATOM     25  C   UNL     1      44.850   5.273  11.763  0.00  0.00    +0.000 A 
ATOM     26  N   UNL     1      43.962   4.376  11.248  0.00  0.00    +0.000 NA
ATOM     27  C   UNL     1      44.166   3.155  11.614  0.00  0.00    +0.000 A 
ATOM     28  N   UNL     1      45.165   2.751  12.464  0.00  0.00    +0.000 N 
ATOM     29  C   UNL     1      46.042   3.627  13.061  0.00  0.00    +0.000 A 
ATOM     30  O   UNL     1      46.844   3.253  13.908  0.00  0.00    +0.000 OA
ATOM     31  C   UNL     1      45.887   5.006  12.628  0.00  0.00    +0.000 A 
ATOM     32  H   UNL     1      45.246   1.783  12.744  0.00  0.00    +0.000 HD
ENDBRANCH  19  22
ENDBRANCH   1  20
TORSDOF 7
ENDMDL
MODEL 9
REMARK VINA RESULT:    -7.620      3.448      8.100
REMARK INTER + INTRA:         -11.750
REMARK INTER:                  -9.605
REMARK INTRA:                  -2.145
REMARK UNBOUND:                -1.011
REMARK  Name = 
REMARK  7 active torsions:
REMARK  status: ('A' for Active; 'I' for Inactive)
REMARK    1  A    between atoms: C_2  and  C_20
REMARK    2  A    between atoms: N_3  and  C_4
REMARK    3  A    between atoms: C_4  and  C_5
REMARK    4  A    between atoms: C_10  and  C_11
REMARK    5  A    between atoms: C_11  and  N_12
REMARK    6  A    between atoms: N_12  and  C_13
REMARK    7  A    between atoms: C_13  and  C_14
REMARK                            x       y       z     vdW  Elec       q    Type
REMARK                         _______ _______ _______ _____ _____    ______ ____
ROOT
ATOM      1  C   UNL     1      47.238   3.323  16.870  0.00  0.00    +0.000 C 
ENDROOT
BRANCH   1   2
ATOM      2  C   UNL     1      48.614   3.504  17.472  0.00  0.00    +0.000 A 
ATOM      3  C   UNL     1      49.637   2.653  17.001  0.00  0.00    +0.000 A 
ATOM      4  C   UNL     1      50.947   2.762  17.465  0.00  0.00    +0.000 A 
ATOM      5  C   UNL     1      51.270   3.741  18.394  0.00  0.00    +0.000 A 
ATOM      6  C   UNL     1      50.278   4.601  18.862  0.00  0.00    +0.000 A 
ATOM      7  C   UNL     1      48.939   4.494  18.428  0.00  0.00    +0.000 A 
BRANCH   7   8
ATOM      8  C   UNL     1      47.931   5.449  19.045  0.00  0.00    +0.000 C 
BRANCH   8   9
ATOM      9  N   UNL     1      47.499   6.548  18.173  0.00  0.00    +0.000 NA
ATOM     10  H   UNL     1      46.592   6.890  18.480  0.00  0.00    +0.000 HD
BRANCH   9  11
ATOM     11  C   UNL     1      48.436   7.671  18.121  0.00  0.00    +0.000 C 
BRANCH  11  12
ATOM     12  C   UNL     1      48.964   7.934  16.731  0.00  0.00    +0.000 A 
ATOM     13  C   UNL     1      49.995   7.175  16.168  0.00  0.00    +0.000 A 
ATOM     14  C   UNL     1      50.534   7.540  14.933  0.00  0.00    +0.000 A 
ATOM     15  C   UNL     1      50.019   8.653  14.294  0.00  0.00    +0.000 A 
ATOM     16  N   UNL     1      48.999   9.390  14.784  0.00  0.00    +0.000 NA
ATOM     17  C   UNL     1      48.496   9.012  15.982  0.00  0.00    +0.000 A 
ENDBRANCH  11  12
ENDBRANCH   9  11
ENDBRANCH   8   9
ENDBRANCH   7   8
ENDBRANCH   1   2
BRANCH   1  20
ATOM     18  O   UNL     1      47.268   3.100  14.101  0.00  0.00    +0.000 OA
ATOM     19  C   UNL     1      46.904   4.164  14.591  0.00  0.00    +0.000 C 
ATOM     20  N   UNL     1      46.913   4.386  15.948  0.00  0.00    +0.000 N 
ATOM     21  H   UNL     1      46.462   5.215  16.324  0.00  0.00    +0.000 HD
BRANCH  19  22
ATOM     22  C   UNL     1      46.465   5.273  13.744  0.00  0.00    +0.000 A 
ATOM     23  C   UNL     1      47.290   6.366  13.521  0.00  0.00    +0.000 A 
ATOM     24  S   UNL     1      46.629   7.518  12.449  0.00  0.00    +0.000 S 
ATOM     25  C   UNL     1      45.224   6.582  12.229  0.00  0.00    +0.000 A 
ATOM     26  N   UNL     1      44.245   6.979  11.368  0.00  0.00    +0.000 NA
ATOM     27  C   UNL     1      43.255   6.156  11.272  0.00  0.00    +0.000 A 
ATOM     28  N   UNL     1      43.144   4.982  11.974  0.00  0.00    +0.000 N 
ATOM     29  C   UNL     1      44.072   4.573  12.903  0.00  0.00    +0.000 A 
ATOM     30  O   UNL     1      43.887   3.584  13.602  0.00  0.00    +0.000 OA
ATOM     31  C   UNL     1      45.235   5.439  12.999  0.00  0.00    +0.000 A 
ATOM     32  H   UNL     1      42.322   4.401  11.884  0.00  0.00    +0.000 HD
ENDBRANCH  19  22
ENDBRANCH   1  20
TORSDOF 7
ENDMDL
