MODEL 1
REMARK VINA RESULT:    -8.740      0.000      0.000
REMARK INTER + INTRA:         -13.399
REMARK INTER:                 -12.317
REMARK INTRA:                  -1.082
REMARK UNBOUND:                -1.082
REMARK  Name = 
REMARK  8 active torsions:
REMARK  status: ('A' for Active; 'I' for Inactive)
REMARK    1  A    between atoms: C_1  and  C_2
REMARK    2  A    between atoms: C_2  and  N_3
REMARK    3  A    between atoms: C_2  and  C_11
REMARK    4  A    between atoms: N_3  and  C_4
REMARK    5  A    between atoms: C_4  and  C_5
REMARK    6  A    between atoms: C_14  and  C_15
REMARK    7  A    between atoms: C_15  and  N_16
REMARK    8  A    between atoms: C_17  and  C_19
REMARK                            x       y       z     vdW  Elec       q    Type
REMARK                         _______ _______ _______ _____ _____    ______ ____
ROOT
ATOM      1  C   UNL     1      45.454   4.593  12.036  0.00  0.00    +0.000 A 
ATOM      2  C   UNL     1      45.949   5.762  11.426  0.00  0.00    +0.000 A 
ATOM      3  C   UNL     1      46.897   6.564  12.066  0.00  0.00    +0.000 A 
ATOM      4  C   UNL     1      47.421   6.176  13.302  0.00  0.00    +0.000 A 
ATOM      5  C   UNL     1      46.917   5.026  13.923  0.00  0.00    +0.000 A 
ATOM      6  C   UNL     1      45.940   4.249  13.302  0.00  0.00    +0.000 A 
ENDROOT
BRANCH   1   8
ATOM      7  C   UNL     1      43.608   4.641  10.285  0.00  0.00    +0.000 C 
ATOM      8  C   UNL     1      44.339   3.809  11.352  0.00  0.00    +0.000 C 
BRANCH   8   9
ATOM      9  N   UNL     1      44.835   2.562  10.733  0.00  0.00    +0.000 NA
ATOM     10  H   UNL     1      44.431   1.768  11.226  0.00  0.00    +0.000 HD
BRANCH   9  11
ATOM     11  C   UNL     1      44.455   2.463   9.318  0.00  0.00    +0.000 C 
BRANCH  11  12
ATOM     12  C   UNL     1      45.613   2.440   8.353  0.00  0.00    +0.000 A 
ATOM     13  C   UNL     1      46.272   1.220   8.114  0.00  0.00    +0.000 A 
ATOM     14  C   UNL     1      47.282   1.131   7.159  0.00  0.00    +0.000 A 
ATOM     15  C   UNL     1      47.642   2.262   6.429  0.00  0.00    +0.000 A 
ATOM     16  C   UNL     1      46.998   3.478   6.660  0.00  0.00    +0.000 A 
ATOM     17  C   UNL     1      45.984   3.566   7.613  0.00  0.00    +0.000 A 
ENDBRANCH  11  12
ENDBRANCH   9  11
ENDBRANCH   8   9
ENDBRANCH   1   8
BRANCH   4  18
ATOM     18  C   UNL     1      48.503   6.974  13.977  0.00  0.00    +0.000 C 
BRANCH  18  19
ATOM     19  N   UNL     1      48.251   7.126  15.385  0.00  0.00    +0.000 N 
ATOM     20  C   UNL     1      49.156   6.676  16.311  0.00  0.00    +0.000 C 
ATOM     21  O   UNL     1      50.225   6.166  15.986  0.00  0.00    +0.000 OA
ATOM     22  H   UNL     1      47.288   7.281  15.667  0.00  0.00    +0.000 HD
BRANCH  20  23
ATOM     23  C   UNL     1      48.810   6.904  17.717  0.00  0.00    +0.000 A 
ATOM     24  C   UNL     1      48.547   8.192  18.162  0.00  0.00    +0.000 A 
ATOM     25  S   UNL     1      48.103   8.268  19.807  0.00  0.00    +0.000 S 
ATOM     26  C   UNL     1      48.304   6.587  19.995  0.00  0.00    +0.000 A 
ATOM     27  N   UNL     1      48.101   5.987  21.198  0.00  0.00    +0.000 NA
ATOM     28  C   UNL     1      48.309   4.712  21.200  0.00  0.00    +0.000 A 
ATOM     29  N   UNL     1      48.695   3.983  20.109  0.00  0.00    +0.000 N 
ATOM     30  C   UNL     1      48.883   4.540  18.862  0.00  0.00    +0.000 A 
ATOM     31  O   UNL     1      49.182   3.848  17.894  0.00  0.00    +0.000 OA
ATOM     32  C   UNL     1      48.678   5.975  18.811  0.00  0.00    +0.000 A 
ATOM     33  H   UNL     1      48.831   2.978  20.174  0.00  0.00    +0.000 HD
ENDBRANCH  20  23
ENDBRANCH  18  19
ENDBRANCH   4  18
TORSDOF 7
ENDMDL
MODEL 2
REMARK VINA RESULT:    -8.505      1.417      2.141
REMARK INTER + INTRA:         -13.067
REMARK INTER:                 -11.839
REMARK INTRA:                  -1.227
REMARK UNBOUND:                -1.082
REMARK  Name = 
REMARK  8 active torsions:
REMARK  status: ('A' for Active; 'I' for Inactive)
REMARK    1  A    between atoms: C_1  and  C_2
REMARK    2  A    between atoms: C_2  and  N_3
REMARK    3  A    between atoms: C_2  and  C_11
REMARK    4  A    between atoms: N_3  and  C_4
REMARK    5  A    between atoms: C_4  and  C_5
REMARK    6  A    between atoms: C_14  and  C_15
REMARK    7  A    between atoms: C_15  and  N_16
REMARK    8  A    between atoms: C_17  and  C_19
REMARK                            x       y       z     vdW  Elec       q    Type
REMARK                         _______ _______ _______ _____ _____    ______ ____
ROOT
ATOM      1  C   UNL     1      45.414   4.541  12.006  0.00  0.00    +0.000 A 
ATOM      2  C   UNL     1      45.897   5.748  11.465  0.00  0.00    +0.000 A 
ATOM      3  C   UNL     1      46.806   6.542  12.166  0.00  0.00    +0.000 A 
ATOM      4  C   UNL     1      47.305   6.110  13.399  0.00  0.00    +0.000 A 
ATOM      5  C   UNL     1      46.813   4.922  13.952  0.00  0.00    +0.000 A 
ATOM      6  C   UNL     1      45.873   4.151  13.270  0.00  0.00    +0.000 A 
ENDROOT
BRANCH   1   8
ATOM      7  C   UNL     1      43.604   4.630  10.221  0.00  0.00    +0.000 C 
ATOM      8  C   UNL     1      44.339   3.763  11.256  0.00  0.00    +0.000 C 
BRANCH   8   9
ATOM      9  N   UNL     1      44.885   2.568  10.581  0.00  0.00    +0.000 NA
ATOM     10  H   UNL     1      44.528   1.735  11.047  0.00  0.00    +0.000 HD
BRANCH   9  11
ATOM     11  C   UNL     1      44.489   2.506   9.168  0.00  0.00    +0.000 C 
BRANCH  11  12
ATOM     12  C   UNL     1      45.637   2.462   8.192  0.00  0.00    +0.000 A 
ATOM     13  C   UNL     1      46.407   1.288   8.103  0.00  0.00    +0.000 A 
ATOM     14  C   UNL     1      47.414   1.167   7.149  0.00  0.00    +0.000 A 
ATOM     15  C   UNL     1      47.660   2.218   6.269  0.00  0.00    +0.000 A 
ATOM     16  C   UNL     1      46.906   3.389   6.349  0.00  0.00    +0.000 A 
ATOM     17  C   UNL     1      45.895   3.509   7.303  0.00  0.00    +0.000 A 
ENDBRANCH  11  12
ENDBRANCH   9  11
ENDBRANCH   8   9
ENDBRANCH   1   8
BRANCH   4  18
ATOM     18  C   UNL     1      48.348   6.902  14.139  0.00  0.00    +0.000 C 
BRANCH  18  19
ATOM     19  N   UNL     1      48.107   6.903  15.557  0.00  0.00    +0.000 N 
ATOM     20  C   UNL     1      49.083   6.505  16.434  0.00  0.00    +0.000 C 
ATOM     21  O   UNL     1      50.203   6.172  16.057  0.00  0.00    +0.000 OA
ATOM     22  H   UNL     1      47.138   6.902  15.860  0.00  0.00    +0.000 HD
BRANCH  20  23
ATOM     23  C   UNL     1      48.738   6.568  17.857  0.00  0.00    +0.000 A 
ATOM     24  C   UNL     1      48.940   5.457  18.664  0.00  0.00    +0.000 A 
ATOM     25  S   UNL     1      48.541   5.723  20.302  0.00  0.00    +0.000 S 
ATOM     26  C   UNL     1      48.031   7.315  19.976  0.00  0.00    +0.000 A 
ATOM     27  N   UNL     1      47.539   8.109  20.963  0.00  0.00    +0.000 NA
ATOM     28  C   UNL     1      47.172   9.284  20.570  0.00  0.00    +0.000 A 
ATOM     29  N   UNL     1      47.257   9.737  19.283  0.00  0.00    +0.000 N 
ATOM     30  C   UNL     1      47.777   8.981  18.253  0.00  0.00    +0.000 A 
ATOM     31  O   UNL     1      47.883   9.437  17.120  0.00  0.00    +0.000 OA
ATOM     32  C   UNL     1      48.188   7.646  18.641  0.00  0.00    +0.000 A 
ATOM     33  H   UNL     1      46.961  10.678  19.040  0.00  0.00    +0.000 HD
ENDBRANCH  20  23
ENDBRANCH  18  19
ENDBRANCH   4  18
TORSDOF 7
ENDMDL
MODEL 3
REMARK VINA RESULT:    -8.382      0.691      1.120
REMARK INTER + INTRA:         -12.893
REMARK INTER:                 -11.681
REMARK INTRA:                  -1.213
REMARK UNBOUND:                -1.082
REMARK  Name = 
REMARK  8 active torsions:
REMARK  status: ('A' for Active; 'I' for Inactive)
REMARK    1  A    between atoms: C_1  and  C_2
REMARK    2  A    between atoms: C_2  and  N_3
REMARK    3  A    between atoms: C_2  and  C_11
REMARK    4  A    between atoms: N_3  and  C_4
REMARK    5  A    between atoms: C_4  and  C_5
REMARK    6  A    between atoms: C_14  and  C_15
REMARK    7  A    between atoms: C_15  and  N_16
REMARK    8  A    between atoms: C_17  and  C_19
REMARK                            x       y       z     vdW  Elec       q    Type
REMARK                         _______ _______ _______ _____ _____    ______ ____
ROOT
ATOM      1  C   UNL     1      45.455   4.550  12.144  0.00  0.00    +0.000 A 
ATOM      2  C   UNL     1      45.999   5.695  11.530  0.00  0.00    +0.000 A 
ATOM      3  C   UNL     1      46.941   6.487  12.187  0.00  0.00    +0.000 A 
ATOM      4  C   UNL     1      47.412   6.113  13.449  0.00  0.00    +0.000 A 
ATOM      5  C   UNL     1      46.860   4.988  14.073  0.00  0.00    +0.000 A 
ATOM      6  C   UNL     1      45.888   4.221  13.434  0.00  0.00    +0.000 A 
ENDROOT
BRANCH   1   8
ATOM      7  C   UNL     1      43.527   4.667  10.488  0.00  0.00    +0.000 C 
ATOM      8  C   UNL     1      44.347   3.777  11.436  0.00  0.00    +0.000 C 
BRANCH   8   9
ATOM      9  N   UNL     1      44.871   2.622  10.679  0.00  0.00    +0.000 NA
ATOM     10  H   UNL     1      44.536   1.764  11.114  0.00  0.00    +0.000 HD
BRANCH   9  11
ATOM     11  C   UNL     1      44.420   2.631   9.281  0.00  0.00    +0.000 C 
BRANCH  11  12
ATOM     12  C   UNL     1      45.520   2.474   8.261  0.00  0.00    +0.000 A 
ATOM     13  C   UNL     1      45.899   3.591   7.495  0.00  0.00    +0.000 A 
ATOM     14  C   UNL     1      46.973   3.518   6.612  0.00  0.00    +0.000 A 
ATOM     15  C   UNL     1      47.684   2.326   6.488  0.00  0.00    +0.000 A 
ATOM     16  C   UNL     1      47.315   1.210   7.240  0.00  0.00    +0.000 A 
ATOM     17  C   UNL     1      46.241   1.284   8.127  0.00  0.00    +0.000 A 
ENDBRANCH  11  12
ENDBRANCH   9  11
ENDBRANCH   8   9
ENDBRANCH   1   8
BRANCH   4  18
ATOM     18  C   UNL     1      48.487   6.900  14.146  0.00  0.00    +0.000 C 
BRANCH  18  19
ATOM     19  N   UNL     1      48.381   6.794  15.576  0.00  0.00    +0.000 N 
ATOM     20  C   UNL     1      48.961   7.731  16.392  0.00  0.00    +0.000 C 
ATOM     21  O   UNL     1      49.555   8.709  15.946  0.00  0.00    +0.000 OA
ATOM     22  H   UNL     1      48.149   5.882  15.955  0.00  0.00    +0.000 HD
BRANCH  20  23
ATOM     23  C   UNL     1      48.771   7.539  17.833  0.00  0.00    +0.000 A 
ATOM     24  C   UNL     1      48.396   8.613  18.628  0.00  0.00    +0.000 A 
ATOM     25  S   UNL     1      48.161   8.200  20.266  0.00  0.00    +0.000 S 
ATOM     26  C   UNL     1      48.610   6.583  19.979  0.00  0.00    +0.000 A 
ATOM     27  N   UNL     1      48.647   5.675  20.991  0.00  0.00    +0.000 NA
ATOM     28  C   UNL     1      49.023   4.492  20.634  0.00  0.00    +0.000 A 
ATOM     29  N   UNL     1      49.360   4.134  19.358  0.00  0.00    +0.000 N 
ATOM     30  C   UNL     1      49.309   5.008  18.293  0.00  0.00    +0.000 A 
ATOM     31  O   UNL     1      49.573   4.640  17.154  0.00  0.00    +0.000 OA
ATOM     32  C   UNL     1      48.908   6.356  18.647  0.00  0.00    +0.000 A 
ATOM     33  H   UNL     1      49.638   3.181  19.139  0.00  0.00    +0.000 HD
ENDBRANCH  20  23
ENDBRANCH  18  19
ENDBRANCH   4  18
TORSDOF 7
ENDMDL
MODEL 4
REMARK VINA RESULT:    -7.613      2.445      2.999
REMARK INTER + INTRA:         -11.809
REMARK INTER:                 -10.486
REMARK INTRA:                  -1.324
REMARK UNBOUND:                -1.082
REMARK  Name = 
REMARK  8 active torsions:
REMARK  status: ('A' for Active; 'I' for Inactive)
REMARK    1  A    between atoms: C_1  and  C_2
REMARK    2  A    between atoms: C_2  and  N_3
REMARK    3  A    between atoms: C_2  and  C_11
REMARK    4  A    between atoms: N_3  and  C_4
REMARK    5  A    between atoms: C_4  and  C_5
REMARK    6  A    between atoms: C_14  and  C_15
REMARK    7  A    between atoms: C_15  and  N_16
REMARK    8  A    between atoms: C_17  and  C_19
REMARK                            x       y       z     vdW  Elec       q    Type
REMARK                         _______ _______ _______ _____ _____    ______ ____
ROOT
ATOM      1  C   UNL     1      45.915   4.974  12.993  0.00  0.00    +0.000 A 
ATOM      2  C   UNL     1      46.137   6.025  12.082  0.00  0.00    +0.000 A 
ATOM      3  C   UNL     1      47.131   6.978  12.307  0.00  0.00    +0.000 A 
ATOM      4  C   UNL     1      47.973   6.861  13.417  0.00  0.00    +0.000 A 
ATOM      5  C   UNL     1      47.745   5.831  14.337  0.00  0.00    +0.000 A 
ATOM      6  C   UNL     1      46.724   4.904  14.134  0.00  0.00    +0.000 A 
ENDROOT
BRANCH   1   8
ATOM      7  C   UNL     1      43.485   4.749  12.276  0.00  0.00    +0.000 C 
ATOM      8  C   UNL     1      44.747   4.021  12.765  0.00  0.00    +0.000 C 
BRANCH   8   9
ATOM      9  N   UNL     1      45.084   2.946  11.808  0.00  0.00    +0.000 NA
ATOM     10  H   UNL     1      44.876   2.047  12.238  0.00  0.00    +0.000 HD
BRANCH   9  11
ATOM     11  C   UNL     1      44.304   3.051  10.568  0.00  0.00    +0.000 C 
BRANCH  11  12
ATOM     12  C   UNL     1      45.123   3.022   9.303  0.00  0.00    +0.000 A 
ATOM     13  C   UNL     1      45.455   4.240   8.682  0.00  0.00    +0.000 A 
ATOM     14  C   UNL     1      46.290   4.268   7.568  0.00  0.00    +0.000 A 
ATOM     15  C   UNL     1      46.806   3.076   7.064  0.00  0.00    +0.000 A 
ATOM     16  C   UNL     1      46.481   1.861   7.668  0.00  0.00    +0.000 A 
ATOM     17  C   UNL     1      45.647   1.834   8.786  0.00  0.00    +0.000 A 
ENDBRANCH  11  12
ENDBRANCH   9  11
ENDBRANCH   8   9
ENDBRANCH   1   8
BRANCH   4  18
ATOM     18  C   UNL     1      49.106   7.825  13.642  0.00  0.00    +0.000 C 
BRANCH  18  19
ATOM     19  N   UNL     1      50.213   7.196  14.312  0.00  0.00    +0.000 N 
ATOM     20  C   UNL     1      50.469   7.454  15.634  0.00  0.00    +0.000 C 
ATOM     21  O   UNL     1      49.753   8.191  16.307  0.00  0.00    +0.000 OA
ATOM     22  H   UNL     1      50.953   6.822  13.727  0.00  0.00    +0.000 HD
BRANCH  20  23
ATOM     23  C   UNL     1      51.608   6.743  16.222  0.00  0.00    +0.000 A 
ATOM     24  C   UNL     1      52.888   7.261  16.088  0.00  0.00    +0.000 A 
ATOM     25  S   UNL     1      54.084   6.339  16.883  0.00  0.00    +0.000 S 
ATOM     26  C   UNL     1      52.937   5.185  17.385  0.00  0.00    +0.000 A 
ATOM     27  N   UNL     1      53.311   4.094  18.105  0.00  0.00    +0.000 NA
ATOM     28  C   UNL     1      52.341   3.292  18.401  0.00  0.00    +0.000 A 
ATOM     29  N   UNL     1      51.034   3.486  18.048  0.00  0.00    +0.000 N 
ATOM     30  C   UNL     1      50.602   4.591  17.346  0.00  0.00    +0.000 A 
ATOM     31  O   UNL     1      49.414   4.756  17.088  0.00  0.00    +0.000 OA
ATOM     32  C   UNL     1      51.657   5.514  16.975  0.00  0.00    +0.000 A 
ATOM     33  H   UNL     1      50.315   2.822  18.322  0.00  0.00    +0.000 HD
ENDBRANCH  20  23
ENDBRANCH  18  19
ENDBRANCH   4  18
TORSDOF 7
ENDMDL
MODEL 5
REMARK VINA RESULT:    -7.426      3.963      9.849
REMARK INTER + INTRA:         -11.547
REMARK INTER:                  -9.526
REMARK INTRA:                  -2.021
REMARK UNBOUND:                -1.082
REMARK  Name = 
REMARK  8 active torsions:
REMARK  status: ('A' for Active; 'I' for Inactive)
REMARK    1  A    between atoms: C_1  and  C_2
REMARK    2  A    between atoms: C_2  and  N_3
REMARK    3  A    between atoms: C_2  and  C_11
REMARK    4  A    between atoms: N_3  and  C_4
REMARK    5  A    between atoms: C_4  and  C_5
REMARK    6  A    between atoms: C_14  and  C_15
REMARK    7  A    between atoms: C_15  and  N_16
REMARK    8  A    between atoms: C_17  and  C_19
REMARK                            x       y       z     vdW  Elec       q    Type
REMARK                         _______ _______ _______ _____ _____    ______ ____
ROOT
ATOM      1  C   UNL     1      51.157   5.038  17.783  0.00  0.00    +0.000 A 
ATOM      2  C   UNL     1      50.804   3.687  17.965  0.00  0.00    +0.000 A 
ATOM      3  C   UNL     1      49.546   3.212  17.591  0.00  0.00    +0.000 A 
ATOM      4  C   UNL     1      48.635   4.066  16.962  0.00  0.00    +0.000 A 
ATOM      5  C   UNL     1      48.972   5.415  16.796  0.00  0.00    +0.000 A 
ATOM      6  C   UNL     1      50.213   5.898  17.209  0.00  0.00    +0.000 A 
ENDROOT
BRANCH   1   8
ATOM      7  C   UNL     1      52.859   6.928  17.761  0.00  0.00    +0.000 C 
ATOM      8  C   UNL     1      52.499   5.537  18.307  0.00  0.00    +0.000 C 
BRANCH   8   9
ATOM      9  N   UNL     1      52.541   5.573  19.783  0.00  0.00    +0.000 NA
ATOM     10  H   UNL     1      53.510   5.675  20.082  0.00  0.00    +0.000 HD
BRANCH   9  11
ATOM     11  C   UNL     1      51.775   6.702  20.327  0.00  0.00    +0.000 C 
BRANCH  11  12
ATOM     12  C   UNL     1      50.353   6.376  20.706  0.00  0.00    +0.000 A 
ATOM     13  C   UNL     1      49.342   7.310  20.416  0.00  0.00    +0.000 A 
ATOM     14  C   UNL     1      48.004   7.011  20.658  0.00  0.00    +0.000 A 
ATOM     15  C   UNL     1      47.661   5.771  21.192  0.00  0.00    +0.000 A 
ATOM     16  C   UNL     1      48.654   4.837  21.488  0.00  0.00    +0.000 A 
ATOM     17  C   UNL     1      49.994   5.135  21.241  0.00  0.00    +0.000 A 
ENDBRANCH  11  12
ENDBRANCH   9  11
ENDBRANCH   8   9
ENDBRANCH   1   8
BRANCH   4  18
ATOM     18  C   UNL     1      47.304   3.564  16.472  0.00  0.00    +0.000 C 
BRANCH  18  19
ATOM     19  N   UNL     1      46.683   4.498  15.573  0.00  0.00    +0.000 N 
ATOM     20  C   UNL     1      46.793   4.342  14.215  0.00  0.00    +0.000 C 
ATOM     21  O   UNL     1      47.385   3.391  13.712  0.00  0.00    +0.000 OA
ATOM     22  H   UNL     1      46.440   5.409  15.949  0.00  0.00    +0.000 HD
BRANCH  20  23
ATOM     23  C   UNL     1      46.101   5.339  13.392  0.00  0.00    +0.000 A 
ATOM     24  C   UNL     1      46.718   6.549  13.111  0.00  0.00    +0.000 A 
ATOM     25  S   UNL     1      45.799   7.564  12.093  0.00  0.00    +0.000 S 
ATOM     26  C   UNL     1      44.519   6.442  12.040  0.00  0.00    +0.000 A 
ATOM     27  N   UNL     1      43.383   6.708  11.342  0.00  0.00    +0.000 NA
ATOM     28  C   UNL     1      42.488   5.777  11.406  0.00  0.00    +0.000 A 
ATOM     29  N   UNL     1      42.628   4.606  12.098  0.00  0.00    +0.000 N 
ATOM     30  C   UNL     1      43.772   4.278  12.794  0.00  0.00    +0.000 A 
ATOM     31  O   UNL     1      43.882   3.197  13.363  0.00  0.00    +0.000 OA
ATOM     32  C   UNL     1      44.802   5.299  12.767  0.00  0.00    +0.000 A 
ATOM     33  H   UNL     1      41.890   3.909  12.099  0.00  0.00    +0.000 HD
ENDBRANCH  20  23
ENDBRANCH  18  19
ENDBRANCH   4  18
TORSDOF 7
ENDMDL
MODEL 6
REMARK VINA RESULT:    -7.372      3.647      8.667
REMARK INTER + INTRA:         -11.470
REMARK INTER:                  -9.115
REMARK INTRA:                  -2.355
REMARK UNBOUND:                -1.082
REMARK  Name = 
REMARK  8 active torsions:
REMARK  status: ('A' for Active; 'I' for Inactive)
REMARK    1  A    between atoms: C_1  and  C_2
REMARK    2  A    between atoms: C_2  and  N_3
REMARK    3  A    between atoms: C_2  and  C_11
REMARK    4  A    between atoms: N_3  and  C_4
REMARK    5  A    between atoms: C_4  and  C_5
REMARK    6  A    between atoms: C_14  and  C_15
REMARK    7  A    between atoms: C_15  and  N_16
REMARK    8  A    between atoms: C_17  and  C_19
REMARK                            x       y       z     vdW  Elec       q    Type
REMARK                         _______ _______ _______ _____ _____    ______ ____
ROOT
ATOM      1  C   UNL     1      50.223   6.672  18.594  0.00  0.00    +0.000 A 
ATOM      2  C   UNL     1      50.746   6.199  17.375  0.00  0.00    +0.000 A 
ATOM      3  C   UNL     1      50.212   6.610  16.153  0.00  0.00    +0.000 A 
ATOM      4  C   UNL     1      49.185   7.559  16.122  0.00  0.00    +0.000 A 
ATOM      5  C   UNL     1      48.647   8.017  17.330  0.00  0.00    +0.000 A 
ATOM      6  C   UNL     1      49.153   7.574  18.551  0.00  0.00    +0.000 A 
ENDROOT
BRANCH   1   8
ATOM      7  C   UNL     1      50.235   6.879  21.130  0.00  0.00    +0.000 C 
ATOM      8  C   UNL     1      50.763   6.113  19.906  0.00  0.00    +0.000 C 
BRANCH   8   9
ATOM      9  N   UNL     1      50.454   4.677  20.068  0.00  0.00    +0.000 NA
ATOM     10  H   UNL     1      50.781   4.371  20.983  0.00  0.00    +0.000 HD
BRANCH   9  11
ATOM     11  C   UNL     1      49.011   4.413  19.986  0.00  0.00    +0.000 C 
BRANCH  11  12
ATOM     12  C   UNL     1      48.540   3.883  18.655  0.00  0.00    +0.000 A 
ATOM     13  C   UNL     1      47.418   4.475  18.049  0.00  0.00    +0.000 A 
ATOM     14  C   UNL     1      47.007   4.084  16.777  0.00  0.00    +0.000 A 
ATOM     15  C   UNL     1      47.717   3.098  16.095  0.00  0.00    +0.000 A 
ATOM     16  C   UNL     1      48.829   2.500  16.688  0.00  0.00    +0.000 A 
ATOM     17  C   UNL     1      49.243   2.894  17.961  0.00  0.00    +0.000 A 
ENDBRANCH  11  12
ENDBRANCH   9  11
ENDBRANCH   8   9
ENDBRANCH   1   8
BRANCH   4  18
ATOM     18  C   UNL     1      48.646   8.083  14.819  0.00  0.00    +0.000 C 
BRANCH  18  19
ATOM     19  N   UNL     1      47.566   7.272  14.326  0.00  0.00    +0.000 N 
ATOM     20  C   UNL     1      47.777   6.362  13.321  0.00  0.00    +0.000 C 
ATOM     21  O   UNL     1      48.887   6.174  12.832  0.00  0.00    +0.000 OA
ATOM     22  H   UNL     1      46.623   7.598  14.509  0.00  0.00    +0.000 HD
BRANCH  20  23
ATOM     23  C   UNL     1      46.612   5.572  12.911  0.00  0.00    +0.000 A 
ATOM     24  C   UNL     1      46.624   4.194  13.070  0.00  0.00    +0.000 A 
ATOM     25  S   UNL     1      45.168   3.440  12.597  0.00  0.00    +0.000 S 
ATOM     26  C   UNL     1      44.494   4.925  12.109  0.00  0.00    +0.000 A 
ATOM     27  N   UNL     1      43.246   4.986  11.575  0.00  0.00    +0.000 NA
ATOM     28  C   UNL     1      42.869   6.174  11.231  0.00  0.00    +0.000 A 
ATOM     29  N   UNL     1      43.626   7.304  11.378  0.00  0.00    +0.000 N 
ATOM     30  C   UNL     1      44.883   7.298  11.943  0.00  0.00    +0.000 A 
ATOM     31  O   UNL     1      45.514   8.338  12.103  0.00  0.00    +0.000 OA
ATOM     32  C   UNL     1      45.358   5.984  12.330  0.00  0.00    +0.000 A 
ATOM     33  H   UNL     1      43.267   8.212  11.098  0.00  0.00    +0.000 HD
ENDBRANCH  20  23
ENDBRANCH  18  19
ENDBRANCH   4  18
TORSDOF 7
ENDMDL
MODEL 7
REMARK VINA RESULT:    -7.274      2.471      3.215
REMARK INTER + INTRA:         -11.332
REMARK INTER:                  -9.863
REMARK INTRA:                  -1.468
REMARK UNBOUND:                -1.082
REMARK  Name = 
REMARK  8 active torsions:
REMARK  status: ('A' for Active; 'I' for Inactive)
REMARK    1  A    between atoms: C_1  and  C_2
REMARK    2  A    between atoms: C_2  and  N_3
REMARK    3  A    between atoms: C_2  and  C_11
REMARK    4  A    between atoms: N_3  and  C_4
REMARK    5  A    between atoms: C_4  and  C_5
REMARK    6  A    between atoms: C_14  and  C_15
REMARK    7  A    between atoms: C_15  and  N_16
REMARK    8  A    between atoms: C_17  and  C_19
REMARK                            x       y       z     vdW  Elec       q    Type
REMARK                         _______ _______ _______ _____ _____    ______ ____
ROOT
ATOM      1  C   UNL     1      45.501   5.017  12.021  0.00  0.00    +0.000 A 
ATOM      2  C   UNL     1      46.025   5.841  11.007  0.00  0.00    +0.000 A 
ATOM      3  C   UNL     1      46.977   6.821  11.293  0.00  0.00    +0.000 A 
ATOM      4  C   UNL     1      47.477   6.953  12.592  0.00  0.00    +0.000 A 
ATOM      5  C   UNL     1      46.944   6.151  13.609  0.00  0.00    +0.000 A 
ATOM      6  C   UNL     1      45.963   5.201  13.330  0.00  0.00    +0.000 A 
ENDROOT
BRANCH   1   8
ATOM      7  C   UNL     1      43.294   4.670  10.805  0.00  0.00    +0.000 C 
ATOM      8  C   UNL     1      44.384   4.035  11.684  0.00  0.00    +0.000 C 
BRANCH   8   9
ATOM      9  N   UNL     1      44.893   2.820  11.016  0.00  0.00    +0.000 NA
ATOM     10  H   UNL     1      44.600   2.004  11.551  0.00  0.00    +0.000 HD
BRANCH   9  11
ATOM     11  C   UNL     1      44.370   2.683   9.651  0.00  0.00    +0.000 C 
BRANCH  11  12
ATOM     12  C   UNL     1      45.424   2.595   8.577  0.00  0.00    +0.000 A 
ATOM     13  C   UNL     1      45.816   3.772   7.913  0.00  0.00    +0.000 A 
ATOM     14  C   UNL     1      46.853   3.755   6.984  0.00  0.00    +0.000 A 
ATOM     15  C   UNL     1      47.514   2.559   6.711  0.00  0.00    +0.000 A 
ATOM     16  C   UNL     1      47.133   1.385   7.359  0.00  0.00    +0.000 A 
ATOM     17  C   UNL     1      46.096   1.403   8.293  0.00  0.00    +0.000 A 
ENDBRANCH  11  12
ENDBRANCH   9  11
ENDBRANCH   8   9
ENDBRANCH   1   8
BRANCH   4  18
ATOM     18  C   UNL     1      48.562   7.943  12.914  0.00  0.00    +0.000 C 
BRANCH  18  19
ATOM     19  N   UNL     1      49.285   7.572  14.100  0.00  0.00    +0.000 N 
ATOM     20  C   UNL     1      49.294   8.390  15.200  0.00  0.00    +0.000 C 
ATOM     21  O   UNL     1      48.663   9.443  15.237  0.00  0.00    +0.000 OA
ATOM     22  H   UNL     1      50.014   6.874  13.996  0.00  0.00    +0.000 HD
BRANCH  20  23
ATOM     23  C   UNL     1      50.044   7.903  16.362  0.00  0.00    +0.000 A 
ATOM     24  C   UNL     1      49.386   7.686  17.565  0.00  0.00    +0.000 A 
ATOM     25  S   UNL     1      50.396   7.064  18.791  0.00  0.00    +0.000 S 
ATOM     26  C   UNL     1      51.759   7.119  17.772  0.00  0.00    +0.000 A 
ATOM     27  N   UNL     1      52.984   6.736  18.220  0.00  0.00    +0.000 NA
ATOM     28  C   UNL     1      53.931   6.848  17.347  0.00  0.00    +0.000 A 
ATOM     29  N   UNL     1      53.761   7.301  16.068  0.00  0.00    +0.000 N 
ATOM     30  C   UNL     1      52.535   7.671  15.558  0.00  0.00    +0.000 A 
ATOM     31  O   UNL     1      52.412   8.027  14.391  0.00  0.00    +0.000 OA
ATOM     32  C   UNL     1      51.442   7.579  16.506  0.00  0.00    +0.000 A 
ATOM     33  H   UNL     1      54.546   7.355  15.425  0.00  0.00    +0.000 HD
ENDBRANCH  20  23
ENDBRANCH  18  19
ENDBRANCH   4  18
TORSDOF 7
ENDMDL
MODEL 8
REMARK VINA RESULT:    -7.229      3.827      5.281
REMARK INTER + INTRA:         -11.268
REMARK INTER:                 -10.168
REMARK INTRA:                  -1.100
REMARK UNBOUND:                -1.082
REMARK  Name = 
REMARK  8 active torsions:
REMARK  status: ('A' for Active; 'I' for Inactive)
REMARK    1  A    between atoms: C_1  and  C_2
REMARK    2  A    between atoms: C_2  and  N_3
REMARK    3  A    between atoms: C_2  and  C_11
REMARK    4  A    between atoms: N_3  and  C_4
REMARK    5  A    between atoms: C_4  and  C_5
REMARK    6  A    between atoms: C_14  and  C_15
REMARK    7  A    between atoms: C_15  and  N_16
REMARK    8  A    between atoms: C_17  and  C_19
REMARK                            x       y       z     vdW  Elec       q    Type
REMARK                         _______ _______ _______ _____ _____    ______ ____
ROOT
ATOM      1  C   UNL     1      45.576   5.047  11.840  0.00  0.00    +0.000 A 
ATOM      2  C   UNL     1      46.338   6.144  11.393  0.00  0.00    +0.000 A 
ATOM      3  C   UNL     1      47.266   6.767  12.229  0.00  0.00    +0.000 A 
ATOM      4  C   UNL     1      47.501   6.263  13.511  0.00  0.00    +0.000 A 
ATOM      5  C   UNL     1      46.732   5.186  13.969  0.00  0.00    +0.000 A 
ATOM      6  C   UNL     1      45.776   4.591  13.148  0.00  0.00    +0.000 A 
ENDROOT
BRANCH   1   8
ATOM      7  C   UNL     1      43.090   4.962  11.308  0.00  0.00    +0.000 C 
ATOM      8  C   UNL     1      44.496   4.468  10.932  0.00  0.00    +0.000 C 
BRANCH   8   9
ATOM      9  N   UNL     1      44.746   4.768   9.507  0.00  0.00    +0.000 NA
ATOM     10  H   UNL     1      45.739   4.960   9.381  0.00  0.00    +0.000 HD
BRANCH   9  11
ATOM     11  C   UNL     1      44.385   3.641   8.637  0.00  0.00    +0.000 C 
BRANCH  11  12
ATOM     12  C   UNL     1      45.553   2.949   7.981  0.00  0.00    +0.000 A 
ATOM     13  C   UNL     1      45.869   1.636   8.372  0.00  0.00    +0.000 A 
ATOM     14  C   UNL     1      46.876   0.923   7.726  0.00  0.00    +0.000 A 
ATOM     15  C   UNL     1      47.577   1.517   6.678  0.00  0.00    +0.000 A 
ATOM     16  C   UNL     1      47.275   2.821   6.284  0.00  0.00    +0.000 A 
ATOM     17  C   UNL     1      46.264   3.533   6.929  0.00  0.00    +0.000 A 
ENDBRANCH  11  12
ENDBRANCH   9  11
ENDBRANCH   8   9
ENDBRANCH   1   8
BRANCH   4  18
ATOM     18  C   UNL     1      48.553   6.861  14.405  0.00  0.00    +0.000 C 
BRANCH  18  19
ATOM     19  N   UNL     1      49.680   7.340  13.652  0.00  0.00    +0.000 N 
ATOM     20  C   UNL     1      49.909   8.685  13.514  0.00  0.00    +0.000 C 
ATOM     21  O   UNL     1      49.195   9.528  14.051  0.00  0.00    +0.000 OA
ATOM     22  H   UNL     1      50.101   6.695  12.991  0.00  0.00    +0.000 HD
BRANCH  20  23
ATOM     23  C   UNL     1      51.099   9.063  12.746  0.00  0.00    +0.000 A 
ATOM     24  C   UNL     1      50.956   9.734  11.540  0.00  0.00    +0.000 A 
ATOM     25  S   UNL     1      52.441  10.149  10.810  0.00  0.00    +0.000 S 
ATOM     26  C   UNL     1      53.325   9.394  12.053  0.00  0.00    +0.000 A 
ATOM     27  N   UNL     1      54.684   9.363  12.028  0.00  0.00    +0.000 NA
ATOM     28  C   UNL     1      55.223   8.741  13.024  0.00  0.00    +0.000 A 
ATOM     29  N   UNL     1      54.527   8.152  14.043  0.00  0.00    +0.000 N 
ATOM     30  C   UNL     1      53.151   8.183  14.130  0.00  0.00    +0.000 A 
ATOM     31  O   UNL     1      52.563   7.686  15.085  0.00  0.00    +0.000 OA
ATOM     32  C   UNL     1      52.498   8.857  13.025  0.00  0.00    +0.000 A 
ATOM     33  H   UNL     1      55.011   7.686  14.806  0.00  0.00    +0.000 HD
ENDBRANCH  20  23
ENDBRANCH  18  19
ENDBRANCH   4  18
TORSDOF 7
ENDMDL
MODEL 9
REMARK VINA RESULT:    -7.228      3.535      8.933
REMARK INTER + INTRA:         -11.268
REMARK INTER:                  -9.481
REMARK INTRA:                  -1.787
REMARK UNBOUND:                -1.082
REMARK  Name = 
REMARK  8 active torsions:
REMARK  status: ('A' for Active; 'I' for Inactive)
REMARK    1  A    between atoms: C_1  and  C_2
REMARK    2  A    between atoms: C_2  and  N_3
REMARK    3  A    between atoms: C_2  and  C_11
REMARK    4  A    between atoms: N_3  and  C_4
REMARK    5  A    between atoms: C_4  and  C_5
REMARK    6  A    between atoms: C_14  and  C_15
REMARK    7  A    between atoms: C_15  and  N_16
REMARK    8  A    between atoms: C_17  and  C_19
REMARK                            x       y       z     vdW  Elec       q    Type
REMARK                         _______ _______ _______ _____ _____    ______ ____
ROOT
ATOM      1  C   UNL     1      49.744   8.268  15.625  0.00  0.00    +0.000 A 
ATOM      2  C   UNL     1      48.421   8.722  15.457  0.00  0.00    +0.000 A 
ATOM      3  C   UNL     1      47.795   8.676  14.209  0.00  0.00    +0.000 A 
ATOM      4  C   UNL     1      48.457   8.112  13.115  0.00  0.00    +0.000 A 
ATOM      5  C   UNL     1      49.779   7.678  13.271  0.00  0.00    +0.000 A 
ATOM      6  C   UNL     1      50.418   7.762  14.507  0.00  0.00    +0.000 A 
ENDROOT
BRANCH   1   8
ATOM      7  C   UNL     1      50.208   9.840  17.570  0.00  0.00    +0.000 C 
ATOM      8  C   UNL     1      50.426   8.438  16.978  0.00  0.00    +0.000 C 
BRANCH   8   9
ATOM      9  N   UNL     1      49.979   7.427  17.958  0.00  0.00    +0.000 NA
ATOM     10  H   UNL     1      48.985   7.252  17.820  0.00  0.00    +0.000 HD
BRANCH   9  11
ATOM     11  C   UNL     1      50.693   6.154  17.799  0.00  0.00    +0.000 C 
BRANCH  11  12
ATOM     12  C   UNL     1      49.827   4.991  17.387  0.00  0.00    +0.000 A 
ATOM     13  C   UNL     1      50.304   3.684  17.596  0.00  0.00    +0.000 A 
ATOM     14  C   UNL     1      49.500   2.580  17.323  0.00  0.00    +0.000 A 
ATOM     15  C   UNL     1      48.207   2.772  16.839  0.00  0.00    +0.000 A 
ATOM     16  C   UNL     1      47.725   4.063  16.624  0.00  0.00    +0.000 A 
ATOM     17  C   UNL     1      48.529   5.169  16.902  0.00  0.00    +0.000 A 
ENDBRANCH  11  12
ENDBRANCH   9  11
ENDBRANCH   8   9
ENDBRANCH   1   8
BRANCH   4  18
ATOM     18  C   UNL     1      47.780   7.973  11.779  0.00  0.00    +0.000 C 
BRANCH  18  19
ATOM     19  N   UNL     1      47.051   6.738  11.678  0.00  0.00    +0.000 N 
ATOM     20  C   UNL     1      45.690   6.713  11.836  0.00  0.00    +0.000 C 
ATOM     21  O   UNL     1      45.035   7.734  12.029  0.00  0.00    +0.000 OA
ATOM     22  H   UNL     1      47.580   5.880  11.798  0.00  0.00    +0.000 HD
BRANCH  20  23
ATOM     23  C   UNL     1      45.046   5.404  11.691  0.00  0.00    +0.000 A 
ATOM     24  C   UNL     1      44.370   4.845  12.766  0.00  0.00    +0.000 A 
ATOM     25  S   UNL     1      43.631   3.350  12.405  0.00  0.00    +0.000 S 
ATOM     26  C   UNL     1      44.238   3.373  10.814  0.00  0.00    +0.000 A 
ATOM     27  N   UNL     1      43.988   2.350   9.955  0.00  0.00    +0.000 NA
ATOM     28  C   UNL     1      44.526   2.490   8.788  0.00  0.00    +0.000 A 
ATOM     29  N   UNL     1      45.285   3.560   8.403  0.00  0.00    +0.000 N 
ATOM     30  C   UNL     1      45.540   4.635   9.227  0.00  0.00    +0.000 A 
ATOM     31  O   UNL     1      46.185   5.601   8.832  0.00  0.00    +0.000 OA
ATOM     32  C   UNL     1      44.971   4.518  10.555  0.00  0.00    +0.000 A 
ATOM     33  H   UNL     1      45.671   3.616   7.465  0.00  0.00    +0.000 HD
ENDBRANCH  20  23
ENDBRANCH  18  19
ENDBRANCH   4  18
TORSDOF 7
ENDMDL
