MODEL 1
REMARK VINA RESULT:    -7.409      0.000      0.000
REMARK INTER + INTRA:         -13.640
REMARK INTER:                 -11.957
REMARK INTRA:                  -1.684
REMARK UNBOUND:                -1.684
REMARK  Name = 
REMARK  11 active torsions:
REMARK  status: ('A' for Active; 'I' for Inactive)
REMARK    1  A    between atoms: N_1  and  C_2
REMARK    2  A    between atoms: C_2  and  C_3
REMARK    3  A    between atoms: C_3  and  S_4
REMARK    4  A    between atoms: S_4  and  N_7
REMARK    5  A    between atoms: N_7  and  C_8
REMARK    6  A    between atoms: C_12  and  C_13
REMARK    7  A    between atoms: C_13  and  O_14
REMARK    8  A    between atoms: O_14  and  C_15
REMARK    9  A    between atoms: C_18  and  C_19
REMARK   10  A    between atoms: C_19  and  N_20
REMARK   11  A    between atoms: C_21  and  C_23
REMARK                            x       y       z     vdW  Elec       q    Type
REMARK                         _______ _______ _______ _____ _____    ______ ____
ROOT
ATOM      1  C   UNL     1      49.778   8.250  15.291  0.00  0.00    +0.000 A 
ATOM      2  C   UNL     1      50.443   8.066  14.085  0.00  0.00    +0.000 A 
ATOM      3  N   UNL     1      49.793   7.995  12.891  0.00  0.00    +0.000 NA
ATOM      4  C   UNL     1      48.436   8.089  12.953  0.00  0.00    +0.000 A 
ATOM      5  C   UNL     1      47.785   8.270  14.170  0.00  0.00    +0.000 A 
ATOM      6  N   UNL     1      48.436   8.345  15.356  0.00  0.00    +0.000 NA
ENDROOT
BRANCH   1   7
ATOM      7  O   UNL     1      50.516   8.235  16.453  0.00  0.00    +0.000 OA
BRANCH   7   8
ATOM      8  C   UNL     1      51.725   7.483  16.339  0.00  0.00    +0.000 C 
BRANCH   8  13
ATOM      9  C   UNL     1      50.166   4.362  17.872  0.00  0.00    +0.000 A 
ATOM     10  C   UNL     1      51.282   3.565  18.104  0.00  0.00    +0.000 A 
ATOM     11  C   UNL     1      52.552   4.064  17.815  0.00  0.00    +0.000 A 
ATOM     12  C   UNL     1      52.694   5.346  17.278  0.00  0.00    +0.000 A 
ATOM     13  C   UNL     1      51.569   6.146  17.027  0.00  0.00    +0.000 A 
ATOM     14  C   UNL     1      50.300   5.646  17.341  0.00  0.00    +0.000 A 
BRANCH   9  15
ATOM     15  N   UNL     1      48.860   3.855  18.080  0.00  0.00    +0.000 N 
ATOM     16  H   UNL     1      48.380   4.188  18.909  0.00  0.00    +0.000 HD
BRANCH  15  17
ATOM     17  S   UNL     1      47.964   3.311  16.772  0.00  0.00    +0.000 S 
ATOM     18  O   UNL     1      46.651   2.967  17.278  0.00  0.00    +0.000 OA
ATOM     19  O   UNL     1      48.739   2.360  16.005  0.00  0.00    +0.000 OA
BRANCH  17  20
ATOM     20  C   UNL     1      47.780   4.786  15.770  0.00  0.00    +0.000 C 
BRANCH  20  21
ATOM     21  C   UNL     1      46.845   4.560  14.592  0.00  0.00    +0.000 C 
BRANCH  21  22
ATOM     22  N   UNL     1      47.095   3.276  13.934  0.00  0.00    +0.000 NA
ATOM     23  H   UNL     1      47.844   2.786  14.428  0.00  0.00    +0.000 HD
ATOM     24  H   UNL     1      47.452   3.435  12.991  0.00  0.00    +0.000 HD
ENDBRANCH  21  22
ENDBRANCH  20  21
ENDBRANCH  17  20
ENDBRANCH  15  17
ENDBRANCH   9  15
ENDBRANCH   8  13
ENDBRANCH   7   8
ENDBRANCH   1   7
BRANCH   4  25
ATOM     25  C   UNL     1      47.644   7.990  11.672  0.00  0.00    +0.000 C 
BRANCH  25  26
ATOM     26  N   UNL     1      46.884   6.762  11.565  0.00  0.00    +0.000 N 
ATOM     27  C   UNL     1      45.514   6.752  11.537  0.00  0.00    +0.000 C 
ATOM     28  O   UNL     1      44.862   7.793  11.575  0.00  0.00    +0.000 OA
ATOM     29  H   UNL     1      47.402   5.891  11.606  0.00  0.00    +0.000 HD
BRANCH  27  30
ATOM     30  C   UNL     1      44.860   5.445  11.405  0.00  0.00    +0.000 A 
ATOM     31  C   UNL     1      44.080   4.963  12.447  0.00  0.00    +0.000 A 
ATOM     32  S   UNL     1      43.400   3.431  12.140  0.00  0.00    +0.000 S 
ATOM     33  C   UNL     1      44.158   3.338  10.620  0.00  0.00    +0.000 A 
ATOM     34  N   UNL     1      44.019   2.235   9.838  0.00  0.00    +0.000 NA
ATOM     35  C   UNL     1      44.676   2.282   8.727  0.00  0.00    +0.000 A 
ATOM     36  N   UNL     1      45.451   3.339   8.324  0.00  0.00    +0.000 N 
ATOM     37  C   UNL     1      45.580   4.495   9.058  0.00  0.00    +0.000 A 
ATOM     38  O   UNL     1      46.206   5.459   8.628  0.00  0.00    +0.000 OA
ATOM     39  C   UNL     1      44.892   4.476  10.335  0.00  0.00    +0.000 A 
ATOM     40  H   UNL     1      45.920   3.320   7.431  0.00  0.00    +0.000 HD
ENDBRANCH  27  30
ENDBRANCH  25  26
ENDBRANCH   4  25
TORSDOF 11
ENDMDL
MODEL 2
REMARK VINA RESULT:    -7.263      1.837      2.418
REMARK INTER + INTRA:         -13.406
REMARK INTER:                 -11.648
REMARK INTRA:                  -1.757
REMARK UNBOUND:                -1.684
REMARK  Name = 
REMARK  11 active torsions:
REMARK  status: ('A' for Active; 'I' for Inactive)
REMARK    1  A    between atoms: N_1  and  C_2
REMARK    2  A    between atoms: C_2  and  C_3
REMARK    3  A    between atoms: C_3  and  S_4
REMARK    4  A    between atoms: S_4  and  N_7
REMARK    5  A    between atoms: N_7  and  C_8
REMARK    6  A    between atoms: C_12  and  C_13
REMARK    7  A    between atoms: C_13  and  O_14
REMARK    8  A    between atoms: O_14  and  C_15
REMARK    9  A    between atoms: C_18  and  C_19
REMARK   10  A    between atoms: C_19  and  N_20
REMARK   11  A    between atoms: C_21  and  C_23
REMARK                            x       y       z     vdW  Elec       q    Type
REMARK                         _______ _______ _______ _____ _____    ______ ____
ROOT
ATOM      1  C   UNL     1      49.693   8.637  15.606  0.00  0.00    +0.000 A 
ATOM      2  C   UNL     1      50.000   7.464  14.927  0.00  0.00    +0.000 A 
ATOM      3  N   UNL     1      49.525   7.191  13.681  0.00  0.00    +0.000 NA
ATOM      4  C   UNL     1      48.701   8.133  13.146  0.00  0.00    +0.000 A 
ATOM      5  C   UNL     1      48.401   9.302  13.841  0.00  0.00    +0.000 A 
ATOM      6  N   UNL     1      48.879   9.572  15.079  0.00  0.00    +0.000 NA
ENDROOT
BRANCH   1   7
ATOM      7  O   UNL     1      50.162   8.789  16.891  0.00  0.00    +0.000 OA
BRANCH   7   8
ATOM      8  C   UNL     1      49.182   9.317  17.786  0.00  0.00    +0.000 C 
BRANCH   8  13
ATOM      9  C   UNL     1      47.464   6.167  19.071  0.00  0.00    +0.000 A 
ATOM     10  C   UNL     1      47.945   6.086  20.375  0.00  0.00    +0.000 A 
ATOM     11  C   UNL     1      48.785   7.088  20.857  0.00  0.00    +0.000 A 
ATOM     12  C   UNL     1      49.155   8.151  20.029  0.00  0.00    +0.000 A 
ATOM     13  C   UNL     1      48.685   8.228  18.709  0.00  0.00    +0.000 A 
ATOM     14  C   UNL     1      47.824   7.229  18.240  0.00  0.00    +0.000 A 
BRANCH   9  15
ATOM     15  N   UNL     1      46.674   5.127  18.527  0.00  0.00    +0.000 N 
ATOM     16  H   UNL     1      45.678   5.311  18.459  0.00  0.00    +0.000 HD
BRANCH  15  17
ATOM     17  S   UNL     1      47.375   4.006  17.496  0.00  0.00    +0.000 S 
ATOM     18  O   UNL     1      47.781   4.727  16.307  0.00  0.00    +0.000 OA
ATOM     19  O   UNL     1      46.537   2.830  17.404  0.00  0.00    +0.000 OA
BRANCH  17  20
ATOM     20  C   UNL     1      48.867   3.536  18.370  0.00  0.00    +0.000 C 
BRANCH  20  21
ATOM     21  C   UNL     1      49.960   3.068  17.420  0.00  0.00    +0.000 C 
BRANCH  21  22
ATOM     22  N   UNL     1      49.474   2.046  16.490  0.00  0.00    +0.000 NA
ATOM     23  H   UNL     1      50.016   2.095  15.624  0.00  0.00    +0.000 HD
ATOM     24  H   UNL     1      48.513   2.254  16.218  0.00  0.00    +0.000 HD
ENDBRANCH  21  22
ENDBRANCH  20  21
ENDBRANCH  17  20
ENDBRANCH  15  17
ENDBRANCH   9  15
ENDBRANCH   8  13
ENDBRANCH   7   8
ENDBRANCH   1   7
BRANCH   4  25
ATOM     25  C   UNL     1      48.111   7.887  11.778  0.00  0.00    +0.000 C 
BRANCH  25  26
ATOM     26  N   UNL     1      47.254   6.721  11.728  0.00  0.00    +0.000 N 
ATOM     27  C   UNL     1      45.888   6.818  11.754  0.00  0.00    +0.000 C 
ATOM     28  O   UNL     1      45.321   7.907  11.796  0.00  0.00    +0.000 OA
ATOM     29  H   UNL     1      47.705   5.813  11.768  0.00  0.00    +0.000 HD
BRANCH  27  30
ATOM     30  C   UNL     1      45.130   5.564  11.677  0.00  0.00    +0.000 A 
ATOM     31  C   UNL     1      44.422   5.123  12.787  0.00  0.00    +0.000 A 
ATOM     32  S   UNL     1      43.604   3.649  12.536  0.00  0.00    +0.000 S 
ATOM     33  C   UNL     1      44.201   3.525  10.948  0.00  0.00    +0.000 A 
ATOM     34  N   UNL     1      43.904   2.448  10.174  0.00  0.00    +0.000 NA
ATOM     35  C   UNL     1      44.451   2.465   9.004  0.00  0.00    +0.000 A 
ATOM     36  N   UNL     1      45.259   3.469   8.535  0.00  0.00    +0.000 N 
ATOM     37  C   UNL     1      45.544   4.601   9.262  0.00  0.00    +0.000 A 
ATOM     38  O   UNL     1      46.194   5.524   8.781  0.00  0.00    +0.000 OA
ATOM     39  C   UNL     1      44.985   4.612  10.601  0.00  0.00    +0.000 A 
ATOM     40  H   UNL     1      45.636   3.431   7.600  0.00  0.00    +0.000 HD
ENDBRANCH  27  30
ENDBRANCH  25  26
ENDBRANCH   4  25
TORSDOF 11
ENDMDL
MODEL 3
REMARK VINA RESULT:    -6.726      2.431      8.671
REMARK INTER + INTRA:         -12.538
REMARK INTER:                 -11.703
REMARK INTRA:                  -0.835
REMARK UNBOUND:                -1.684
REMARK  Name = 
REMARK  11 active torsions:
REMARK  status: ('A' for Active; 'I' for Inactive)
REMARK    1  A    between atoms: N_1  and  C_2
REMARK    2  A    between atoms: C_2  and  C_3
REMARK    3  A    between atoms: C_3  and  S_4
REMARK    4  A    between atoms: S_4  and  N_7
REMARK    5  A    between atoms: N_7  and  C_8
REMARK    6  A    between atoms: C_12  and  C_13
REMARK    7  A    between atoms: C_13  and  O_14
REMARK    8  A    between atoms: O_14  and  C_15
REMARK    9  A    between atoms: C_18  and  C_19
REMARK   10  A    between atoms: C_19  and  N_20
REMARK   11  A    between atoms: C_21  and  C_23
REMARK                            x       y       z     vdW  Elec       q    Type
REMARK                         _______ _______ _______ _____ _____    ______ ____
ROOT
ATOM      1  C   UNL     1      47.409   7.317  13.125  0.00  0.00    +0.000 A 
ATOM      2  C   UNL     1      48.116   6.247  13.659  0.00  0.00    +0.000 A 
ATOM      3  N   UNL     1      48.813   6.335  14.824  0.00  0.00    +0.000 NA
ATOM      4  C   UNL     1      48.800   7.555  15.427  0.00  0.00    +0.000 A 
ATOM      5  C   UNL     1      48.089   8.619  14.878  0.00  0.00    +0.000 A 
ATOM      6  N   UNL     1      47.392   8.526  13.720  0.00  0.00    +0.000 NA
ENDROOT
BRANCH   1   7
ATOM      7  O   UNL     1      46.795   7.151  11.905  0.00  0.00    +0.000 OA
BRANCH   7   8
ATOM      8  C   UNL     1      45.371   7.240  11.978  0.00  0.00    +0.000 C 
BRANCH   8  13
ATOM      9  C   UNL     1      44.765   3.730  10.621  0.00  0.00    +0.000 A 
ATOM     10  C   UNL     1      43.744   3.272  11.448  0.00  0.00    +0.000 A 
ATOM     11  C   UNL     1      43.210   4.126  12.412  0.00  0.00    +0.000 A 
ATOM     12  C   UNL     1      43.713   5.421  12.557  0.00  0.00    +0.000 A 
ATOM     13  C   UNL     1      44.755   5.881  11.736  0.00  0.00    +0.000 A 
ATOM     14  C   UNL     1      45.270   5.025  10.756  0.00  0.00    +0.000 A 
BRANCH   9  15
ATOM     15  N   UNL     1      45.382   2.864   9.687  0.00  0.00    +0.000 N 
ATOM     16  H   UNL     1      45.345   1.873   9.905  0.00  0.00    +0.000 HD
BRANCH  15  17
ATOM     17  S   UNL     1      45.549   3.348   8.091  0.00  0.00    +0.000 S 
ATOM     18  O   UNL     1      46.308   4.582   8.105  0.00  0.00    +0.000 OA
ATOM     19  O   UNL     1      44.273   3.268   7.416  0.00  0.00    +0.000 OA
BRANCH  17  20
ATOM     20  C   UNL     1      46.607   2.080   7.395  0.00  0.00    +0.000 C 
BRANCH  20  21
ATOM     21  C   UNL     1      47.824   2.672   6.700  0.00  0.00    +0.000 C 
BRANCH  21  22
ATOM     22  N   UNL     1      48.488   1.695   5.834  0.00  0.00    +0.000 NA
ATOM     23  H   UNL     1      48.843   0.926   6.407  0.00  0.00    +0.000 HD
ATOM     24  H   UNL     1      49.313   2.116   5.407  0.00  0.00    +0.000 HD
ENDBRANCH  21  22
ENDBRANCH  20  21
ENDBRANCH  17  20
ENDBRANCH  15  17
ENDBRANCH   9  15
ENDBRANCH   8  13
ENDBRANCH   7   8
ENDBRANCH   1   7
BRANCH   4  25
ATOM     25  C   UNL     1      49.575   7.738  16.710  0.00  0.00    +0.000 C 
BRANCH  25  26
ATOM     26  N   UNL     1      50.441   6.618  17.017  0.00  0.00    +0.000 N 
ATOM     27  C   UNL     1      50.684   6.215  18.303  0.00  0.00    +0.000 C 
ATOM     28  O   UNL     1      50.156   6.772  19.263  0.00  0.00    +0.000 OA
ATOM     29  H   UNL     1      50.941   6.194  16.243  0.00  0.00    +0.000 HD
BRANCH  27  30
ATOM     30  C   UNL     1      51.562   5.054  18.483  0.00  0.00    +0.000 A 
ATOM     31  C   UNL     1      52.777   5.210  19.138  0.00  0.00    +0.000 A 
ATOM     32  S   UNL     1      53.680   3.770  19.256  0.00  0.00    +0.000 S 
ATOM     33  C   UNL     1      52.501   2.895  18.397  0.00  0.00    +0.000 A 
ATOM     34  N   UNL     1      52.682   1.578  18.109  0.00  0.00    +0.000 NA
ATOM     35  C   UNL     1      51.727   1.047  17.422  0.00  0.00    +0.000 A 
ATOM     36  N   UNL     1      50.602   1.711  17.006  0.00  0.00    +0.000 N 
ATOM     37  C   UNL     1      50.352   3.028  17.318  0.00  0.00    +0.000 A 
ATOM     38  O   UNL     1      49.294   3.568  17.010  0.00  0.00    +0.000 OA
ATOM     39  C   UNL     1      51.415   3.682  18.056  0.00  0.00    +0.000 A 
ATOM     40  H   UNL     1      49.881   1.228  16.491  0.00  0.00    +0.000 HD
ENDBRANCH  27  30
ENDBRANCH  25  26
ENDBRANCH   4  25
TORSDOF 11
ENDMDL
MODEL 4
REMARK VINA RESULT:    -6.654      1.373      2.026
REMARK INTER + INTRA:         -12.422
REMARK INTER:                 -10.849
REMARK INTRA:                  -1.573
REMARK UNBOUND:                -1.684
REMARK  Name = 
REMARK  11 active torsions:
REMARK  status: ('A' for Active; 'I' for Inactive)
REMARK    1  A    between atoms: N_1  and  C_2
REMARK    2  A    between atoms: C_2  and  C_3
REMARK    3  A    between atoms: C_3  and  S_4
REMARK    4  A    between atoms: S_4  and  N_7
REMARK    5  A    between atoms: N_7  and  C_8
REMARK    6  A    between atoms: C_12  and  C_13
REMARK    7  A    between atoms: C_13  and  O_14
REMARK    8  A    between atoms: O_14  and  C_15
REMARK    9  A    between atoms: C_18  and  C_19
REMARK   10  A    between atoms: C_19  and  N_20
REMARK   11  A    between atoms: C_21  and  C_23
REMARK                            x       y       z     vdW  Elec       q    Type
REMARK                         _______ _______ _______ _____ _____    ______ ____
ROOT
ATOM      1  C   UNL     1      50.210   8.527  15.379  0.00  0.00    +0.000 A 
ATOM      2  C   UNL     1      48.965   9.005  15.774  0.00  0.00    +0.000 A 
ATOM      3  N   UNL     1      47.912   9.105  14.918  0.00  0.00    +0.000 NA
ATOM      4  C   UNL     1      48.160   8.731  13.633  0.00  0.00    +0.000 A 
ATOM      5  C   UNL     1      49.413   8.257  13.253  0.00  0.00    +0.000 A 
ATOM      6  N   UNL     1      50.458   8.155  14.109  0.00  0.00    +0.000 NA
ENDROOT
BRANCH   1   7
ATOM      7  O   UNL     1      51.233   8.533  16.300  0.00  0.00    +0.000 OA
BRANCH   7   8
ATOM      8  C   UNL     1      50.819   8.112  17.600  0.00  0.00    +0.000 C 
BRANCH   8  13
ATOM      9  C   UNL     1      49.982   4.420  18.034  0.00  0.00    +0.000 A 
ATOM     10  C   UNL     1      51.200   3.811  17.748  0.00  0.00    +0.000 A 
ATOM     11  C   UNL     1      52.312   4.604  17.470  0.00  0.00    +0.000 A 
ATOM     12  C   UNL     1      52.194   5.996  17.458  0.00  0.00    +0.000 A 
ATOM     13  C   UNL     1      50.963   6.613  17.729  0.00  0.00    +0.000 A 
ATOM     14  C   UNL     1      49.857   5.810  18.030  0.00  0.00    +0.000 A 
BRANCH   9  15
ATOM     15  N   UNL     1      48.817   3.642  18.243  0.00  0.00    +0.000 N 
ATOM     16  H   UNL     1      48.366   3.748  19.146  0.00  0.00    +0.000 HD
BRANCH  15  17
ATOM     17  S   UNL     1      47.912   3.134  16.926  0.00  0.00    +0.000 S 
ATOM     18  O   UNL     1      46.605   2.770  17.432  0.00  0.00    +0.000 OA
ATOM     19  O   UNL     1      48.685   2.210  16.126  0.00  0.00    +0.000 OA
BRANCH  17  20
ATOM     20  C   UNL     1      47.714   4.637  15.971  0.00  0.00    +0.000 C 
BRANCH  20  21
ATOM     21  C   UNL     1      46.779   4.440  14.787  0.00  0.00    +0.000 C 
BRANCH  21  22
ATOM     22  N   UNL     1      47.259   3.395  13.880  0.00  0.00    +0.000 NA
ATOM     23  H   UNL     1      47.026   3.653  12.918  0.00  0.00    +0.000 HD
ATOM     24  H   UNL     1      46.754   2.526  14.056  0.00  0.00    +0.000 HD
ENDBRANCH  21  22
ENDBRANCH  20  21
ENDBRANCH  17  20
ENDBRANCH  15  17
ENDBRANCH   9  15
ENDBRANCH   8  13
ENDBRANCH   7   8
ENDBRANCH   1   7
BRANCH   4  25
ATOM     25  C   UNL     1      47.047   8.841  12.619  0.00  0.00    +0.000 C 
BRANCH  25  26
ATOM     26  N   UNL     1      46.708   7.573  12.005  0.00  0.00    +0.000 N 
ATOM     27  C   UNL     1      45.492   7.352  11.413  0.00  0.00    +0.000 C 
ATOM     28  O   UNL     1      44.637   8.232  11.351  0.00  0.00    +0.000 OA
ATOM     29  H   UNL     1      47.372   6.815  12.112  0.00  0.00    +0.000 HD
BRANCH  27  30
ATOM     30  C   UNL     1      45.277   6.033  10.807  0.00  0.00    +0.000 A 
ATOM     31  C   UNL     1      45.823   5.756   9.561  0.00  0.00    +0.000 A 
ATOM     32  S   UNL     1      45.475   4.187   8.995  0.00  0.00    +0.000 S 
ATOM     33  C   UNL     1      44.545   3.836  10.376  0.00  0.00    +0.000 A 
ATOM     34  N   UNL     1      43.911   2.640  10.505  0.00  0.00    +0.000 NA
ATOM     35  C   UNL     1      43.211   2.521  11.583  0.00  0.00    +0.000 A 
ATOM     36  N   UNL     1      43.098   3.486  12.550  0.00  0.00    +0.000 N 
ATOM     37  C   UNL     1      43.760   4.690  12.488  0.00  0.00    +0.000 A 
ATOM     38  O   UNL     1      43.711   5.496  13.411  0.00  0.00    +0.000 OA
ATOM     39  C   UNL     1      44.530   4.889  11.274  0.00  0.00    +0.000 A 
ATOM     40  H   UNL     1      42.552   3.318  13.382  0.00  0.00    +0.000 HD
ENDBRANCH  27  30
ENDBRANCH  25  26
ENDBRANCH   4  25
TORSDOF 11
ENDMDL
MODEL 5
REMARK VINA RESULT:    -6.451      2.970      3.683
REMARK INTER + INTRA:         -12.094
REMARK INTER:                 -10.287
REMARK INTRA:                  -1.808
REMARK UNBOUND:                -1.684
REMARK  Name = 
REMARK  11 active torsions:
REMARK  status: ('A' for Active; 'I' for Inactive)
REMARK    1  A    between atoms: N_1  and  C_2
REMARK    2  A    between atoms: C_2  and  C_3
REMARK    3  A    between atoms: C_3  and  S_4
REMARK    4  A    between atoms: S_4  and  N_7
REMARK    5  A    between atoms: N_7  and  C_8
REMARK    6  A    between atoms: C_12  and  C_13
REMARK    7  A    between atoms: C_13  and  O_14
REMARK    8  A    between atoms: O_14  and  C_15
REMARK    9  A    between atoms: C_18  and  C_19
REMARK   10  A    between atoms: C_19  and  N_20
REMARK   11  A    between atoms: C_21  and  C_23
REMARK                            x       y       z     vdW  Elec       q    Type
REMARK                         _______ _______ _______ _____ _____    ______ ____
ROOT
ATOM      1  C   UNL     1      49.518   9.324  16.856  0.00  0.00    +0.000 A 
ATOM      2  C   UNL     1      48.614   9.729  15.882  0.00  0.00    +0.000 A 
ATOM      3  N   UNL     1      48.575   9.176  14.640  0.00  0.00    +0.000 NA
ATOM      4  C   UNL     1      49.503   8.210  14.396  0.00  0.00    +0.000 A 
ATOM      5  C   UNL     1      50.404   7.817  15.382  0.00  0.00    +0.000 A 
ATOM      6  N   UNL     1      50.437   8.368  16.620  0.00  0.00    +0.000 NA
ENDROOT
BRANCH   1   7
ATOM      7  O   UNL     1      49.528   9.994  18.058  0.00  0.00    +0.000 OA
BRANCH   7   8
ATOM      8  C   UNL     1      48.221  10.186  18.603  0.00  0.00    +0.000 C 
BRANCH   8  13
ATOM      9  C   UNL     1      47.370   6.665  19.785  0.00  0.00    +0.000 A 
ATOM     10  C   UNL     1      47.390   6.811  21.169  0.00  0.00    +0.000 A 
ATOM     11  C   UNL     1      47.624   8.070  21.720  0.00  0.00    +0.000 A 
ATOM     12  C   UNL     1      47.857   9.167  20.887  0.00  0.00    +0.000 A 
ATOM     13  C   UNL     1      47.854   9.020  19.491  0.00  0.00    +0.000 A 
ATOM     14  C   UNL     1      47.596   7.757  18.946  0.00  0.00    +0.000 A 
BRANCH   9  15
ATOM     15  N   UNL     1      47.215   5.387  19.195  0.00  0.00    +0.000 N 
ATOM     16  H   UNL     1      46.366   5.244  18.658  0.00  0.00    +0.000 HD
BRANCH  15  17
ATOM     17  S   UNL     1      48.569   4.460  18.856  0.00  0.00    +0.000 S 
ATOM     18  O   UNL     1      49.122   4.044  20.128  0.00  0.00    +0.000 OA
ATOM     19  O   UNL     1      49.390   5.130  17.871  0.00  0.00    +0.000 OA
BRANCH  17  20
ATOM     20  C   UNL     1      47.874   3.004  18.075  0.00  0.00    +0.000 C 
BRANCH  20  21
ATOM     21  C   UNL     1      47.787   3.155  16.564  0.00  0.00    +0.000 C 
BRANCH  21  22
ATOM     22  N   UNL     1      46.854   4.215  16.174  0.00  0.00    +0.000 NA
ATOM     23  H   UNL     1      47.380   5.070  15.981  0.00  0.00    +0.000 HD
ATOM     24  H   UNL     1      46.245   4.445  16.959  0.00  0.00    +0.000 HD
ENDBRANCH  21  22
ENDBRANCH  20  21
ENDBRANCH  17  20
ENDBRANCH  15  17
ENDBRANCH   9  15
ENDBRANCH   8  13
ENDBRANCH   7   8
ENDBRANCH   1   7
BRANCH   4  25
ATOM     25  C   UNL     1      49.541   7.570  13.030  0.00  0.00    +0.000 C 
BRANCH  25  26
ATOM     26  N   UNL     1      48.226   7.246  12.516  0.00  0.00    +0.000 N 
ATOM     27  C   UNL     1      47.499   6.184  12.987  0.00  0.00    +0.000 C 
ATOM     28  O   UNL     1      47.921   5.466  13.891  0.00  0.00    +0.000 OA
ATOM     29  H   UNL     1      47.895   7.782  11.721  0.00  0.00    +0.000 HD
BRANCH  27  30
ATOM     30  C   UNL     1      46.172   5.973  12.400  0.00  0.00    +0.000 A 
ATOM     31  C   UNL     1      45.493   7.047  11.840  0.00  0.00    +0.000 A 
ATOM     32  S   UNL     1      43.963   6.637  11.211  0.00  0.00    +0.000 S 
ATOM     33  C   UNL     1      44.134   5.017  11.702  0.00  0.00    +0.000 A 
ATOM     34  N   UNL     1      43.136   4.117  11.498  0.00  0.00    +0.000 NA
ATOM     35  C   UNL     1      43.383   2.934  11.951  0.00  0.00    +0.000 A 
ATOM     36  N   UNL     1      44.545   2.567  12.581  0.00  0.00    +0.000 N 
ATOM     37  C   UNL     1      45.602   3.429  12.764  0.00  0.00    +0.000 A 
ATOM     38  O   UNL     1      46.662   3.047  13.248  0.00  0.00    +0.000 OA
ATOM     39  C   UNL     1      45.357   4.784  12.306  0.00  0.00    +0.000 A 
ATOM     40  H   UNL     1      44.683   1.617  12.891  0.00  0.00    +0.000 HD
ENDBRANCH  27  30
ENDBRANCH  25  26
ENDBRANCH   4  25
TORSDOF 11
ENDMDL
MODEL 6
REMARK VINA RESULT:    -6.348      3.191      8.933
REMARK INTER + INTRA:         -11.929
REMARK INTER:                 -10.605
REMARK INTRA:                  -1.324
REMARK UNBOUND:                -1.684
REMARK  Name = 
REMARK  11 active torsions:
REMARK  status: ('A' for Active; 'I' for Inactive)
REMARK    1  A    between atoms: N_1  and  C_2
REMARK    2  A    between atoms: C_2  and  C_3
REMARK    3  A    between atoms: C_3  and  S_4
REMARK    4  A    between atoms: S_4  and  N_7
REMARK    5  A    between atoms: N_7  and  C_8
REMARK    6  A    between atoms: C_12  and  C_13
REMARK    7  A    between atoms: C_13  and  O_14
REMARK    8  A    between atoms: O_14  and  C_15
REMARK    9  A    between atoms: C_18  and  C_19
REMARK   10  A    between atoms: C_19  and  N_20
REMARK   11  A    between atoms: C_21  and  C_23
REMARK                            x       y       z     vdW  Elec       q    Type
REMARK                         _______ _______ _______ _____ _____    ______ ____
ROOT
ATOM      1  C   UNL     1      47.200   7.578  12.802  0.00  0.00    +0.000 A 
ATOM      2  C   UNL     1      47.914   6.392  12.915  0.00  0.00    +0.000 A 
ATOM      3  N   UNL     1      48.826   6.174  13.901  0.00  0.00    +0.000 NA
ATOM      4  C   UNL     1      49.017   7.209  14.764  0.00  0.00    +0.000 A 
ATOM      5  C   UNL     1      48.296   8.393  14.635  0.00  0.00    +0.000 A 
ATOM      6  N   UNL     1      47.386   8.604  13.654  0.00  0.00    +0.000 NA
ENDROOT
BRANCH   1   7
ATOM      7  O   UNL     1      46.353   7.731  11.727  0.00  0.00    +0.000 OA
BRANCH   7   8
ATOM      8  C   UNL     1      44.975   7.588  12.075  0.00  0.00    +0.000 C 
BRANCH   8  13
ATOM      9  C   UNL     1      44.805   4.135  10.472  0.00  0.00    +0.000 A 
ATOM     10  C   UNL     1      43.610   3.637  10.982  0.00  0.00    +0.000 A 
ATOM     11  C   UNL     1      42.827   4.447  11.804  0.00  0.00    +0.000 A 
ATOM     12  C   UNL     1      43.254   5.738  12.126  0.00  0.00    +0.000 A 
ATOM     13  C   UNL     1      44.467   6.237  11.627  0.00  0.00    +0.000 A 
ATOM     14  C   UNL     1      45.235   5.425  10.785  0.00  0.00    +0.000 A 
BRANCH   9  15
ATOM     15  N   UNL     1      45.660   3.311   9.700  0.00  0.00    +0.000 N 
ATOM     16  H   UNL     1      45.892   2.409  10.102  0.00  0.00    +0.000 HD
BRANCH  15  17
ATOM     17  S   UNL     1      45.726   3.513   8.037  0.00  0.00    +0.000 S 
ATOM     18  O   UNL     1      46.621   4.623   7.785  0.00  0.00    +0.000 OA
ATOM     19  O   UNL     1      44.388   3.494   7.486  0.00  0.00    +0.000 OA
BRANCH  17  20
ATOM     20  C   UNL     1      46.555   2.023   7.485  0.00  0.00    +0.000 C 
BRANCH  20  21
ATOM     21  C   UNL     1      47.323   2.246   6.191  0.00  0.00    +0.000 C 
BRANCH  21  22
ATOM     22  N   UNL     1      48.706   2.657   6.439  0.00  0.00    +0.000 NA
ATOM     23  H   UNL     1      49.056   2.173   7.269  0.00  0.00    +0.000 HD
ATOM     24  H   UNL     1      48.735   3.650   6.673  0.00  0.00    +0.000 HD
ENDBRANCH  21  22
ENDBRANCH  20  21
ENDBRANCH  17  20
ENDBRANCH  15  17
ENDBRANCH   9  15
ENDBRANCH   8  13
ENDBRANCH   7   8
ENDBRANCH   1   7
BRANCH   4  25
ATOM     25  C   UNL     1      50.035   7.053  15.868  0.00  0.00    +0.000 C 
BRANCH  25  26
ATOM     26  N   UNL     1      49.484   7.284  17.188  0.00  0.00    +0.000 N 
ATOM     27  C   UNL     1      48.725   6.346  17.837  0.00  0.00    +0.000 C 
ATOM     28  O   UNL     1      48.495   5.248  17.337  0.00  0.00    +0.000 OA
ATOM     29  H   UNL     1      49.602   8.211  17.583  0.00  0.00    +0.000 HD
BRANCH  27  30
ATOM     30  C   UNL     1      48.242   6.692  19.178  0.00  0.00    +0.000 A 
ATOM     31  C   UNL     1      48.234   5.723  20.172  0.00  0.00    +0.000 A 
ATOM     32  S   UNL     1      47.638   6.282  21.668  0.00  0.00    +0.000 S 
ATOM     33  C   UNL     1      47.327   7.827  21.029  0.00  0.00    +0.000 A 
ATOM     34  N   UNL     1      46.761   8.798  21.794  0.00  0.00    +0.000 NA
ATOM     35  C   UNL     1      46.548   9.910  21.174  0.00  0.00    +0.000 A 
ATOM     36  N   UNL     1      46.863  10.143  19.860  0.00  0.00    +0.000 N 
ATOM     37  C   UNL     1      47.483   9.210  19.062  0.00  0.00    +0.000 A 
ATOM     38  O   UNL     1      47.835   9.479  17.918  0.00  0.00    +0.000 OA
ATOM     39  C   UNL     1      47.708   7.927  19.702  0.00  0.00    +0.000 A 
ATOM     40  H   UNL     1      46.691  11.046  19.442  0.00  0.00    +0.000 HD
ENDBRANCH  27  30
ENDBRANCH  25  26
ENDBRANCH   4  25
TORSDOF 11
ENDMDL
MODEL 7
REMARK VINA RESULT:    -6.217      2.574      3.467
REMARK INTER + INTRA:         -11.718
REMARK INTER:                  -9.894
REMARK INTRA:                  -1.824
REMARK UNBOUND:                -1.684
REMARK  Name = 
REMARK  11 active torsions:
REMARK  status: ('A' for Active; 'I' for Inactive)
REMARK    1  A    between atoms: N_1  and  C_2
REMARK    2  A    between atoms: C_2  and  C_3
REMARK    3  A    between atoms: C_3  and  S_4
REMARK    4  A    between atoms: S_4  and  N_7
REMARK    5  A    between atoms: N_7  and  C_8
REMARK    6  A    between atoms: C_12  and  C_13
REMARK    7  A    between atoms: C_13  and  O_14
REMARK    8  A    between atoms: O_14  and  C_15
REMARK    9  A    between atoms: C_18  and  C_19
REMARK   10  A    between atoms: C_19  and  N_20
REMARK   11  A    between atoms: C_21  and  C_23
REMARK                            x       y       z     vdW  Elec       q    Type
REMARK                         _______ _______ _______ _____ _____    ______ ____
ROOT
ATOM      1  C   UNL     1      50.147   8.982  17.864  0.00  0.00    +0.000 A 
ATOM      2  C   UNL     1      50.695   8.415  16.719  0.00  0.00    +0.000 A 
ATOM      3  N   UNL     1      50.116   8.531  15.493  0.00  0.00    +0.000 NA
ATOM      4  C   UNL     1      48.943   9.221  15.459  0.00  0.00    +0.000 A 
ATOM      5  C   UNL     1      48.406   9.780  16.616  0.00  0.00    +0.000 A 
ATOM      6  N   UNL     1      48.987   9.666  17.834  0.00  0.00    +0.000 NA
ENDROOT
BRANCH   1   7
ATOM      7  O   UNL     1      50.768   8.747  19.070  0.00  0.00    +0.000 OA
BRANCH   7   8
ATOM      8  C   UNL     1      49.862   8.745  20.174  0.00  0.00    +0.000 C 
BRANCH   8  13
ATOM      9  C   UNL     1      49.183   5.008  19.856  0.00  0.00    +0.000 A 
ATOM     10  C   UNL     1      48.110   4.834  20.725  0.00  0.00    +0.000 A 
ATOM     11  C   UNL     1      47.568   5.942  21.374  0.00  0.00    +0.000 A 
ATOM     12  C   UNL     1      48.114   7.212  21.166  0.00  0.00    +0.000 A 
ATOM     13  C   UNL     1      49.206   7.389  20.303  0.00  0.00    +0.000 A 
ATOM     14  C   UNL     1      49.730   6.274  19.639  0.00  0.00    +0.000 A 
BRANCH   9  15
ATOM     15  N   UNL     1      49.807   3.894  19.244  0.00  0.00    +0.000 N 
ATOM     16  H   UNL     1      49.849   3.046  19.800  0.00  0.00    +0.000 HD
BRANCH  15  17
ATOM     17  S   UNL     1      49.854   3.785  17.572  0.00  0.00    +0.000 S 
ATOM     18  O   UNL     1      49.708   2.383  17.240  0.00  0.00    +0.000 OA
ATOM     19  O   UNL     1      50.963   4.560  17.060  0.00  0.00    +0.000 OA
BRANCH  17  20
ATOM     20  C   UNL     1      48.345   4.612  17.073  0.00  0.00    +0.000 C 
BRANCH  20  21
ATOM     21  C   UNL     1      47.242   3.622  16.728  0.00  0.00    +0.000 C 
BRANCH  21  22
ATOM     22  N   UNL     1      46.830   2.835  17.892  0.00  0.00    +0.000 NA
ATOM     23  H   UNL     1      46.656   1.871  17.601  0.00  0.00    +0.000 HD
ATOM     24  H   UNL     1      45.933   3.177  18.240  0.00  0.00    +0.000 HD
ENDBRANCH  21  22
ENDBRANCH  20  21
ENDBRANCH  17  20
ENDBRANCH  15  17
ENDBRANCH   9  15
ENDBRANCH   8  13
ENDBRANCH   7   8
ENDBRANCH   1   7
BRANCH   4  25
ATOM     25  C   UNL     1      48.227   9.367  14.138  0.00  0.00    +0.000 C 
BRANCH  25  26
ATOM     26  N   UNL     1      47.306   8.284  13.866  0.00  0.00    +0.000 N 
ATOM     27  C   UNL     1      47.651   7.211  13.087  0.00  0.00    +0.000 C 
ATOM     28  O   UNL     1      48.774   7.104  12.600  0.00  0.00    +0.000 OA
ATOM     29  H   UNL     1      46.353   8.391  14.198  0.00  0.00    +0.000 HD
BRANCH  27  30
ATOM     30  C   UNL     1      46.636   6.167  12.903  0.00  0.00    +0.000 A 
ATOM     31  C   UNL     1      46.914   4.866  13.299  0.00  0.00    +0.000 A 
ATOM     32  S   UNL     1      45.637   3.775  13.009  0.00  0.00    +0.000 S 
ATOM     33  C   UNL     1      44.683   4.994  12.304  0.00  0.00    +0.000 A 
ATOM     34  N   UNL     1      43.454   4.711  11.796  0.00  0.00    +0.000 NA
ATOM     35  C   UNL     1      42.854   5.720  11.259  0.00  0.00    +0.000 A 
ATOM     36  N   UNL     1      43.367   6.990  11.196  0.00  0.00    +0.000 N 
ATOM     37  C   UNL     1      44.582   7.334  11.742  0.00  0.00    +0.000 A 
ATOM     38  O   UNL     1      44.973   8.496  11.750  0.00  0.00    +0.000 OA
ATOM     39  C   UNL     1      45.315   6.225  12.322  0.00  0.00    +0.000 A 
ATOM     40  H   UNL     1      42.834   7.740  10.782  0.00  0.00    +0.000 HD
ENDBRANCH  27  30
ENDBRANCH  25  26
ENDBRANCH   4  25
TORSDOF 11
ENDMDL
MODEL 8
REMARK VINA RESULT:    -6.049      2.575      8.482
REMARK INTER + INTRA:         -11.446
REMARK INTER:                 -10.145
REMARK INTRA:                  -1.301
REMARK UNBOUND:                -1.684
REMARK  Name = 
REMARK  11 active torsions:
REMARK  status: ('A' for Active; 'I' for Inactive)
REMARK    1  A    between atoms: N_1  and  C_2
REMARK    2  A    between atoms: C_2  and  C_3
REMARK    3  A    between atoms: C_3  and  S_4
REMARK    4  A    between atoms: S_4  and  N_7
REMARK    5  A    between atoms: N_7  and  C_8
REMARK    6  A    between atoms: C_12  and  C_13
REMARK    7  A    between atoms: C_13  and  O_14
REMARK    8  A    between atoms: O_14  and  C_15
REMARK    9  A    between atoms: C_18  and  C_19
REMARK   10  A    between atoms: C_19  and  N_20
REMARK   11  A    between atoms: C_21  and  C_23
REMARK                            x       y       z     vdW  Elec       q    Type
REMARK                         _______ _______ _______ _____ _____    ______ ____
ROOT
ATOM      1  C   UNL     1      48.818   7.910  14.977  0.00  0.00    +0.000 A 
ATOM      2  C   UNL     1      48.839   6.523  15.067  0.00  0.00    +0.000 A 
ATOM      3  N   UNL     1      48.835   5.864  16.257  0.00  0.00    +0.000 NA
ATOM      4  C   UNL     1      48.836   6.653  17.367  0.00  0.00    +0.000 A 
ATOM      5  C   UNL     1      48.818   8.041  17.260  0.00  0.00    +0.000 A 
ATOM      6  N   UNL     1      48.818   8.694  16.072  0.00  0.00    +0.000 NA
ENDROOT
BRANCH   1   7
ATOM      7  O   UNL     1      48.899   8.485  13.729  0.00  0.00    +0.000 OA
BRANCH   7   8
ATOM      8  C   UNL     1      48.663   7.557  12.669  0.00  0.00    +0.000 C 
BRANCH   8  13
ATOM      9  C   UNL     1      45.228   6.741  11.233  0.00  0.00    +0.000 A 
ATOM     10  C   UNL     1      44.548   7.943  11.407  0.00  0.00    +0.000 A 
ATOM     11  C   UNL     1      45.224   9.040  11.941  0.00  0.00    +0.000 A 
ATOM     12  C   UNL     1      46.565   8.922  12.314  0.00  0.00    +0.000 A 
ATOM     13  C   UNL     1      47.249   7.707  12.155  0.00  0.00    +0.000 A 
ATOM     14  C   UNL     1      46.570   6.618  11.598  0.00  0.00    +0.000 A 
BRANCH   9  15
ATOM     15  N   UNL     1      44.551   5.588  10.768  0.00  0.00    +0.000 N 
ATOM     16  H   UNL     1      44.955   5.129   9.958  0.00  0.00    +0.000 HD
BRANCH  15  17
ATOM     17  S   UNL     1      43.600   4.703  11.827  0.00  0.00    +0.000 S 
ATOM     18  O   UNL     1      42.269   5.270  11.770  0.00  0.00    +0.000 OA
ATOM     19  O   UNL     1      44.288   4.543  13.090  0.00  0.00    +0.000 OA
BRANCH  17  20
ATOM     20  C   UNL     1      43.526   3.091  11.048  0.00  0.00    +0.000 C 
BRANCH  20  21
ATOM     21  C   UNL     1      44.667   2.881  10.064  0.00  0.00    +0.000 C 
BRANCH  21  22
ATOM     22  N   UNL     1      44.300   3.289   8.706  0.00  0.00    +0.000 NA
ATOM     23  H   UNL     1      43.929   2.481   8.201  0.00  0.00    +0.000 HD
ATOM     24  H   UNL     1      45.136   3.568   8.191  0.00  0.00    +0.000 HD
ENDBRANCH  21  22
ENDBRANCH  20  21
ENDBRANCH  17  20
ENDBRANCH  15  17
ENDBRANCH   9  15
ENDBRANCH   8  13
ENDBRANCH   7   8
ENDBRANCH   1   7
BRANCH   4  25
ATOM     25  C   UNL     1      48.860   5.994  18.724  0.00  0.00    +0.000 C 
BRANCH  25  26
ATOM     26  N   UNL     1      49.904   4.999  18.856  0.00  0.00    +0.000 N 
ATOM     27  C   UNL     1      51.234   5.323  18.793  0.00  0.00    +0.000 C 
ATOM     28  O   UNL     1      51.606   6.484  18.645  0.00  0.00    +0.000 OA
ATOM     29  H   UNL     1      49.615   4.028  18.905  0.00  0.00    +0.000 HD
BRANCH  27  30
ATOM     30  C   UNL     1      52.195   4.228  18.962  0.00  0.00    +0.000 A 
ATOM     31  C   UNL     1      53.294   4.405  19.793  0.00  0.00    +0.000 A 
ATOM     32  S   UNL     1      54.316   3.044  19.874  0.00  0.00    +0.000 S 
ATOM     33  C   UNL     1      53.352   2.184  18.768  0.00  0.00    +0.000 A 
ATOM     34  N   UNL     1      53.700   0.934  18.364  0.00  0.00    +0.000 NA
ATOM     35  C   UNL     1      52.899   0.412  17.495  0.00  0.00    +0.000 A 
ATOM     36  N   UNL     1      51.775   1.024  17.005  0.00  0.00    +0.000 N 
ATOM     37  C   UNL     1      51.355   2.265  17.422  0.00  0.00    +0.000 A 
ATOM     38  O   UNL     1      50.296   2.747  17.033  0.00  0.00    +0.000 OA
ATOM     39  C   UNL     1      52.244   2.912  18.369  0.00  0.00    +0.000 A 
ATOM     40  H   UNL     1      51.178   0.548  16.344  0.00  0.00    +0.000 HD
ENDBRANCH  27  30
ENDBRANCH  25  26
ENDBRANCH   4  25
TORSDOF 11
ENDMDL
MODEL 9
REMARK VINA RESULT:    -6.014      2.480      3.080
REMARK INTER + INTRA:         -11.389
REMARK INTER:                  -8.581
REMARK INTRA:                  -2.808
REMARK UNBOUND:                -1.684
REMARK  Name = 
REMARK  11 active torsions:
REMARK  status: ('A' for Active; 'I' for Inactive)
REMARK    1  A    between atoms: N_1  and  C_2
REMARK    2  A    between atoms: C_2  and  C_3
REMARK    3  A    between atoms: C_3  and  S_4
REMARK    4  A    between atoms: S_4  and  N_7
REMARK    5  A    between atoms: N_7  and  C_8
REMARK    6  A    between atoms: C_12  and  C_13
REMARK    7  A    between atoms: C_13  and  O_14
REMARK    8  A    between atoms: O_14  and  C_15
REMARK    9  A    between atoms: C_18  and  C_19
REMARK   10  A    between atoms: C_19  and  N_20
REMARK   11  A    between atoms: C_21  and  C_23
REMARK                            x       y       z     vdW  Elec       q    Type
REMARK                         _______ _______ _______ _____ _____    ______ ____
ROOT
ATOM      1  C   UNL     1      50.836   9.737  15.580  0.00  0.00    +0.000 A 
ATOM      2  C   UNL     1      49.924  10.700  15.166  0.00  0.00    +0.000 A 
ATOM      3  N   UNL     1      49.248  10.614  13.988  0.00  0.00    +0.000 NA
ATOM      4  C   UNL     1      49.542   9.529  13.219  0.00  0.00    +0.000 A 
ATOM      5  C   UNL     1      50.460   8.574  13.647  0.00  0.00    +0.000 A 
ATOM      6  N   UNL     1      51.128   8.662  14.823  0.00  0.00    +0.000 NA
ENDROOT
BRANCH   1   7
ATOM      7  O   UNL     1      51.523   9.950  16.753  0.00  0.00    +0.000 OA
BRANCH   7   8
ATOM      8  C   UNL     1      50.671  10.020  17.897  0.00  0.00    +0.000 C 
BRANCH   8  13
ATOM      9  C   UNL     1      49.333   6.562  18.779  0.00  0.00    +0.000 A 
ATOM     10  C   UNL     1      50.385   6.023  19.513  0.00  0.00    +0.000 A 
ATOM     11  C   UNL     1      51.511   6.805  19.771  0.00  0.00    +0.000 A 
ATOM     12  C   UNL     1      51.584   8.110  19.278  0.00  0.00    +0.000 A 
ATOM     13  C   UNL     1      50.532   8.651  18.523  0.00  0.00    +0.000 A 
ATOM     14  C   UNL     1      49.397   7.867  18.287  0.00  0.00    +0.000 A 
BRANCH   9  15
ATOM     15  N   UNL     1      48.213   5.769  18.432  0.00  0.00    +0.000 N 
ATOM     16  H   UNL     1      47.303   6.160  18.654  0.00  0.00    +0.000 HD
BRANCH  15  17
ATOM     17  S   UNL     1      48.345   4.642  17.197  0.00  0.00    +0.000 S 
ATOM     18  O   UNL     1      49.406   5.101  16.323  0.00  0.00    +0.000 OA
ATOM     19  O   UNL     1      47.033   4.329  16.675  0.00  0.00    +0.000 OA
BRANCH  17  20
ATOM     20  C   UNL     1      48.948   3.184  18.047  0.00  0.00    +0.000 C 
BRANCH  20  21
ATOM     21  C   UNL     1      49.696   2.248  17.111  0.00  0.00    +0.000 C 
BRANCH  21  22
ATOM     22  N   UNL     1      49.012   2.101  15.824  0.00  0.00    +0.000 NA
ATOM     23  H   UNL     1      48.541   2.978  15.593  0.00  0.00    +0.000 HD
ATOM     24  H   UNL     1      48.268   1.408  15.905  0.00  0.00    +0.000 HD
ENDBRANCH  21  22
ENDBRANCH  20  21
ENDBRANCH  17  20
ENDBRANCH  15  17
ENDBRANCH   9  15
ENDBRANCH   8  13
ENDBRANCH   7   8
ENDBRANCH   1   7
BRANCH   4  25
ATOM     25  C   UNL     1      48.853   9.380  11.884  0.00  0.00    +0.000 C 
BRANCH  25  26
ATOM     26  N   UNL     1      47.963   8.238  11.827  0.00  0.00    +0.000 N 
ATOM     27  C   UNL     1      46.654   8.313  12.222  0.00  0.00    +0.000 C 
ATOM     28  O   UNL     1      46.162   9.364  12.624  0.00  0.00    +0.000 OA
ATOM     29  H   UNL     1      48.371   7.346  11.568  0.00  0.00    +0.000 HD
BRANCH  27  30
ATOM     30  C   UNL     1      45.849   7.092  12.096  0.00  0.00    +0.000 A 
ATOM     31  C   UNL     1      44.606   7.154  11.481  0.00  0.00    +0.000 A 
ATOM     32  S   UNL     1      43.797   5.656  11.422  0.00  0.00    +0.000 S 
ATOM     33  C   UNL     1      45.060   4.878  12.254  0.00  0.00    +0.000 A 
ATOM     34  N   UNL     1      44.977   3.559  12.573  0.00  0.00    +0.000 NA
ATOM     35  C   UNL     1      45.989   3.106  13.236  0.00  0.00    +0.000 A 
ATOM     36  N   UNL     1      47.081   3.852  13.598  0.00  0.00    +0.000 N 
ATOM     37  C   UNL     1      47.232   5.175  13.254  0.00  0.00    +0.000 A 
ATOM     38  O   UNL     1      48.260   5.791  13.514  0.00  0.00    +0.000 OA
ATOM     39  C   UNL     1      46.102   5.743  12.542  0.00  0.00    +0.000 A 
ATOM     40  H   UNL     1      47.850   3.428  14.097  0.00  0.00    +0.000 HD
ENDBRANCH  27  30
ENDBRANCH  25  26
ENDBRANCH   4  25
TORSDOF 11
ENDMDL
