MODEL 1
REMARK VINA RESULT:    -8.792      0.000      0.000
REMARK INTER + INTRA:         -12.846
REMARK INTER:                 -11.876
REMARK INTRA:                  -0.970
REMARK UNBOUND:                -0.970
REMARK  Name = 
REMARK  7 active torsions:
REMARK  status: ('A' for Active; 'I' for Inactive)
REMARK    1  A    between atoms: C_1  and  C_2
REMARK    2  A    between atoms: C_11  and  C_12
REMARK    3  A    between atoms: N_14  and  C_15
REMARK    4  A    between atoms: C_15  and  C_16
REMARK    5  A    between atoms: C_19  and  C_20
REMARK    6  A    between atoms: C_20  and  N_21
REMARK    7  A    between atoms: N_21  and  C_22
REMARK                            x       y       z     vdW  Elec       q    Type
REMARK                         _______ _______ _______ _____ _____    ______ ____
ROOT
ATOM      1  C   UNL     1      48.546   6.808  14.452  0.00  0.00    +0.000 C 
ATOM      2  O   UNL     1      49.221   6.661  13.434  0.00  0.00    +0.000 OA
ATOM      3  N   UNL     1      47.353   7.485  14.394  0.00  0.00    +0.000 N 
ATOM      4  H   UNL     1      46.824   7.689  15.236  0.00  0.00    +0.000 HD
ENDROOT
BRANCH   1  15
ATOM      5  C   UNL     1      50.840   8.046  16.156  0.00  0.00    +0.000 C 
ATOM      6  C   UNL     1      50.022   6.832  16.480  0.00  0.00    +0.000 A 
ATOM      7  S   UNL     1      50.394   5.991  17.923  0.00  0.00    +0.000 S 
ATOM      8  C   UNL     1      49.180   4.844  17.654  0.00  0.00    +0.000 A 
ATOM      9  N   UNL     1      48.993   3.824  18.535  0.00  0.00    +0.000 NA
ATOM     10  C   UNL     1      48.045   3.009  18.216  0.00  0.00    +0.000 A 
ATOM     11  N   UNL     1      47.257   3.135  17.106  0.00  0.00    +0.000 N 
ATOM     12  C   UNL     1      47.376   4.178  16.218  0.00  0.00    +0.000 A 
ATOM     13  O   UNL     1      46.586   4.298  15.287  0.00  0.00    +0.000 OA
ATOM     14  C   UNL     1      48.467   5.098  16.495  0.00  0.00    +0.000 A 
ATOM     15  C   UNL     1      48.971   6.249  15.759  0.00  0.00    +0.000 A 
ATOM     16  H   UNL     1      46.506   2.484  16.929  0.00  0.00    +0.000 HD
ENDBRANCH   1  15
BRANCH   3  17
ATOM     17  C   UNL     1      46.865   8.036  13.152  0.00  0.00    +0.000 C 
BRANCH  17  18
ATOM     18  C   UNL     1      46.107   7.020  12.337  0.00  0.00    +0.000 A 
ATOM     19  C   UNL     1      46.557   6.654  11.061  0.00  0.00    +0.000 A 
ATOM     20  C   UNL     1      45.854   5.716  10.299  0.00  0.00    +0.000 A 
ATOM     21  C   UNL     1      44.670   5.142  10.784  0.00  0.00    +0.000 A 
ATOM     22  C   UNL     1      44.221   5.504  12.061  0.00  0.00    +0.000 A 
ATOM     23  C   UNL     1      44.929   6.437  12.827  0.00  0.00    +0.000 A 
BRANCH  21  24
ATOM     24  C   UNL     1      43.892   4.161   9.936  0.00  0.00    +0.000 C 
BRANCH  24  25
ATOM     25  N   UNL     1      44.350   4.208   8.552  0.00  0.00    +0.000 N 
ATOM     26  H   UNL     1      44.622   5.147   8.273  0.00  0.00    +0.000 HD
BRANCH  25  27
ATOM     27  C   UNL     1      45.295   3.246   8.160  0.00  0.00    +0.000 A 
ATOM     28  C   UNL     1      46.192   3.536   7.127  0.00  0.00    +0.000 A 
ATOM     29  C   UNL     1      47.108   2.576   6.689  0.00  0.00    +0.000 A 
ATOM     30  C   UNL     1      47.080   1.324   7.278  0.00  0.00    +0.000 A 
ATOM     31  N   UNL     1      46.209   0.975   8.242  0.00  0.00    +0.000 NA
ATOM     32  C   UNL     1      45.332   1.932   8.639  0.00  0.00    +0.000 A 
ENDBRANCH  25  27
ENDBRANCH  24  25
ENDBRANCH  21  24
ENDBRANCH  17  18
ENDBRANCH   3  17
TORSDOF 6
ENDMDL
MODEL 2
REMARK VINA RESULT:    -8.506      1.671      1.857
REMARK INTER + INTRA:         -12.459
REMARK INTER:                 -11.547
REMARK INTRA:                  -0.912
REMARK UNBOUND:                -0.970
REMARK  Name = 
REMARK  7 active torsions:
REMARK  status: ('A' for Active; 'I' for Inactive)
REMARK    1  A    between atoms: C_1  and  C_2
REMARK    2  A    between atoms: C_11  and  C_12
REMARK    3  A    between atoms: N_14  and  C_15
REMARK    4  A    between atoms: C_15  and  C_16
REMARK    5  A    between atoms: C_19  and  C_20
REMARK    6  A    between atoms: C_20  and  N_21
REMARK    7  A    between atoms: N_21  and  C_22
REMARK                            x       y       z     vdW  Elec       q    Type
REMARK                         _______ _______ _______ _____ _____    ______ ____
ROOT
ATOM      1  C   UNL     1      49.072   6.866  15.649  0.00  0.00    +0.000 C 
ATOM      2  O   UNL     1      50.233   6.869  15.238  0.00  0.00    +0.000 OA
ATOM      3  N   UNL     1      48.028   6.793  14.759  0.00  0.00    +0.000 N 
ATOM      4  H   UNL     1      47.066   6.873  15.072  0.00  0.00    +0.000 HD
ENDROOT
BRANCH   1  15
ATOM      5  C   UNL     1      48.206   9.480  17.105  0.00  0.00    +0.000 C 
ATOM      6  C   UNL     1      48.388   8.120  17.711  0.00  0.00    +0.000 A 
ATOM      7  S   UNL     1      48.135   7.967  19.396  0.00  0.00    +0.000 S 
ATOM      8  C   UNL     1      48.486   6.313  19.372  0.00  0.00    +0.000 A 
ATOM      9  N   UNL     1      48.463   5.590  20.525  0.00  0.00    +0.000 NA
ATOM     10  C   UNL     1      48.758   4.342  20.380  0.00  0.00    +0.000 A 
ATOM     11  N   UNL     1      49.055   3.751  19.183  0.00  0.00    +0.000 N 
ATOM     12  C   UNL     1      49.039   4.431  17.987  0.00  0.00    +0.000 A 
ATOM     13  O   UNL     1      49.222   3.838  16.930  0.00  0.00    +0.000 OA
ATOM     14  C   UNL     1      48.768   5.855  18.096  0.00  0.00    +0.000 A 
ATOM     15  C   UNL     1      48.756   6.915  17.097  0.00  0.00    +0.000 A 
ATOM     16  H   UNL     1      49.243   2.760  19.128  0.00  0.00    +0.000 HD
ENDBRANCH   1  15
BRANCH   3  17
ATOM     17  C   UNL     1      48.263   6.719  13.337  0.00  0.00    +0.000 C 
BRANCH  17  18
ATOM     18  C   UNL     1      47.119   6.065  12.604  0.00  0.00    +0.000 A 
ATOM     19  C   UNL     1      46.640   6.610  11.405  0.00  0.00    +0.000 A 
ATOM     20  C   UNL     1      45.576   6.011  10.725  0.00  0.00    +0.000 A 
ATOM     21  C   UNL     1      44.949   4.869  11.241  0.00  0.00    +0.000 A 
ATOM     22  C   UNL     1      45.428   4.321  12.438  0.00  0.00    +0.000 A 
ATOM     23  C   UNL     1      46.499   4.917  13.115  0.00  0.00    +0.000 A 
BRANCH  21  24
ATOM     24  C   UNL     1      43.771   4.252  10.522  0.00  0.00    +0.000 C 
BRANCH  24  25
ATOM     25  N   UNL     1      44.002   4.238   9.081  0.00  0.00    +0.000 N 
ATOM     26  H   UNL     1      44.114   5.175   8.705  0.00  0.00    +0.000 HD
BRANCH  25  27
ATOM     27  C   UNL     1      44.985   3.356   8.603  0.00  0.00    +0.000 A 
ATOM     28  C   UNL     1      45.907   3.798   7.649  0.00  0.00    +0.000 A 
ATOM     29  C   UNL     1      46.862   2.923   7.124  0.00  0.00    +0.000 A 
ATOM     30  C   UNL     1      46.849   1.605   7.545  0.00  0.00    +0.000 A 
ATOM     31  N   UNL     1      45.956   1.114   8.424  0.00  0.00    +0.000 NA
ATOM     32  C   UNL     1      45.042   1.992   8.909  0.00  0.00    +0.000 A 
ENDBRANCH  25  27
ENDBRANCH  24  25
ENDBRANCH  21  24
ENDBRANCH  17  18
ENDBRANCH   3  17
TORSDOF 6
ENDMDL
MODEL 3
REMARK VINA RESULT:    -8.198      2.318      2.842
REMARK INTER + INTRA:         -12.044
REMARK INTER:                 -11.076
REMARK INTRA:                  -0.968
REMARK UNBOUND:                -0.970
REMARK  Name = 
REMARK  7 active torsions:
REMARK  status: ('A' for Active; 'I' for Inactive)
REMARK    1  A    between atoms: C_1  and  C_2
REMARK    2  A    between atoms: C_11  and  C_12
REMARK    3  A    between atoms: N_14  and  C_15
REMARK    4  A    between atoms: C_15  and  C_16
REMARK    5  A    between atoms: C_19  and  C_20
REMARK    6  A    between atoms: C_20  and  N_21
REMARK    7  A    between atoms: N_21  and  C_22
REMARK                            x       y       z     vdW  Elec       q    Type
REMARK                         _______ _______ _______ _____ _____    ______ ____
ROOT
ATOM      1  C   UNL     1      49.006   6.326  16.009  0.00  0.00    +0.000 C 
ATOM      2  O   UNL     1      50.142   6.529  15.581  0.00  0.00    +0.000 OA
ATOM      3  N   UNL     1      47.940   6.298  15.144  0.00  0.00    +0.000 N 
ATOM      4  H   UNL     1      46.988   6.216  15.486  0.00  0.00    +0.000 HD
ENDROOT
BRANCH   1  15
ATOM      5  C   UNL     1      49.409   3.549  17.361  0.00  0.00    +0.000 C 
ATOM      6  C   UNL     1      48.924   4.812  18.008  0.00  0.00    +0.000 A 
ATOM      7  S   UNL     1      48.502   4.739  19.664  0.00  0.00    +0.000 S 
ATOM      8  C   UNL     1      48.084   6.377  19.705  0.00  0.00    +0.000 A 
ATOM      9  N   UNL     1      47.618   6.938  20.854  0.00  0.00    +0.000 NA
ATOM     10  C   UNL     1      47.323   8.190  20.757  0.00  0.00    +0.000 A 
ATOM     11  N   UNL     1      47.471   8.935  19.619  0.00  0.00    +0.000 N 
ATOM     12  C   UNL     1      47.987   8.423  18.452  0.00  0.00    +0.000 A 
ATOM     13  O   UNL     1      48.186   9.151  17.486  0.00  0.00    +0.000 OA
ATOM     14  C   UNL     1      48.284   7.000  18.484  0.00  0.00    +0.000 A 
ATOM     15  C   UNL     1      48.745   6.085  17.449  0.00  0.00    +0.000 A 
ATOM     16  H   UNL     1      47.257   9.921  19.616  0.00  0.00    +0.000 HD
ENDBRANCH   1  15
BRANCH   3  17
ATOM     17  C   UNL     1      48.123   6.501  13.726  0.00  0.00    +0.000 C 
BRANCH  17  18
ATOM     18  C   UNL     1      47.005   5.897  12.915  0.00  0.00    +0.000 A 
ATOM     19  C   UNL     1      46.509   6.562  11.785  0.00  0.00    +0.000 A 
ATOM     20  C   UNL     1      45.468   6.009  11.033  0.00  0.00    +0.000 A 
ATOM     21  C   UNL     1      44.882   4.792  11.408  0.00  0.00    +0.000 A 
ATOM     22  C   UNL     1      45.380   4.125  12.535  0.00  0.00    +0.000 A 
ATOM     23  C   UNL     1      46.427   4.675  13.284  0.00  0.00    +0.000 A 
BRANCH  21  24
ATOM     24  C   UNL     1      43.729   4.221  10.614  0.00  0.00    +0.000 C 
BRANCH  24  25
ATOM     25  N   UNL     1      44.017   4.274   9.185  0.00  0.00    +0.000 N 
ATOM     26  H   UNL     1      44.185   5.224   8.865  0.00  0.00    +0.000 HD
BRANCH  25  27
ATOM     27  C   UNL     1      44.978   3.374   8.696  0.00  0.00    +0.000 A 
ATOM     28  C   UNL     1      45.928   3.813   7.768  0.00  0.00    +0.000 A 
ATOM     29  C   UNL     1      46.863   2.923   7.232  0.00  0.00    +0.000 A 
ATOM     30  C   UNL     1      46.802   1.596   7.615  0.00  0.00    +0.000 A 
ATOM     31  N   UNL     1      45.881   1.109   8.467  0.00  0.00    +0.000 NA
ATOM     32  C   UNL     1      44.988   2.001   8.964  0.00  0.00    +0.000 A 
ENDBRANCH  25  27
ENDBRANCH  24  25
ENDBRANCH  21  24
ENDBRANCH  17  18
ENDBRANCH   3  17
TORSDOF 6
ENDMDL
MODEL 4
REMARK VINA RESULT:    -7.548      2.822      4.117
REMARK INTER + INTRA:         -11.166
REMARK INTER:                 -10.136
REMARK INTRA:                  -1.030
REMARK UNBOUND:                -0.970
REMARK  Name = 
REMARK  7 active torsions:
REMARK  status: ('A' for Active; 'I' for Inactive)
REMARK    1  A    between atoms: C_1  and  C_2
REMARK    2  A    between atoms: C_11  and  C_12
REMARK    3  A    between atoms: N_14  and  C_15
REMARK    4  A    between atoms: C_15  and  C_16
REMARK    5  A    between atoms: C_19  and  C_20
REMARK    6  A    between atoms: C_20  and  N_21
REMARK    7  A    between atoms: N_21  and  C_22
REMARK                            x       y       z     vdW  Elec       q    Type
REMARK                         _______ _______ _______ _____ _____    ______ ____
ROOT
ATOM      1  C   UNL     1      48.969   7.657  14.351  0.00  0.00    +0.000 C 
ATOM      2  O   UNL     1      49.950   6.915  14.296  0.00  0.00    +0.000 OA
ATOM      3  N   UNL     1      47.704   7.123  14.379  0.00  0.00    +0.000 N 
ATOM      4  H   UNL     1      46.883   7.718  14.338  0.00  0.00    +0.000 HD
ENDROOT
BRANCH   1  15
ATOM      5  C   UNL     1      49.838   9.377  11.903  0.00  0.00    +0.000 C 
ATOM      6  C   UNL     1      49.521   9.861  13.287  0.00  0.00    +0.000 A 
ATOM      7  S   UNL     1      49.682  11.536  13.594  0.00  0.00    +0.000 S 
ATOM      8  C   UNL     1      49.203  11.361  15.206  0.00  0.00    +0.000 A 
ATOM      9  N   UNL     1      49.153  12.445  16.028  0.00  0.00    +0.000 NA
ATOM     10  C   UNL     1      48.785  12.183  17.236  0.00  0.00    +0.000 A 
ATOM     11  N   UNL     1      48.444  10.938  17.689  0.00  0.00    +0.000 N 
ATOM     12  C   UNL     1      48.429   9.826  16.881  0.00  0.00    +0.000 A 
ATOM     13  O   UNL     1      48.028   8.749  17.309  0.00  0.00    +0.000 OA
ATOM     14  C   UNL     1      48.891  10.050  15.521  0.00  0.00    +0.000 A 
ATOM     15  C   UNL     1      49.109   9.132  14.411  0.00  0.00    +0.000 A 
ATOM     16  H   UNL     1      48.128  10.802  18.638  0.00  0.00    +0.000 HD
ENDBRANCH   1  15
BRANCH   3  17
ATOM     17  C   UNL     1      47.495   5.695  14.346  0.00  0.00    +0.000 C 
BRANCH  17  18
ATOM     18  C   UNL     1      46.625   5.273  13.190  0.00  0.00    +0.000 A 
ATOM     19  C   UNL     1      46.406   6.142  12.112  0.00  0.00    +0.000 A 
ATOM     20  C   UNL     1      45.596   5.758  11.040  0.00  0.00    +0.000 A 
ATOM     21  C   UNL     1      44.963   4.507  11.033  0.00  0.00    +0.000 A 
ATOM     22  C   UNL     1      45.183   3.636  12.108  0.00  0.00    +0.000 A 
ATOM     23  C   UNL     1      46.001   4.018  13.178  0.00  0.00    +0.000 A 
BRANCH  21  24
ATOM     24  C   UNL     1      44.054   4.115   9.890  0.00  0.00    +0.000 C 
BRANCH  24  25
ATOM     25  N   UNL     1      44.725   4.317   8.611  0.00  0.00    +0.000 N 
ATOM     26  H   UNL     1      45.146   5.240   8.544  0.00  0.00    +0.000 HD
BRANCH  25  27
ATOM     27  C   UNL     1      45.601   3.305   8.185  0.00  0.00    +0.000 A 
ATOM     28  C   UNL     1      46.538   3.577   7.183  0.00  0.00    +0.000 A 
ATOM     29  C   UNL     1      47.386   2.572   6.710  0.00  0.00    +0.000 A 
ATOM     30  C   UNL     1      47.251   1.298   7.232  0.00  0.00    +0.000 A 
ATOM     31  N   UNL     1      46.336   0.969   8.163  0.00  0.00    +0.000 NA
ATOM     32  C   UNL     1      45.529   1.970   8.596  0.00  0.00    +0.000 A 
ENDBRANCH  25  27
ENDBRANCH  24  25
ENDBRANCH  21  24
ENDBRANCH  17  18
ENDBRANCH   3  17
TORSDOF 6
ENDMDL
MODEL 5
REMARK VINA RESULT:    -7.438      2.454      4.259
REMARK INTER + INTRA:         -11.017
REMARK INTER:                  -9.975
REMARK INTRA:                  -1.042
REMARK UNBOUND:                -0.970
REMARK  Name = 
REMARK  7 active torsions:
REMARK  status: ('A' for Active; 'I' for Inactive)
REMARK    1  A    between atoms: C_1  and  C_2
REMARK    2  A    between atoms: C_11  and  C_12
REMARK    3  A    between atoms: N_14  and  C_15
REMARK    4  A    between atoms: C_15  and  C_16
REMARK    5  A    between atoms: C_19  and  C_20
REMARK    6  A    between atoms: C_20  and  N_21
REMARK    7  A    between atoms: N_21  and  C_22
REMARK                            x       y       z     vdW  Elec       q    Type
REMARK                         _______ _______ _______ _____ _____    ______ ____
ROOT
ATOM      1  C   UNL     1      48.570   7.028  14.971  0.00  0.00    +0.000 C 
ATOM      2  O   UNL     1      49.280   6.213  15.560  0.00  0.00    +0.000 OA
ATOM      3  N   UNL     1      47.456   6.602  14.288  0.00  0.00    +0.000 N 
ATOM      4  H   UNL     1      46.907   7.246  13.728  0.00  0.00    +0.000 HD
ENDROOT
BRANCH   1  15
ATOM      5  C   UNL     1      48.930   8.645  17.608  0.00  0.00    +0.000 C 
ATOM      6  C   UNL     1      49.002   9.169  16.204  0.00  0.00    +0.000 A 
ATOM      7  S   UNL     1      49.273  10.845  16.000  0.00  0.00    +0.000 S 
ATOM      8  C   UNL     1      49.235  10.721  14.314  0.00  0.00    +0.000 A 
ATOM      9  N   UNL     1      49.387  11.830  13.540  0.00  0.00    +0.000 NA
ATOM     10  C   UNL     1      49.329  11.608  12.271  0.00  0.00    +0.000 A 
ATOM     11  N   UNL     1      49.151  10.374  11.707  0.00  0.00    +0.000 N 
ATOM     12  C   UNL     1      49.046   9.221  12.448  0.00  0.00    +0.000 A 
ATOM     13  O   UNL     1      48.979   8.129  11.896  0.00  0.00    +0.000 OA
ATOM     14  C   UNL     1      49.047   9.416  13.889  0.00  0.00    +0.000 A 
ATOM     15  C   UNL     1      48.866   8.481  14.991  0.00  0.00    +0.000 A 
ATOM     16  H   UNL     1      49.150  10.260  10.704  0.00  0.00    +0.000 HD
ENDBRANCH   1  15
BRANCH   3  17
ATOM     17  C   UNL     1      47.094   5.206  14.246  0.00  0.00    +0.000 C 
BRANCH  17  18
ATOM     18  C   UNL     1      46.337   4.852  12.992  0.00  0.00    +0.000 A 
ATOM     19  C   UNL     1      46.190   5.791  11.962  0.00  0.00    +0.000 A 
ATOM     20  C   UNL     1      45.484   5.470  10.800  0.00  0.00    +0.000 A 
ATOM     21  C   UNL     1      44.885   4.211  10.650  0.00  0.00    +0.000 A 
ATOM     22  C   UNL     1      45.034   3.269  11.677  0.00  0.00    +0.000 A 
ATOM     23  C   UNL     1      45.748   3.589  12.838  0.00  0.00    +0.000 A 
BRANCH  21  24
ATOM     24  C   UNL     1      44.087   3.885   9.408  0.00  0.00    +0.000 C 
BRANCH  24  25
ATOM     25  N   UNL     1      44.378   2.530   8.955  0.00  0.00    +0.000 N 
ATOM     26  H   UNL     1      43.557   2.075   8.563  0.00  0.00    +0.000 HD
BRANCH  25  27
ATOM     27  C   UNL     1      45.513   2.359   8.146  0.00  0.00    +0.000 A 
ATOM     28  C   UNL     1      45.883   3.366   7.250  0.00  0.00    +0.000 A 
ATOM     29  C   UNL     1      46.982   3.197   6.402  0.00  0.00    +0.000 A 
ATOM     30  C   UNL     1      47.668   1.997   6.448  0.00  0.00    +0.000 A 
ATOM     31  N   UNL     1      47.328   0.975   7.257  0.00  0.00    +0.000 NA
ATOM     32  C   UNL     1      46.255   1.176   8.063  0.00  0.00    +0.000 A 
ENDBRANCH  25  27
ENDBRANCH  24  25
ENDBRANCH  21  24
ENDBRANCH  17  18
ENDBRANCH   3  17
TORSDOF 6
ENDMDL
MODEL 6
REMARK VINA RESULT:    -7.110      3.361      4.906
REMARK INTER + INTRA:         -10.574
REMARK INTER:                  -9.615
REMARK INTRA:                  -0.959
REMARK UNBOUND:                -0.970
REMARK  Name = 
REMARK  7 active torsions:
REMARK  status: ('A' for Active; 'I' for Inactive)
REMARK    1  A    between atoms: C_1  and  C_2
REMARK    2  A    between atoms: C_11  and  C_12
REMARK    3  A    between atoms: N_14  and  C_15
REMARK    4  A    between atoms: C_15  and  C_16
REMARK    5  A    between atoms: C_19  and  C_20
REMARK    6  A    between atoms: C_20  and  N_21
REMARK    7  A    between atoms: N_21  and  C_22
REMARK                            x       y       z     vdW  Elec       q    Type
REMARK                         _______ _______ _______ _____ _____    ______ ____
ROOT
ATOM      1  C   UNL     1      49.298   8.582  13.519  0.00  0.00    +0.000 C 
ATOM      2  O   UNL     1      48.752   9.131  14.476  0.00  0.00    +0.000 OA
ATOM      3  N   UNL     1      48.878   7.341  13.106  0.00  0.00    +0.000 N 
ATOM      4  H   UNL     1      49.370   6.837  12.375  0.00  0.00    +0.000 HD
ENDROOT
BRANCH   1  15
ATOM      5  C   UNL     1      48.802  10.518  11.130  0.00  0.00    +0.000 C 
ATOM      6  C   UNL     1      50.125  10.084  11.688  0.00  0.00    +0.000 A 
ATOM      7  S   UNL     1      51.537  10.673  10.922  0.00  0.00    +0.000 S 
ATOM      8  C   UNL     1      52.551   9.844  11.991  0.00  0.00    +0.000 A 
ATOM      9  N   UNL     1      53.903   9.922  11.855  0.00  0.00    +0.000 NA
ATOM     10  C   UNL     1      54.569   9.239  12.722  0.00  0.00    +0.000 A 
ATOM     11  N   UNL     1      54.004   8.500  13.726  0.00  0.00    +0.000 N 
ATOM     12  C   UNL     1      52.646   8.435  13.933  0.00  0.00    +0.000 A 
ATOM     13  O   UNL     1      52.191   7.835  14.900  0.00  0.00    +0.000 OA
ATOM     14  C   UNL     1      51.840   9.141  12.950  0.00  0.00    +0.000 A 
ATOM     15  C   UNL     1      50.398   9.234  12.769  0.00  0.00    +0.000 A 
ATOM     16  H   UNL     1      54.580   8.015  14.398  0.00  0.00    +0.000 HD
ENDBRANCH   1  15
BRANCH   3  17
ATOM     17  C   UNL     1      47.797   6.657  13.776  0.00  0.00    +0.000 C 
BRANCH  17  18
ATOM     18  C   UNL     1      46.857   5.991  12.805  0.00  0.00    +0.000 A 
ATOM     19  C   UNL     1      46.582   6.582  11.564  0.00  0.00    +0.000 A 
ATOM     20  C   UNL     1      45.706   5.972  10.662  0.00  0.00    +0.000 A 
ATOM     21  C   UNL     1      45.063   4.770  10.990  0.00  0.00    +0.000 A 
ATOM     22  C   UNL     1      45.339   4.176  12.229  0.00  0.00    +0.000 A 
ATOM     23  C   UNL     1      46.223   4.784  13.128  0.00  0.00    +0.000 A 
BRANCH  21  24
ATOM     24  C   UNL     1      44.084   4.137  10.027  0.00  0.00    +0.000 C 
BRANCH  24  25
ATOM     25  N   UNL     1      44.559   4.273   8.654  0.00  0.00    +0.000 N 
ATOM     26  H   UNL     1      44.873   5.218   8.452  0.00  0.00    +0.000 HD
BRANCH  25  27
ATOM     27  C   UNL     1      45.467   3.305   8.196  0.00  0.00    +0.000 A 
ATOM     28  C   UNL     1      46.314   3.603   7.124  0.00  0.00    +0.000 A 
ATOM     29  C   UNL     1      47.192   2.638   6.621  0.00  0.00    +0.000 A 
ATOM     30  C   UNL     1      47.176   1.376   7.186  0.00  0.00    +0.000 A 
ATOM     31  N   UNL     1      46.350   1.020   8.188  0.00  0.00    +0.000 NA
ATOM     32  C   UNL     1      45.510   1.981   8.647  0.00  0.00    +0.000 A 
ENDBRANCH  25  27
ENDBRANCH  24  25
ENDBRANCH  21  24
ENDBRANCH  17  18
ENDBRANCH   3  17
TORSDOF 6
ENDMDL
MODEL 7
REMARK VINA RESULT:    -7.098      2.001      2.488
REMARK INTER + INTRA:         -10.558
REMARK INTER:                  -9.702
REMARK INTRA:                  -0.856
REMARK UNBOUND:                -0.970
REMARK  Name = 
REMARK  7 active torsions:
REMARK  status: ('A' for Active; 'I' for Inactive)
REMARK    1  A    between atoms: C_1  and  C_2
REMARK    2  A    between atoms: C_11  and  C_12
REMARK    3  A    between atoms: N_14  and  C_15
REMARK    4  A    between atoms: C_15  and  C_16
REMARK    5  A    between atoms: C_19  and  C_20
REMARK    6  A    between atoms: C_20  and  N_21
REMARK    7  A    between atoms: N_21  and  C_22
REMARK                            x       y       z     vdW  Elec       q    Type
REMARK                         _______ _______ _______ _____ _____    ______ ____
ROOT
ATOM      1  C   UNL     1      49.339   7.205  15.690  0.00  0.00    +0.000 C 
ATOM      2  O   UNL     1      48.527   7.782  16.415  0.00  0.00    +0.000 OA
ATOM      3  N   UNL     1      49.081   7.060  14.350  0.00  0.00    +0.000 N 
ATOM      4  H   UNL     1      49.696   6.515  13.753  0.00  0.00    +0.000 HD
ENDROOT
BRANCH   1  15
ATOM      5  C   UNL     1      52.068   8.653  15.294  0.00  0.00    +0.000 C 
ATOM      6  C   UNL     1      51.824   7.352  15.999  0.00  0.00    +0.000 A 
ATOM      7  S   UNL     1      53.184   6.531  16.633  0.00  0.00    +0.000 S 
ATOM      8  C   UNL     1      52.233   5.265  17.229  0.00  0.00    +0.000 A 
ATOM      9  N   UNL     1      52.813   4.216  17.872  0.00  0.00    +0.000 NA
ATOM     10  C   UNL     1      51.986   3.309  18.271  0.00  0.00    +0.000 A 
ATOM     11  N   UNL     1      50.630   3.369  18.100  0.00  0.00    +0.000 N 
ATOM     12  C   UNL     1      49.997   4.435  17.504  0.00  0.00    +0.000 A 
ATOM     13  O   UNL     1      48.774   4.485  17.456  0.00  0.00    +0.000 OA
ATOM     14  C   UNL     1      50.885   5.462  16.983  0.00  0.00    +0.000 A 
ATOM     15  C   UNL     1      50.618   6.673  16.219  0.00  0.00    +0.000 A 
ATOM     16  H   UNL     1      50.031   2.645  18.467  0.00  0.00    +0.000 HD
ENDBRANCH   1  15
BRANCH   3  17
ATOM     17  C   UNL     1      47.866   7.573  13.762  0.00  0.00    +0.000 C 
BRANCH  17  18
ATOM     18  C   UNL     1      46.988   6.476  13.219  0.00  0.00    +0.000 A 
ATOM     19  C   UNL     1      47.044   5.186  13.764  0.00  0.00    +0.000 A 
ATOM     20  C   UNL     1      46.235   4.164  13.261  0.00  0.00    +0.000 A 
ATOM     21  C   UNL     1      45.371   4.400  12.182  0.00  0.00    +0.000 A 
ATOM     22  C   UNL     1      45.311   5.689  11.638  0.00  0.00    +0.000 A 
ATOM     23  C   UNL     1      46.115   6.715  12.148  0.00  0.00    +0.000 A 
BRANCH  21  24
ATOM     24  C   UNL     1      44.531   3.278  11.615  0.00  0.00    +0.000 C 
BRANCH  24  25
ATOM     25  N   UNL     1      44.060   3.619  10.277  0.00  0.00    +0.000 N 
ATOM     26  H   UNL     1      43.709   4.571  10.228  0.00  0.00    +0.000 HD
BRANCH  25  27
ATOM     27  C   UNL     1      44.916   3.315   9.205  0.00  0.00    +0.000 A 
ATOM     28  C   UNL     1      45.397   2.011   9.051  0.00  0.00    +0.000 A 
ATOM     29  C   UNL     1      46.288   1.699   8.020  0.00  0.00    +0.000 A 
ATOM     30  C   UNL     1      46.705   2.716   7.180  0.00  0.00    +0.000 A 
ATOM     31  N   UNL     1      46.312   3.997   7.311  0.00  0.00    +0.000 NA
ATOM     32  C   UNL     1      45.450   4.263   8.325  0.00  0.00    +0.000 A 
ENDBRANCH  25  27
ENDBRANCH  24  25
ENDBRANCH  21  24
ENDBRANCH  17  18
ENDBRANCH   3  17
TORSDOF 6
ENDMDL
MODEL 8
REMARK VINA RESULT:    -6.971      3.346      7.586
REMARK INTER + INTRA:         -10.387
REMARK INTER:                  -8.977
REMARK INTRA:                  -1.409
REMARK UNBOUND:                -0.970
REMARK  Name = 
REMARK  7 active torsions:
REMARK  status: ('A' for Active; 'I' for Inactive)
REMARK    1  A    between atoms: C_1  and  C_2
REMARK    2  A    between atoms: C_11  and  C_12
REMARK    3  A    between atoms: N_14  and  C_15
REMARK    4  A    between atoms: C_15  and  C_16
REMARK    5  A    between atoms: C_19  and  C_20
REMARK    6  A    between atoms: C_20  and  N_21
REMARK    7  A    between atoms: N_21  and  C_22
REMARK                            x       y       z     vdW  Elec       q    Type
REMARK                         _______ _______ _______ _____ _____    ______ ____
ROOT
ATOM      1  C   UNL     1      47.541   7.998  13.505  0.00  0.00    +0.000 C 
ATOM      2  O   UNL     1      48.637   8.120  12.959  0.00  0.00    +0.000 OA
ATOM      3  N   UNL     1      47.349   8.477  14.778  0.00  0.00    +0.000 N 
ATOM      4  H   UNL     1      46.480   8.311  15.275  0.00  0.00    +0.000 HD
ENDROOT
BRANCH   1  15
ATOM      5  C   UNL     1      45.482   9.604  11.806  0.00  0.00    +0.000 C 
ATOM      6  C   UNL     1      45.482   8.129  12.078  0.00  0.00    +0.000 A 
ATOM      7  S   UNL     1      44.197   7.207  11.425  0.00  0.00    +0.000 S 
ATOM      8  C   UNL     1      44.801   5.769  12.078  0.00  0.00    +0.000 A 
ATOM      9  N   UNL     1      44.134   4.597  11.891  0.00  0.00    +0.000 NA
ATOM     10  C   UNL     1      44.687   3.572  12.446  0.00  0.00    +0.000 A 
ATOM     11  N   UNL     1      45.857   3.612  13.154  0.00  0.00    +0.000 N 
ATOM     12  C   UNL     1      46.591   4.763  13.323  0.00  0.00    +0.000 A 
ATOM     13  O   UNL     1      47.679   4.731  13.886  0.00  0.00    +0.000 OA
ATOM     14  C   UNL     1      45.986   5.963  12.767  0.00  0.00    +0.000 A 
ATOM     15  C   UNL     1      46.392   7.361  12.816  0.00  0.00    +0.000 A 
ATOM     16  H   UNL     1      46.260   2.768  13.534  0.00  0.00    +0.000 HD
ENDBRANCH   1  15
BRANCH   3  17
ATOM     17  C   UNL     1      48.416   9.129  15.499  0.00  0.00    +0.000 C 
BRANCH  17  18
ATOM     18  C   UNL     1      49.156   8.178  16.404  0.00  0.00    +0.000 A 
ATOM     19  C   UNL     1      50.257   7.454  15.926  0.00  0.00    +0.000 A 
ATOM     20  C   UNL     1      50.943   6.567  16.760  0.00  0.00    +0.000 A 
ATOM     21  C   UNL     1      50.528   6.362  18.084  0.00  0.00    +0.000 A 
ATOM     22  C   UNL     1      49.429   7.086  18.564  0.00  0.00    +0.000 A 
ATOM     23  C   UNL     1      48.747   7.981  17.731  0.00  0.00    +0.000 A 
BRANCH  21  24
ATOM     24  C   UNL     1      51.249   5.368  18.967  0.00  0.00    +0.000 C 
BRANCH  24  25
ATOM     25  N   UNL     1      50.366   4.260  19.314  0.00  0.00    +0.000 N 
ATOM     26  H   UNL     1      49.700   4.517  20.039  0.00  0.00    +0.000 HD
BRANCH  25  27
ATOM     27  C   UNL     1      49.752   3.577  18.252  0.00  0.00    +0.000 A 
ATOM     28  C   UNL     1      48.361   3.618  18.113  0.00  0.00    +0.000 A 
ATOM     29  C   UNL     1      47.727   2.906  17.092  0.00  0.00    +0.000 A 
ATOM     30  C   UNL     1      48.504   2.134  16.247  0.00  0.00    +0.000 A 
ATOM     31  N   UNL     1      49.840   2.020  16.363  0.00  0.00    +0.000 NA
ATOM     32  C   UNL     1      50.421   2.723  17.368  0.00  0.00    +0.000 A 
ENDBRANCH  25  27
ENDBRANCH  24  25
ENDBRANCH  21  24
ENDBRANCH  17  18
ENDBRANCH   3  17
TORSDOF 6
ENDMDL
MODEL 9
REMARK VINA RESULT:    -6.788      3.541      4.264
REMARK INTER + INTRA:         -10.140
REMARK INTER:                  -9.197
REMARK INTRA:                  -0.943
REMARK UNBOUND:                -0.970
REMARK  Name = 
REMARK  7 active torsions:
REMARK  status: ('A' for Active; 'I' for Inactive)
REMARK    1  A    between atoms: C_1  and  C_2
REMARK    2  A    between atoms: C_11  and  C_12
REMARK    3  A    between atoms: N_14  and  C_15
REMARK    4  A    between atoms: C_15  and  C_16
REMARK    5  A    between atoms: C_19  and  C_20
REMARK    6  A    between atoms: C_20  and  N_21
REMARK    7  A    between atoms: N_21  and  C_22
REMARK                            x       y       z     vdW  Elec       q    Type
REMARK                         _______ _______ _______ _____ _____    ______ ____
ROOT
ATOM      1  C   UNL     1      47.844   8.928  13.789  0.00  0.00    +0.000 C 
ATOM      2  O   UNL     1      47.438   8.797  14.944  0.00  0.00    +0.000 OA
ATOM      3  N   UNL     1      46.996   8.704  12.733  0.00  0.00    +0.000 N 
ATOM      4  H   UNL     1      47.334   8.725  11.775  0.00  0.00    +0.000 HD
ENDROOT
BRANCH   1  15
ATOM      5  C   UNL     1      49.177  11.414  15.111  0.00  0.00    +0.000 C 
ATOM      6  C   UNL     1      49.785  10.487  14.101  0.00  0.00    +0.000 A 
ATOM      7  S   UNL     1      51.374  10.832  13.569  0.00  0.00    +0.000 S 
ATOM      8  C   UNL     1      51.397   9.493  12.536  0.00  0.00    +0.000 A 
ATOM      9  N   UNL     1      52.491   9.238  11.767  0.00  0.00    +0.000 NA
ATOM     10  C   UNL     1      52.384   8.196  11.014  0.00  0.00    +0.000 A 
ATOM     11  N   UNL     1      51.289   7.377  10.976  0.00  0.00    +0.000 N 
ATOM     12  C   UNL     1      50.185   7.566  11.773  0.00  0.00    +0.000 A 
ATOM     13  O   UNL     1      49.267   6.754  11.770  0.00  0.00    +0.000 OA
ATOM     14  C   UNL     1      50.224   8.760  12.603  0.00  0.00    +0.000 A 
ATOM     15  C   UNL     1      49.235   9.350  13.494  0.00  0.00    +0.000 A 
ATOM     16  H   UNL     1      51.280   6.554  10.391  0.00  0.00    +0.000 HD
ENDBRANCH   1  15
BRANCH   3  17
ATOM     17  C   UNL     1      45.623   8.314  12.946  0.00  0.00    +0.000 C 
BRANCH  17  18
ATOM     18  C   UNL     1      45.308   6.976  12.330  0.00  0.00    +0.000 A 
ATOM     19  C   UNL     1      45.774   6.659  11.046  0.00  0.00    +0.000 A 
ATOM     20  C   UNL     1      45.480   5.420  10.467  0.00  0.00    +0.000 A 
ATOM     21  C   UNL     1      44.692   4.481  11.147  0.00  0.00    +0.000 A 
ATOM     22  C   UNL     1      44.229   4.795  12.431  0.00  0.00    +0.000 A 
ATOM     23  C   UNL     1      44.529   6.032  13.014  0.00  0.00    +0.000 A 
BRANCH  21  24
ATOM     24  C   UNL     1      44.343   3.161  10.497  0.00  0.00    +0.000 C 
BRANCH  24  25
ATOM     25  N   UNL     1      44.358   3.288   9.043  0.00  0.00    +0.000 N 
ATOM     26  H   UNL     1      44.241   4.253   8.745  0.00  0.00    +0.000 HD
BRANCH  25  27
ATOM     27  C   UNL     1      45.402   2.646   8.359  0.00  0.00    +0.000 A 
ATOM     28  C   UNL     1      46.116   3.340   7.377  0.00  0.00    +0.000 A 
ATOM     29  C   UNL     1      47.127   2.705   6.649  0.00  0.00    +0.000 A 
ATOM     30  C   UNL     1      47.378   1.369   6.901  0.00  0.00    +0.000 A 
ATOM     31  N   UNL     1      46.691   0.639   7.801  0.00  0.00    +0.000 NA
ATOM     32  C   UNL     1      45.715   1.289   8.485  0.00  0.00    +0.000 A 
ENDBRANCH  25  27
ENDBRANCH  24  25
ENDBRANCH  21  24
ENDBRANCH  17  18
ENDBRANCH   3  17
TORSDOF 6
ENDMDL
