MODEL 1
REMARK VINA RESULT:    -8.372      0.000      0.000
REMARK INTER + INTRA:         -11.802
REMARK INTER:                 -10.819
REMARK INTRA:                  -0.983
REMARK UNBOUND:                -0.983
REMARK  Name = 
REMARK  5 active torsions:
REMARK  status: ('A' for Active; 'I' for Inactive)
REMARK    1  A    between atoms: C_2  and  C_4
REMARK    2  A    between atoms: C_7  and  C_8
REMARK    3  A    between atoms: C_8  and  N_9
REMARK    4  A    between atoms: N_9  and  C_10
REMARK    5  A    between atoms: C_14  and  N_15
REMARK                            x       y       z     vdW  Elec       q    Type
REMARK                         _______ _______ _______ _____ _____    ______ ____
ROOT
ATOM      1  N   UNL     1      44.199   5.650  10.822  0.00  0.00    +0.000 N 
ATOM      2  H   UNL     1      44.533   6.251  10.067  0.00  0.00    +0.000 HD
ENDROOT
BRANCH   1   3
ATOM      3  C   UNL     1      45.169   5.586  11.833  0.00  0.00    +0.000 A 
ATOM      4  C   UNL     1      45.245   4.585  12.800  0.00  0.00    +0.000 A 
ATOM      5  C   UNL     1      46.273   4.591  13.743  0.00  0.00    +0.000 A 
ATOM      6  C   UNL     1      47.229   5.610  13.739  0.00  0.00    +0.000 A 
ATOM      7  C   UNL     1      47.170   6.661  12.816  0.00  0.00    +0.000 A 
ATOM      8  C   UNL     1      46.091   6.644  11.917  0.00  0.00    +0.000 A 
BRANCH   7   9
ATOM      9  N   UNL     1      48.155   7.629  12.747  0.00  0.00    +0.000 N 
ATOM     10  C   UNL     1      47.840   9.051  12.906  0.00  0.00    +0.000 C 
ATOM     11  C   UNL     1      48.435   9.841  11.740  0.00  0.00    +0.000 C 
ATOM     12  C   UNL     1      49.918   9.541  11.545  0.00  0.00    +0.000 C 
ATOM     13  C   UNL     1      50.170   8.037  11.440  0.00  0.00    +0.000 C 
ATOM     14  C   UNL     1      49.573   7.295  12.635  0.00  0.00    +0.000 C 
ENDBRANCH   7   9
ENDBRANCH   1   3
BRANCH   1  15
ATOM     15  C   UNL     1      43.604   4.422  10.312  0.00  0.00    +0.000 C 
BRANCH  15  19
ATOM     16  C   UNL     1      46.434   2.423   7.708  0.00  0.00    +0.000 A 
ATOM     17  C   UNL     1      46.261   3.810   7.624  0.00  0.00    +0.000 A 
ATOM     18  C   UNL     1      45.330   4.453   8.450  0.00  0.00    +0.000 A 
ATOM     19  C   UNL     1      44.559   3.722   9.369  0.00  0.00    +0.000 A 
ATOM     20  C   UNL     1      44.724   2.330   9.426  0.00  0.00    +0.000 A 
ATOM     21  C   UNL     1      45.649   1.685   8.600  0.00  0.00    +0.000 A 
BRANCH  16  23
ATOM     22  N   UNL     1      48.506   2.394   6.422  0.00  0.00    +0.000 N 
ATOM     23  C   UNL     1      47.414   1.699   6.854  0.00  0.00    +0.000 C 
ATOM     24  O   UNL     1      47.277   0.514   6.579  0.00  0.00    +0.000 OA
ATOM     25  H   UNL     1      49.217   1.852   5.942  0.00  0.00    +0.000 HD
ATOM     26  H   UNL     1      48.791   3.269   6.839  0.00  0.00    +0.000 HD
ENDBRANCH  16  23
ENDBRANCH  15  19
ENDBRANCH   1  15
TORSDOF 5
ENDMDL
MODEL 2
REMARK VINA RESULT:    -8.049      2.073      3.654
REMARK INTER + INTRA:         -11.384
REMARK INTER:                 -10.539
REMARK INTRA:                  -0.845
REMARK UNBOUND:                -0.983
REMARK  Name = 
REMARK  5 active torsions:
REMARK  status: ('A' for Active; 'I' for Inactive)
REMARK    1  A    between atoms: C_2  and  C_4
REMARK    2  A    between atoms: C_7  and  C_8
REMARK    3  A    between atoms: C_8  and  N_9
REMARK    4  A    between atoms: N_9  and  C_10
REMARK    5  A    between atoms: C_14  and  N_15
REMARK                            x       y       z     vdW  Elec       q    Type
REMARK                         _______ _______ _______ _____ _____    ______ ____
ROOT
ATOM      1  N   UNL     1      44.546   3.910  12.016  0.00  0.00    +0.000 N 
ATOM      2  H   UNL     1      43.853   3.709  12.740  0.00  0.00    +0.000 HD
ENDROOT
BRANCH   1   3
ATOM      3  C   UNL     1      45.507   4.797  12.523  0.00  0.00    +0.000 A 
ATOM      4  C   UNL     1      45.814   6.039  11.967  0.00  0.00    +0.000 A 
ATOM      5  C   UNL     1      46.762   6.866  12.569  0.00  0.00    +0.000 A 
ATOM      6  C   UNL     1      47.427   6.453  13.726  0.00  0.00    +0.000 A 
ATOM      7  C   UNL     1      47.185   5.198  14.297  0.00  0.00    +0.000 A 
ATOM      8  C   UNL     1      46.260   4.376  13.631  0.00  0.00    +0.000 A 
BRANCH   7   9
ATOM      9  N   UNL     1      47.773   4.811  15.487  0.00  0.00    +0.000 N 
ATOM     10  C   UNL     1      47.696   3.427  15.962  0.00  0.00    +0.000 C 
ATOM     11  C   UNL     1      47.195   3.408  17.406  0.00  0.00    +0.000 C 
ATOM     12  C   UNL     1      48.003   4.339  18.304  0.00  0.00    +0.000 C 
ATOM     13  C   UNL     1      48.081   5.748  17.714  0.00  0.00    +0.000 C 
ATOM     14  C   UNL     1      48.603   5.715  16.279  0.00  0.00    +0.000 C 
ENDBRANCH   7   9
ENDBRANCH   1   3
BRANCH   1  15
ATOM     15  C   UNL     1      43.919   4.180  10.730  0.00  0.00    +0.000 C 
BRANCH  15  19
ATOM     16  C   UNL     1      46.499   2.693   7.580  0.00  0.00    +0.000 A 
ATOM     17  C   UNL     1      46.274   4.068   7.713  0.00  0.00    +0.000 A 
ATOM     18  C   UNL     1      45.422   4.547   8.716  0.00  0.00    +0.000 A 
ATOM     19  C   UNL     1      44.783   3.662   9.600  0.00  0.00    +0.000 A 
ATOM     20  C   UNL     1      44.996   2.284   9.441  0.00  0.00    +0.000 A 
ATOM     21  C   UNL     1      45.842   1.802   8.437  0.00  0.00    +0.000 A 
BRANCH  16  23
ATOM     22  N   UNL     1      47.496   2.830   5.360  0.00  0.00    +0.000 N 
ATOM     23  C   UNL     1      47.398   2.139   6.532  0.00  0.00    +0.000 C 
ATOM     24  O   UNL     1      48.061   1.128   6.720  0.00  0.00    +0.000 OA
ATOM     25  H   UNL     1      48.201   2.501   4.707  0.00  0.00    +0.000 HD
ATOM     26  H   UNL     1      47.189   3.788   5.267  0.00  0.00    +0.000 HD
ENDBRANCH  16  23
ENDBRANCH  15  19
ENDBRANCH   1  15
TORSDOF 5
ENDMDL
MODEL 3
REMARK VINA RESULT:    -7.865      2.335      3.079
REMARK INTER + INTRA:         -11.147
REMARK INTER:                 -10.253
REMARK INTRA:                  -0.894
REMARK UNBOUND:                -0.983
REMARK  Name = 
REMARK  5 active torsions:
REMARK  status: ('A' for Active; 'I' for Inactive)
REMARK    1  A    between atoms: C_2  and  C_4
REMARK    2  A    between atoms: C_7  and  C_8
REMARK    3  A    between atoms: C_8  and  N_9
REMARK    4  A    between atoms: N_9  and  C_10
REMARK    5  A    between atoms: C_14  and  N_15
REMARK                            x       y       z     vdW  Elec       q    Type
REMARK                         _______ _______ _______ _____ _____    ______ ____
ROOT
ATOM      1  N   UNL     1      44.562   4.828  11.664  0.00  0.00    +0.000 N 
ATOM      2  H   UNL     1      43.927   4.568  12.421  0.00  0.00    +0.000 HD
ENDROOT
BRANCH   1   3
ATOM      3  C   UNL     1      45.253   5.998  12.014  0.00  0.00    +0.000 A 
ATOM      4  C   UNL     1      46.474   6.028  12.685  0.00  0.00    +0.000 A 
ATOM      5  C   UNL     1      47.100   7.245  12.955  0.00  0.00    +0.000 A 
ATOM      6  C   UNL     1      46.502   8.448  12.570  0.00  0.00    +0.000 A 
ATOM      7  C   UNL     1      45.257   8.471  11.932  0.00  0.00    +0.000 A 
ATOM      8  C   UNL     1      44.637   7.227  11.725  0.00  0.00    +0.000 A 
BRANCH   7   9
ATOM      9  N   UNL     1      44.693   9.647  11.471  0.00  0.00    +0.000 N 
ATOM     10  C   UNL     1      43.381   9.660  10.821  0.00  0.00    +0.000 C 
ATOM     11  C   UNL     1      43.477  10.401   9.486  0.00  0.00    +0.000 C 
ATOM     12  C   UNL     1      44.119  11.776   9.641  0.00  0.00    +0.000 C 
ATOM     13  C   UNL     1      45.458  11.683  10.374  0.00  0.00    +0.000 C 
ATOM     14  C   UNL     1      45.306  10.952  11.707  0.00  0.00    +0.000 C 
ENDBRANCH   7   9
ENDBRANCH   1   3
BRANCH   1  15
ATOM     15  C   UNL     1      43.916   4.731  10.362  0.00  0.00    +0.000 C 
BRANCH  15  19
ATOM     16  C   UNL     1      46.503   2.506   7.688  0.00  0.00    +0.000 A 
ATOM     17  C   UNL     1      46.442   3.902   7.606  0.00  0.00    +0.000 A 
ATOM     18  C   UNL     1      45.588   4.619   8.454  0.00  0.00    +0.000 A 
ATOM     19  C   UNL     1      44.786   3.955   9.395  0.00  0.00    +0.000 A 
ATOM     20  C   UNL     1      44.837   2.554   9.452  0.00  0.00    +0.000 A 
ATOM     21  C   UNL     1      45.684   1.835   8.603  0.00  0.00    +0.000 A 
BRANCH  16  23
ATOM     22  N   UNL     1      48.496   2.326   6.296  0.00  0.00    +0.000 N 
ATOM     23  C   UNL     1      47.397   1.703   6.811  0.00  0.00    +0.000 C 
ATOM     24  O   UNL     1      47.188   0.518   6.588  0.00  0.00    +0.000 OA
ATOM     25  H   UNL     1      49.152   1.733   5.799  0.00  0.00    +0.000 HD
ATOM     26  H   UNL     1      48.847   3.199   6.663  0.00  0.00    +0.000 HD
ENDBRANCH  16  23
ENDBRANCH  15  19
ENDBRANCH   1  15
TORSDOF 5
ENDMDL
MODEL 4
REMARK VINA RESULT:    -7.609      1.520      2.493
REMARK INTER + INTRA:         -10.816
REMARK INTER:                  -9.953
REMARK INTRA:                  -0.863
REMARK UNBOUND:                -0.983
REMARK  Name = 
REMARK  5 active torsions:
REMARK  status: ('A' for Active; 'I' for Inactive)
REMARK    1  A    between atoms: C_2  and  C_4
REMARK    2  A    between atoms: C_7  and  C_8
REMARK    3  A    between atoms: C_8  and  N_9
REMARK    4  A    between atoms: N_9  and  C_10
REMARK    5  A    between atoms: C_14  and  N_15
REMARK                            x       y       z     vdW  Elec       q    Type
REMARK                         _______ _______ _______ _____ _____    ______ ____
ROOT
ATOM      1  N   UNL     1      44.532   4.809  11.732  0.00  0.00    +0.000 N 
ATOM      2  H   UNL     1      44.067   4.485  12.581  0.00  0.00    +0.000 HD
ENDROOT
BRANCH   1   3
ATOM      3  C   UNL     1      44.961   6.133  11.910  0.00  0.00    +0.000 A 
ATOM      4  C   UNL     1      44.326   7.253  11.376  0.00  0.00    +0.000 A 
ATOM      5  C   UNL     1      44.811   8.534  11.643  0.00  0.00    +0.000 A 
ATOM      6  C   UNL     1      45.948   8.707  12.435  0.00  0.00    +0.000 A 
ATOM      7  C   UNL     1      46.646   7.612  12.958  0.00  0.00    +0.000 A 
ATOM      8  C   UNL     1      46.154   6.339  12.624  0.00  0.00    +0.000 A 
BRANCH   7   9
ATOM      9  N   UNL     1      47.723   7.771  13.812  0.00  0.00    +0.000 N 
ATOM     10  C   UNL     1      48.595   6.646  14.158  0.00  0.00    +0.000 C 
ATOM     11  C   UNL     1      48.733   6.554  15.678  0.00  0.00    +0.000 C 
ATOM     12  C   UNL     1      49.146   7.887  16.296  0.00  0.00    +0.000 C 
ATOM     13  C   UNL     1      48.220   9.017  15.845  0.00  0.00    +0.000 C 
ATOM     14  C   UNL     1      48.129   9.079  14.322  0.00  0.00    +0.000 C 
ENDBRANCH   7   9
ENDBRANCH   1   3
BRANCH   1  15
ATOM     15  C   UNL     1      43.787   4.446  10.535  0.00  0.00    +0.000 C 
BRANCH  15  19
ATOM     16  C   UNL     1      46.485   2.513   7.747  0.00  0.00    +0.000 A 
ATOM     17  C   UNL     1      46.343   3.905   7.735  0.00  0.00    +0.000 A 
ATOM     18  C   UNL     1      45.453   4.528   8.621  0.00  0.00    +0.000 A 
ATOM     19  C   UNL     1      44.695   3.771   9.529  0.00  0.00    +0.000 A 
ATOM     20  C   UNL     1      44.828   2.375   9.514  0.00  0.00    +0.000 A 
ATOM     21  C   UNL     1      45.711   1.749   8.628  0.00  0.00    +0.000 A 
BRANCH  16  23
ATOM     22  N   UNL     1      48.498   2.509   6.372  0.00  0.00    +0.000 N 
ATOM     23  C   UNL     1      47.420   1.809   6.829  0.00  0.00    +0.000 C 
ATOM     24  O   UNL     1      47.261   0.635   6.522  0.00  0.00    +0.000 OA
ATOM     25  H   UNL     1      49.183   1.977   5.844  0.00  0.00    +0.000 HD
ATOM     26  H   UNL     1      48.810   3.367   6.804  0.00  0.00    +0.000 HD
ENDBRANCH  16  23
ENDBRANCH  15  19
ENDBRANCH   1  15
TORSDOF 5
ENDMDL
MODEL 5
REMARK VINA RESULT:    -7.161      4.280      8.282
REMARK INTER + INTRA:         -10.237
REMARK INTER:                  -9.604
REMARK INTRA:                  -0.632
REMARK UNBOUND:                -0.983
REMARK  Name = 
REMARK  5 active torsions:
REMARK  status: ('A' for Active; 'I' for Inactive)
REMARK    1  A    between atoms: C_2  and  C_4
REMARK    2  A    between atoms: C_7  and  C_8
REMARK    3  A    between atoms: C_8  and  N_9
REMARK    4  A    between atoms: N_9  and  C_10
REMARK    5  A    between atoms: C_14  and  N_15
REMARK                            x       y       z     vdW  Elec       q    Type
REMARK                         _______ _______ _______ _____ _____    ______ ____
ROOT
ATOM      1  N   UNL     1      46.019   4.032  13.862  0.00  0.00    +0.000 N 
ATOM      2  H   UNL     1      46.422   3.099  13.760  0.00  0.00    +0.000 HD
ENDROOT
BRANCH   1   3
ATOM      3  C   UNL     1      45.076   4.249  12.846  0.00  0.00    +0.000 A 
ATOM      4  C   UNL     1      43.905   4.991  12.993  0.00  0.00    +0.000 A 
ATOM      5  C   UNL     1      43.049   5.179  11.909  0.00  0.00    +0.000 A 
ATOM      6  C   UNL     1      43.346   4.613  10.667  0.00  0.00    +0.000 A 
ATOM      7  C   UNL     1      44.487   3.823  10.480  0.00  0.00    +0.000 A 
ATOM      8  C   UNL     1      45.296   3.617  11.610  0.00  0.00    +0.000 A 
BRANCH   7   9
ATOM      9  N   UNL     1      44.837   3.326   9.238  0.00  0.00    +0.000 N 
ATOM     10  C   UNL     1      44.796   1.891   8.951  0.00  0.00    +0.000 C 
ATOM     11  C   UNL     1      46.132   1.449   8.352  0.00  0.00    +0.000 C 
ATOM     12  C   UNL     1      46.541   2.318   7.167  0.00  0.00    +0.000 C 
ATOM     13  C   UNL     1      46.508   3.803   7.531  0.00  0.00    +0.000 C 
ATOM     14  C   UNL     1      45.150   4.198   8.108  0.00  0.00    +0.000 C 
ENDBRANCH   7   9
ENDBRANCH   1   3
BRANCH   1  15
ATOM     15  C   UNL     1      47.041   5.035  14.126  0.00  0.00    +0.000 C 
BRANCH  15  19
ATOM     16  C   UNL     1      48.687   4.559  18.108  0.00  0.00    +0.000 A 
ATOM     17  C   UNL     1      47.803   3.603  17.595  0.00  0.00    +0.000 A 
ATOM     18  C   UNL     1      47.253   3.769  16.317  0.00  0.00    +0.000 A 
ATOM     19  C   UNL     1      47.577   4.889  15.534  0.00  0.00    +0.000 A 
ATOM     20  C   UNL     1      48.445   5.853  16.069  0.00  0.00    +0.000 A 
ATOM     21  C   UNL     1      48.992   5.693  17.346  0.00  0.00    +0.000 A 
BRANCH  16  23
ATOM     22  N   UNL     1      48.520   3.902  20.450  0.00  0.00    +0.000 N 
ATOM     23  C   UNL     1      49.298   4.422  19.457  0.00  0.00    +0.000 C 
ATOM     24  O   UNL     1      50.465   4.722  19.670  0.00  0.00    +0.000 OA
ATOM     25  H   UNL     1      48.989   3.709  21.328  0.00  0.00    +0.000 HD
ATOM     26  H   UNL     1      47.664   3.400  20.261  0.00  0.00    +0.000 HD
ENDBRANCH  16  23
ENDBRANCH  15  19
ENDBRANCH   1  15
TORSDOF 5
ENDMDL
MODEL 6
REMARK VINA RESULT:    -7.142      3.057      6.841
REMARK INTER + INTRA:         -10.213
REMARK INTER:                  -9.370
REMARK INTRA:                  -0.843
REMARK UNBOUND:                -0.983
REMARK  Name = 
REMARK  5 active torsions:
REMARK  status: ('A' for Active; 'I' for Inactive)
REMARK    1  A    between atoms: C_2  and  C_4
REMARK    2  A    between atoms: C_7  and  C_8
REMARK    3  A    between atoms: C_8  and  N_9
REMARK    4  A    between atoms: N_9  and  C_10
REMARK    5  A    between atoms: C_14  and  N_15
REMARK                            x       y       z     vdW  Elec       q    Type
REMARK                         _______ _______ _______ _____ _____    ______ ____
ROOT
ATOM      1  N   UNL     1      44.009   6.948  12.124  0.00  0.00    +0.000 N 
ATOM      2  H   UNL     1      43.955   7.160  13.122  0.00  0.00    +0.000 HD
ENDROOT
BRANCH   1   3
ATOM      3  C   UNL     1      43.955   5.558  11.939  0.00  0.00    +0.000 A 
ATOM      4  C   UNL     1      43.462   4.650  12.874  0.00  0.00    +0.000 A 
ATOM      5  C   UNL     1      43.418   3.287  12.579  0.00  0.00    +0.000 A 
ATOM      6  C   UNL     1      43.882   2.816  11.349  0.00  0.00    +0.000 A 
ATOM      7  C   UNL     1      44.426   3.683  10.394  0.00  0.00    +0.000 A 
ATOM      8  C   UNL     1      44.499   5.040  10.751  0.00  0.00    +0.000 A 
BRANCH   7   9
ATOM      9  N   UNL     1      44.812   3.242   9.141  0.00  0.00    +0.000 N 
ATOM     10  C   UNL     1      44.855   1.815   8.814  0.00  0.00    +0.000 C 
ATOM     11  C   UNL     1      46.217   1.467   8.213  0.00  0.00    +0.000 C 
ATOM     12  C   UNL     1      46.583   2.392   7.056  0.00  0.00    +0.000 C 
ATOM     13  C   UNL     1      46.463   3.861   7.461  0.00  0.00    +0.000 C 
ATOM     14  C   UNL     1      45.081   4.161   8.038  0.00  0.00    +0.000 C 
ENDBRANCH   7   9
ENDBRANCH   1   3
BRANCH   1  15
ATOM     15  C   UNL     1      45.046   7.726  11.461  0.00  0.00    +0.000 C 
BRANCH  15  19
ATOM     16  C   UNL     1      48.706   7.421  13.764  0.00  0.00    +0.000 A 
ATOM     17  C   UNL     1      47.700   8.310  14.159  0.00  0.00    +0.000 A 
ATOM     18  C   UNL     1      46.527   8.426  13.401  0.00  0.00    +0.000 A 
ATOM     19  C   UNL     1      46.341   7.657  12.241  0.00  0.00    +0.000 A 
ATOM     20  C   UNL     1      47.367   6.786  11.842  0.00  0.00    +0.000 A 
ATOM     21  C   UNL     1      48.541   6.672  12.592  0.00  0.00    +0.000 A 
BRANCH  16  23
ATOM     22  N   UNL     1      51.072   7.915  14.079  0.00  0.00    +0.000 N 
ATOM     23  C   UNL     1      49.966   7.262  14.538  0.00  0.00    +0.000 C 
ATOM     24  O   UNL     1      50.010   6.607  15.571  0.00  0.00    +0.000 OA
ATOM     25  H   UNL     1      51.887   7.889  14.683  0.00  0.00    +0.000 HD
ATOM     26  H   UNL     1      51.018   8.665  13.405  0.00  0.00    +0.000 HD
ENDBRANCH  16  23
ENDBRANCH  15  19
ENDBRANCH   1  15
TORSDOF 5
ENDMDL
MODEL 7
REMARK VINA RESULT:    -7.030      4.672      7.868
REMARK INTER + INTRA:         -10.068
REMARK INTER:                  -9.267
REMARK INTRA:                  -0.801
REMARK UNBOUND:                -0.983
REMARK  Name = 
REMARK  5 active torsions:
REMARK  status: ('A' for Active; 'I' for Inactive)
REMARK    1  A    between atoms: C_2  and  C_4
REMARK    2  A    between atoms: C_7  and  C_8
REMARK    3  A    between atoms: C_8  and  N_9
REMARK    4  A    between atoms: N_9  and  C_10
REMARK    5  A    between atoms: C_14  and  N_15
REMARK                            x       y       z     vdW  Elec       q    Type
REMARK                         _______ _______ _______ _____ _____    ______ ____
ROOT
ATOM      1  N   UNL     1      46.703   4.308  15.416  0.00  0.00    +0.000 N 
ATOM      2  H   UNL     1      46.900   3.328  15.207  0.00  0.00    +0.000 HD
ENDROOT
BRANCH   1   3
ATOM      3  C   UNL     1      46.815   5.069  14.243  0.00  0.00    +0.000 A 
ATOM      4  C   UNL     1      47.673   6.155  14.079  0.00  0.00    +0.000 A 
ATOM      5  C   UNL     1      47.737   6.825  12.857  0.00  0.00    +0.000 A 
ATOM      6  C   UNL     1      46.931   6.425  11.789  0.00  0.00    +0.000 A 
ATOM      7  C   UNL     1      46.022   5.368  11.918  0.00  0.00    +0.000 A 
ATOM      8  C   UNL     1      45.953   4.753  13.179  0.00  0.00    +0.000 A 
BRANCH   7   9
ATOM      9  N   UNL     1      45.280   4.908  10.846  0.00  0.00    +0.000 N 
ATOM     10  C   UNL     1      44.176   3.962  11.032  0.00  0.00    +0.000 C 
ATOM     11  C   UNL     1      44.352   2.776  10.083  0.00  0.00    +0.000 C 
ATOM     12  C   UNL     1      44.563   3.224   8.641  0.00  0.00    +0.000 C 
ATOM     13  C   UNL     1      45.695   4.248   8.538  0.00  0.00    +0.000 C 
ATOM     14  C   UNL     1      45.464   5.420   9.490  0.00  0.00    +0.000 C 
ENDBRANCH   7   9
ENDBRANCH   1   3
BRANCH   1  15
ATOM     15  C   UNL     1      47.378   4.747  16.630  0.00  0.00    +0.000 C 
BRANCH  15  19
ATOM     16  C   UNL     1      50.829   2.231  17.374  0.00  0.00    +0.000 A 
ATOM     17  C   UNL     1      49.691   1.698  16.758  0.00  0.00    +0.000 A 
ATOM     18  C   UNL     1      48.567   2.505  16.539  0.00  0.00    +0.000 A 
ATOM     19  C   UNL     1      48.563   3.854  16.930  0.00  0.00    +0.000 A 
ATOM     20  C   UNL     1      49.700   4.371  17.570  0.00  0.00    +0.000 A 
ATOM     21  C   UNL     1      50.821   3.567  17.795  0.00  0.00    +0.000 A 
BRANCH  16  23
ATOM     22  N   UNL     1      51.866   0.150  18.104  0.00  0.00    +0.000 N 
ATOM     23  C   UNL     1      52.046   1.414  17.624  0.00  0.00    +0.000 C 
ATOM     24  O   UNL     1      53.168   1.833  17.372  0.00  0.00    +0.000 OA
ATOM     25  H   UNL     1      52.698  -0.430  18.156  0.00  0.00    +0.000 HD
ATOM     26  H   UNL     1      50.974  -0.322  18.068  0.00  0.00    +0.000 HD
ENDBRANCH  16  23
ENDBRANCH  15  19
ENDBRANCH   1  15
TORSDOF 5
ENDMDL
MODEL 8
REMARK VINA RESULT:    -6.721      2.746      6.879
REMARK INTER + INTRA:          -9.669
REMARK INTER:                  -8.799
REMARK INTRA:                  -0.870
REMARK UNBOUND:                -0.983
REMARK  Name = 
REMARK  5 active torsions:
REMARK  status: ('A' for Active; 'I' for Inactive)
REMARK    1  A    between atoms: C_2  and  C_4
REMARK    2  A    between atoms: C_7  and  C_8
REMARK    3  A    between atoms: C_8  and  N_9
REMARK    4  A    between atoms: N_9  and  C_10
REMARK    5  A    between atoms: C_14  and  N_15
REMARK                            x       y       z     vdW  Elec       q    Type
REMARK                         _______ _______ _______ _____ _____    ______ ____
ROOT
ATOM      1  N   UNL     1      45.590   6.091  13.170  0.00  0.00    +0.000 N 
ATOM      2  H   UNL     1      46.568   5.843  13.327  0.00  0.00    +0.000 HD
ENDROOT
BRANCH   1   3
ATOM      3  C   UNL     1      44.911   4.991  12.626  0.00  0.00    +0.000 A 
ATOM      4  C   UNL     1      43.913   4.269  13.280  0.00  0.00    +0.000 A 
ATOM      5  C   UNL     1      43.271   3.211  12.636  0.00  0.00    +0.000 A 
ATOM      6  C   UNL     1      43.631   2.853  11.335  0.00  0.00    +0.000 A 
ATOM      7  C   UNL     1      44.656   3.519  10.652  0.00  0.00    +0.000 A 
ATOM      8  C   UNL     1      45.311   4.544  11.355  0.00  0.00    +0.000 A 
BRANCH   7   9
ATOM      9  N   UNL     1      44.966   3.230   9.336  0.00  0.00    +0.000 N 
ATOM     10  C   UNL     1      45.003   1.850   8.846  0.00  0.00    +0.000 C 
ATOM     11  C   UNL     1      46.328   1.597   8.125  0.00  0.00    +0.000 C 
ATOM     12  C   UNL     1      46.610   2.653   7.062  0.00  0.00    +0.000 C 
ATOM     13  C   UNL     1      46.501   4.065   7.639  0.00  0.00    +0.000 C 
ATOM     14  C   UNL     1      45.155   4.273   8.331  0.00  0.00    +0.000 C 
ENDBRANCH   7   9
ENDBRANCH   1   3
BRANCH   1  15
ATOM     15  C   UNL     1      45.457   7.402  12.550  0.00  0.00    +0.000 C 
BRANCH  15  19
ATOM     16  C   UNL     1      49.330   9.096  11.590  0.00  0.00    +0.000 A 
ATOM     17  C   UNL     1      49.183   7.710  11.719  0.00  0.00    +0.000 A 
ATOM     18  C   UNL     1      47.936   7.164  12.053  0.00  0.00    +0.000 A 
ATOM     19  C   UNL     1      46.821   7.992  12.261  0.00  0.00    +0.000 A 
ATOM     20  C   UNL     1      46.987   9.381  12.153  0.00  0.00    +0.000 A 
ATOM     21  C   UNL     1      48.231   9.930  11.826  0.00  0.00    +0.000 A 
BRANCH  16  23
ATOM     22  N   UNL     1      50.726  11.077  11.328  0.00  0.00    +0.000 N 
ATOM     23  C   UNL     1      50.633   9.719  11.234  0.00  0.00    +0.000 C 
ATOM     24  O   UNL     1      51.602   9.047  10.909  0.00  0.00    +0.000 OA
ATOM     25  H   UNL     1      51.652  11.471  11.195  0.00  0.00    +0.000 HD
ATOM     26  H   UNL     1      50.055  11.633  11.840  0.00  0.00    +0.000 HD
ENDBRANCH  16  23
ENDBRANCH  15  19
ENDBRANCH   1  15
TORSDOF 5
ENDMDL
MODEL 9
REMARK VINA RESULT:    -6.404      4.739      7.940
REMARK INTER + INTRA:          -9.259
REMARK INTER:                  -8.423
REMARK INTRA:                  -0.837
REMARK UNBOUND:                -0.983
REMARK  Name = 
REMARK  5 active torsions:
REMARK  status: ('A' for Active; 'I' for Inactive)
REMARK    1  A    between atoms: C_2  and  C_4
REMARK    2  A    between atoms: C_7  and  C_8
REMARK    3  A    between atoms: C_8  and  N_9
REMARK    4  A    between atoms: N_9  and  C_10
REMARK    5  A    between atoms: C_14  and  N_15
REMARK                            x       y       z     vdW  Elec       q    Type
REMARK                         _______ _______ _______ _____ _____    ______ ____
ROOT
ATOM      1  N   UNL     1      48.301   6.274  15.781  0.00  0.00    +0.000 N 
ATOM      2  H   UNL     1      48.121   7.110  16.339  0.00  0.00    +0.000 HD
ENDROOT
BRANCH   1   3
ATOM      3  C   UNL     1      47.963   6.524  14.442  0.00  0.00    +0.000 A 
ATOM      4  C   UNL     1      48.507   7.545  13.663  0.00  0.00    +0.000 A 
ATOM      5  C   UNL     1      48.131   7.688  12.327  0.00  0.00    +0.000 A 
ATOM      6  C   UNL     1      47.195   6.821  11.760  0.00  0.00    +0.000 A 
ATOM      7  C   UNL     1      46.589   5.808  12.513  0.00  0.00    +0.000 A 
ATOM      8  C   UNL     1      46.957   5.730  13.866  0.00  0.00    +0.000 A 
BRANCH   7   9
ATOM      9  N   UNL     1      45.724   4.891  11.943  0.00  0.00    +0.000 N 
ATOM     10  C   UNL     1      45.145   5.111  10.616  0.00  0.00    +0.000 C 
ATOM     11  C   UNL     1      43.627   4.938  10.684  0.00  0.00    +0.000 C 
ATOM     12  C   UNL     1      43.231   3.617  11.335  0.00  0.00    +0.000 C 
ATOM     13  C   UNL     1      43.917   3.440  12.690  0.00  0.00    +0.000 C 
ATOM     14  C   UNL     1      45.430   3.603  12.566  0.00  0.00    +0.000 C 
ENDBRANCH   7   9
ENDBRANCH   1   3
BRANCH   1  15
ATOM     15  C   UNL     1      47.810   5.069  16.437  0.00  0.00    +0.000 C 
BRANCH  15  19
ATOM     16  C   UNL     1      51.041   2.361  17.445  0.00  0.00    +0.000 A 
ATOM     17  C   UNL     1      51.221   3.744  17.564  0.00  0.00    +0.000 A 
ATOM     18  C   UNL     1      50.185   4.620  17.216  0.00  0.00    +0.000 A 
ATOM     19  C   UNL     1      48.956   4.129  16.746  0.00  0.00    +0.000 A 
ATOM     20  C   UNL     1      48.796   2.742  16.607  0.00  0.00    +0.000 A 
ATOM     21  C   UNL     1      49.830   1.865  16.948  0.00  0.00    +0.000 A 
BRANCH  16  23
ATOM     22  N   UNL     1      51.729   0.122  18.122  0.00  0.00    +0.000 N 
ATOM     23  C   UNL     1      52.111   1.393  17.807  0.00  0.00    +0.000 C 
ATOM     24  O   UNL     1      53.295   1.702  17.785  0.00  0.00    +0.000 OA
ATOM     25  H   UNL     1      52.478  -0.550  18.250  0.00  0.00    +0.000 HD
ATOM     26  H   UNL     1      50.814  -0.241  17.893  0.00  0.00    +0.000 HD
ENDBRANCH  16  23
ENDBRANCH  15  19
ENDBRANCH   1  15
TORSDOF 5
ENDMDL
