MODEL 1
REMARK VINA RESULT:    -8.085      0.000      0.000
REMARK INTER + INTRA:         -12.701
REMARK INTER:                 -11.393
REMARK INTRA:                  -1.308
REMARK UNBOUND:                -1.308
REMARK  Name = 
REMARK  7 active torsions:
REMARK  status: ('A' for Active; 'I' for Inactive)
REMARK    1  A    between atoms: C_2  and  C_3
REMARK    2  A    between atoms: C_3  and  N_4
REMARK    3  A    between atoms: C_3  and  C_17
REMARK    4  A    between atoms: C_5  and  C_7
REMARK    5  A    between atoms: C_20  and  C_21
REMARK    6  A    between atoms: C_21  and  N_22
REMARK    7  A    between atoms: C_23  and  C_25
REMARK                            x       y       z     vdW  Elec       q    Type
REMARK                         _______ _______ _______ _____ _____    ______ ____
ROOT
ATOM      1  C   UNL     1      47.963   8.129  14.352  0.00  0.00    +0.000 C 
ENDROOT
BRANCH   1   2
ATOM      2  C   UNL     1      46.962   7.401  13.465  0.00  0.00    +0.000 A 
ATOM      3  C   UNL     1      47.047   6.005  13.316  0.00  0.00    +0.000 A 
ATOM      4  C   UNL     1      46.191   5.323  12.441  0.00  0.00    +0.000 A 
ATOM      5  C   UNL     1      45.251   6.026  11.679  0.00  0.00    +0.000 A 
ATOM      6  C   UNL     1      45.138   7.411  11.851  0.00  0.00    +0.000 A 
ATOM      7  C   UNL     1      45.990   8.090  12.725  0.00  0.00    +0.000 A 
BRANCH   5   8
ATOM      8  C   UNL     1      44.369   5.321  10.683  0.00  0.00    +0.000 C 
BRANCH   8   9
ATOM      9  N   UNL     1      45.136   4.686   9.645  0.00  0.00    +0.000 N 
ATOM     10  C   UNL     1      44.874   3.377   9.301  0.00  0.00    +0.000 C 
ATOM     11  O   UNL     1      44.004   2.700   9.835  0.00  0.00    +0.000 OA
ATOM     12  H   UNL     1      45.699   5.265   9.038  0.00  0.00    +0.000 HD
BRANCH  10  13
ATOM     13  C   UNL     1      45.698   2.809   8.199  0.00  0.00    +0.000 A 
ATOM     14  C   UNL     1      46.050   3.575   7.080  0.00  0.00    +0.000 A 
ATOM     15  C   UNL     1      46.836   3.014   6.070  0.00  0.00    +0.000 A 
ATOM     16  C   UNL     1      47.274   1.694   6.181  0.00  0.00    +0.000 A 
ATOM     17  C   UNL     1      46.938   0.935   7.298  0.00  0.00    +0.000 A 
ATOM     18  C   UNL     1      46.153   1.491   8.312  0.00  0.00    +0.000 A 
ENDBRANCH  10  13
ENDBRANCH   8   9
ENDBRANCH   5   8
ENDBRANCH   1   2
BRANCH   1  19
ATOM     19  N   UNL     1      48.774   7.138  15.048  0.00  0.00    +0.000 N 
ATOM     20  C   UNL     1      49.012   7.270  16.394  0.00  0.00    +0.000 C 
ATOM     21  O   UNL     1      48.509   8.168  17.059  0.00  0.00    +0.000 OA
ATOM     22  H   UNL     1      49.361   6.526  14.499  0.00  0.00    +0.000 HD
BRANCH  20  23
ATOM     23  C   UNL     1      49.842   6.229  16.992  0.00  0.00    +0.000 A 
ATOM     24  C   UNL     1      51.118   6.442  17.491  0.00  0.00    +0.000 A 
ATOM     25  S   UNL     1      51.918   4.989  17.916  0.00  0.00    +0.000 S 
ATOM     26  C   UNL     1      50.578   4.046  17.451  0.00  0.00    +0.000 A 
ATOM     27  N   UNL     1      50.615   2.687  17.491  0.00  0.00    +0.000 NA
ATOM     28  C   UNL     1      49.525   2.118  17.088  0.00  0.00    +0.000 A 
ATOM     29  N   UNL     1      48.393   2.781  16.685  0.00  0.00    +0.000 N 
ATOM     30  C   UNL     1      48.274   4.152  16.735  0.00  0.00    +0.000 A 
ATOM     31  O   UNL     1      47.189   4.702  16.598  0.00  0.00    +0.000 OA
ATOM     32  C   UNL     1      49.515   4.832  17.055  0.00  0.00    +0.000 A 
ATOM     33  H   UNL     1      47.547   2.278  16.466  0.00  0.00    +0.000 HD
ENDBRANCH  20  23
ENDBRANCH   1  19
BRANCH   1  35
ATOM     34  N   UNL     1      49.469   9.883  13.067  0.00  0.00    +0.000 NA
ATOM     35  C   UNL     1      48.818   9.091  13.610  0.00  0.00    +0.000 C 
ENDBRANCH   1  35
TORSDOF 7
ENDMDL
MODEL 2
REMARK VINA RESULT:    -8.063      2.452      3.712
REMARK INTER + INTRA:         -12.670
REMARK INTER:                 -11.404
REMARK INTRA:                  -1.267
REMARK UNBOUND:                -1.308
REMARK  Name = 
REMARK  7 active torsions:
REMARK  status: ('A' for Active; 'I' for Inactive)
REMARK    1  A    between atoms: C_2  and  C_3
REMARK    2  A    between atoms: C_3  and  N_4
REMARK    3  A    between atoms: C_3  and  C_17
REMARK    4  A    between atoms: C_5  and  C_7
REMARK    5  A    between atoms: C_20  and  C_21
REMARK    6  A    between atoms: C_21  and  N_22
REMARK    7  A    between atoms: C_23  and  C_25
REMARK                            x       y       z     vdW  Elec       q    Type
REMARK                         _______ _______ _______ _____ _____    ______ ____
ROOT
ATOM      1  C   UNL     1      47.780   4.910  15.526  0.00  0.00    +0.000 C 
ENDROOT
BRANCH   1   2
ATOM      2  C   UNL     1      46.942   5.137  14.275  0.00  0.00    +0.000 A 
ATOM      3  C   UNL     1      45.873   4.270  13.984  0.00  0.00    +0.000 A 
ATOM      4  C   UNL     1      45.140   4.407  12.797  0.00  0.00    +0.000 A 
ATOM      5  C   UNL     1      45.478   5.397  11.867  0.00  0.00    +0.000 A 
ATOM      6  C   UNL     1      46.517   6.285  12.169  0.00  0.00    +0.000 A 
ATOM      7  C   UNL     1      47.246   6.149  13.353  0.00  0.00    +0.000 A 
BRANCH   5   8
ATOM      8  C   UNL     1      44.747   5.518  10.556  0.00  0.00    +0.000 C 
BRANCH   8   9
ATOM      9  N   UNL     1      45.444   4.844   9.492  0.00  0.00    +0.000 N 
ATOM     10  C   UNL     1      45.127   3.539   9.183  0.00  0.00    +0.000 C 
ATOM     11  O   UNL     1      44.265   2.896   9.770  0.00  0.00    +0.000 OA
ATOM     12  H   UNL     1      45.992   5.396   8.849  0.00  0.00    +0.000 HD
BRANCH  10  13
ATOM     13  C   UNL     1      45.878   2.930   8.052  0.00  0.00    +0.000 A 
ATOM     14  C   UNL     1      46.189   3.665   6.900  0.00  0.00    +0.000 A 
ATOM     15  C   UNL     1      46.907   3.065   5.863  0.00  0.00    +0.000 A 
ATOM     16  C   UNL     1      47.320   1.738   5.978  0.00  0.00    +0.000 A 
ATOM     17  C   UNL     1      47.026   1.009   7.126  0.00  0.00    +0.000 A 
ATOM     18  C   UNL     1      46.308   1.603   8.168  0.00  0.00    +0.000 A 
ENDBRANCH  10  13
ENDBRANCH   8   9
ENDBRANCH   5   8
ENDBRANCH   1   2
BRANCH   1  19
ATOM     19  N   UNL     1      48.007   6.195  16.174  0.00  0.00    +0.000 N 
ATOM     20  C   UNL     1      49.268   6.535  16.597  0.00  0.00    +0.000 C 
ATOM     21  O   UNL     1      50.239   5.817  16.392  0.00  0.00    +0.000 OA
ATOM     22  H   UNL     1      47.209   6.696  16.539  0.00  0.00    +0.000 HD
BRANCH  20  23
ATOM     23  C   UNL     1      49.385   7.840  17.242  0.00  0.00    +0.000 A 
ATOM     24  C   UNL     1      50.138   8.891  16.742  0.00  0.00    +0.000 A 
ATOM     25  S   UNL     1      50.257  10.204  17.834  0.00  0.00    +0.000 S 
ATOM     26  C   UNL     1      49.302   9.402  18.994  0.00  0.00    +0.000 A 
ATOM     27  N   UNL     1      49.064   9.945  20.218  0.00  0.00    +0.000 NA
ATOM     28  C   UNL     1      48.337   9.204  20.991  0.00  0.00    +0.000 A 
ATOM     29  N   UNL     1      47.801   7.990  20.641  0.00  0.00    +0.000 N 
ATOM     30  C   UNL     1      47.924   7.457  19.378  0.00  0.00    +0.000 A 
ATOM     31  O   UNL     1      47.247   6.501  19.021  0.00  0.00    +0.000 OA
ATOM     32  C   UNL     1      48.838   8.191  18.523  0.00  0.00    +0.000 A 
ATOM     33  H   UNL     1      47.171   7.503  21.260  0.00  0.00    +0.000 HD
ENDBRANCH  20  23
ENDBRANCH   1  19
BRANCH   1  35
ATOM     34  N   UNL     1      46.689   3.219  17.243  0.00  0.00    +0.000 NA
ATOM     35  C   UNL     1      47.175   3.936  16.471  0.00  0.00    +0.000 C 
ENDBRANCH   1  35
TORSDOF 7
ENDMDL
MODEL 3
REMARK VINA RESULT:    -7.619      4.191      7.117
REMARK INTER + INTRA:         -12.046
REMARK INTER:                 -10.898
REMARK INTRA:                  -1.148
REMARK UNBOUND:                -1.308
REMARK  Name = 
REMARK  7 active torsions:
REMARK  status: ('A' for Active; 'I' for Inactive)
REMARK    1  A    between atoms: C_2  and  C_3
REMARK    2  A    between atoms: C_3  and  N_4
REMARK    3  A    between atoms: C_3  and  C_17
REMARK    4  A    between atoms: C_5  and  C_7
REMARK    5  A    between atoms: C_20  and  C_21
REMARK    6  A    between atoms: C_21  and  N_22
REMARK    7  A    between atoms: C_23  and  C_25
REMARK                            x       y       z     vdW  Elec       q    Type
REMARK                         _______ _______ _______ _____ _____    ______ ____
ROOT
ATOM      1  C   UNL     1      45.760   5.107  12.942  0.00  0.00    +0.000 C 
ENDROOT
BRANCH   1   2
ATOM      2  C   UNL     1      45.419   6.510  12.457  0.00  0.00    +0.000 A 
ATOM      3  C   UNL     1      46.063   7.622  13.029  0.00  0.00    +0.000 A 
ATOM      4  C   UNL     1      45.707   8.926  12.661  0.00  0.00    +0.000 A 
ATOM      5  C   UNL     1      44.683   9.144  11.732  0.00  0.00    +0.000 A 
ATOM      6  C   UNL     1      44.065   8.041  11.132  0.00  0.00    +0.000 A 
ATOM      7  C   UNL     1      44.421   6.741  11.499  0.00  0.00    +0.000 A 
BRANCH   5   8
ATOM      8  C   UNL     1      44.240  10.538  11.373  0.00  0.00    +0.000 C 
BRANCH   8   9
ATOM      9  N   UNL     1      42.991  10.879  12.001  0.00  0.00    +0.000 N 
ATOM     10  C   UNL     1      41.823  10.846  11.269  0.00  0.00    +0.000 C 
ATOM     11  O   UNL     1      41.777  10.534  10.085  0.00  0.00    +0.000 OA
ATOM     12  H   UNL     1      42.954  10.924  13.009  0.00  0.00    +0.000 HD
BRANCH  10  13
ATOM     13  C   UNL     1      40.576  11.188  12.005  0.00  0.00    +0.000 A 
ATOM     14  C   UNL     1      40.585  12.084  13.083  0.00  0.00    +0.000 A 
ATOM     15  C   UNL     1      39.393  12.393  13.743  0.00  0.00    +0.000 A 
ATOM     16  C   UNL     1      38.195  11.814  13.324  0.00  0.00    +0.000 A 
ATOM     17  C   UNL     1      38.179  10.935  12.245  0.00  0.00    +0.000 A 
ATOM     18  C   UNL     1      39.369  10.623  11.580  0.00  0.00    +0.000 A 
ENDBRANCH  10  13
ENDBRANCH   8   9
ENDBRANCH   5   8
ENDBRANCH   1   2
BRANCH   1  19
ATOM     19  N   UNL     1      46.366   5.206  14.263  0.00  0.00    +0.000 N 
ATOM     20  C   UNL     1      47.127   4.170  14.747  0.00  0.00    +0.000 C 
ATOM     21  O   UNL     1      47.376   3.176  14.075  0.00  0.00    +0.000 OA
ATOM     22  H   UNL     1      46.009   5.900  14.904  0.00  0.00    +0.000 HD
BRANCH  20  23
ATOM     23  C   UNL     1      47.680   4.367  16.084  0.00  0.00    +0.000 A 
ATOM     24  C   UNL     1      47.437   3.525  17.158  0.00  0.00    +0.000 A 
ATOM     25  S   UNL     1      48.037   4.143  18.638  0.00  0.00    +0.000 S 
ATOM     26  C   UNL     1      48.640   5.542  17.876  0.00  0.00    +0.000 A 
ATOM     27  N   UNL     1      49.223   6.545  18.587  0.00  0.00    +0.000 NA
ATOM     28  C   UNL     1      49.612   7.546  17.866  0.00  0.00    +0.000 A 
ATOM     29  N   UNL     1      49.503   7.621  16.499  0.00  0.00    +0.000 N 
ATOM     30  C   UNL     1      49.022   6.584  15.732  0.00  0.00    +0.000 A 
ATOM     31  O   UNL     1      49.153   6.579  14.514  0.00  0.00    +0.000 OA
ATOM     32  C   UNL     1      48.456   5.499  16.509  0.00  0.00    +0.000 A 
ATOM     33  H   UNL     1      49.904   8.392  15.988  0.00  0.00    +0.000 HD
ENDBRANCH  20  23
ENDBRANCH   1  19
BRANCH   1  35
ATOM     34  N   UNL     1      43.715   3.429  12.958  0.00  0.00    +0.000 NA
ATOM     35  C   UNL     1      44.592   4.189  12.957  0.00  0.00    +0.000 C 
ENDBRANCH   1  35
TORSDOF 7
ENDMDL
MODEL 4
REMARK VINA RESULT:    -7.513      1.754      2.221
REMARK INTER + INTRA:         -11.895
REMARK INTER:                 -10.976
REMARK INTRA:                  -0.920
REMARK UNBOUND:                -1.308
REMARK  Name = 
REMARK  7 active torsions:
REMARK  status: ('A' for Active; 'I' for Inactive)
REMARK    1  A    between atoms: C_2  and  C_3
REMARK    2  A    between atoms: C_3  and  N_4
REMARK    3  A    between atoms: C_3  and  C_17
REMARK    4  A    between atoms: C_5  and  C_7
REMARK    5  A    between atoms: C_20  and  C_21
REMARK    6  A    between atoms: C_21  and  N_22
REMARK    7  A    between atoms: C_23  and  C_25
REMARK                            x       y       z     vdW  Elec       q    Type
REMARK                         _______ _______ _______ _____ _____    ______ ____
ROOT
ATOM      1  C   UNL     1      47.812   8.987  14.067  0.00  0.00    +0.000 C 
ENDROOT
BRANCH   1   2
ATOM      2  C   UNL     1      46.981   8.157  13.098  0.00  0.00    +0.000 A 
ATOM      3  C   UNL     1      45.714   8.616  12.695  0.00  0.00    +0.000 A 
ATOM      4  C   UNL     1      44.895   7.832  11.871  0.00  0.00    +0.000 A 
ATOM      5  C   UNL     1      45.316   6.564  11.455  0.00  0.00    +0.000 A 
ATOM      6  C   UNL     1      46.591   6.118  11.823  0.00  0.00    +0.000 A 
ATOM      7  C   UNL     1      47.408   6.901  12.643  0.00  0.00    +0.000 A 
BRANCH   5   8
ATOM      8  C   UNL     1      44.424   5.678  10.626  0.00  0.00    +0.000 C 
BRANCH   8   9
ATOM      9  N   UNL     1      45.169   4.945   9.637  0.00  0.00    +0.000 N 
ATOM     10  C   UNL     1      44.831   3.639   9.352  0.00  0.00    +0.000 C 
ATOM     11  O   UNL     1      43.910   3.045   9.900  0.00  0.00    +0.000 OA
ATOM     12  H   UNL     1      45.779   5.456   9.015  0.00  0.00    +0.000 HD
BRANCH  10  13
ATOM     13  C   UNL     1      45.637   2.967   8.298  0.00  0.00    +0.000 A 
ATOM     14  C   UNL     1      46.082   3.659   7.164  0.00  0.00    +0.000 A 
ATOM     15  C   UNL     1      46.849   2.999   6.200  0.00  0.00    +0.000 A 
ATOM     16  C   UNL     1      47.176   1.654   6.371  0.00  0.00    +0.000 A 
ATOM     17  C   UNL     1      46.748   0.967   7.504  0.00  0.00    +0.000 A 
ATOM     18  C   UNL     1      45.982   1.621   8.472  0.00  0.00    +0.000 A 
ENDBRANCH  10  13
ENDBRANCH   8   9
ENDBRANCH   5   8
ENDBRANCH   1   2
BRANCH   1  19
ATOM     19  N   UNL     1      47.931   8.256  15.322  0.00  0.00    +0.000 N 
ATOM     20  C   UNL     1      48.333   8.911  16.460  0.00  0.00    +0.000 C 
ATOM     21  O   UNL     1      48.537  10.119  16.479  0.00  0.00    +0.000 OA
ATOM     22  H   UNL     1      47.977   7.248  15.288  0.00  0.00    +0.000 HD
BRANCH  20  23
ATOM     23  C   UNL     1      48.428   8.086  17.661  0.00  0.00    +0.000 A 
ATOM     24  C   UNL     1      47.771   8.361  18.850  0.00  0.00    +0.000 A 
ATOM     25  S   UNL     1      48.260   7.340  20.134  0.00  0.00    +0.000 S 
ATOM     26  C   UNL     1      49.354   6.504  19.130  0.00  0.00    +0.000 A 
ATOM     27  N   UNL     1      50.166   5.529  19.619  0.00  0.00    +0.000 NA
ATOM     28  C   UNL     1      50.952   5.005  18.735  0.00  0.00    +0.000 A 
ATOM     29  N   UNL     1      50.974   5.340  17.404  0.00  0.00    +0.000 N 
ATOM     30  C   UNL     1      50.093   6.240  16.847  0.00  0.00    +0.000 A 
ATOM     31  O   UNL     1      49.974   6.346  15.633  0.00  0.00    +0.000 OA
ATOM     32  C   UNL     1      49.287   6.946  17.825  0.00  0.00    +0.000 A 
ATOM     33  H   UNL     1      51.549   4.832  16.750  0.00  0.00    +0.000 HD
ENDBRANCH  20  23
ENDBRANCH   1  19
BRANCH   1  35
ATOM     34  N   UNL     1      50.214   9.641  13.170  0.00  0.00    +0.000 NA
ATOM     35  C   UNL     1      49.150   9.352  13.533  0.00  0.00    +0.000 C 
ENDBRANCH   1  35
TORSDOF 7
ENDMDL
MODEL 5
REMARK VINA RESULT:    -7.236      1.536      2.239
REMARK INTER + INTRA:         -11.505
REMARK INTER:                 -10.308
REMARK INTRA:                  -1.197
REMARK UNBOUND:                -1.308
REMARK  Name = 
REMARK  7 active torsions:
REMARK  status: ('A' for Active; 'I' for Inactive)
REMARK    1  A    between atoms: C_2  and  C_3
REMARK    2  A    between atoms: C_3  and  N_4
REMARK    3  A    between atoms: C_3  and  C_17
REMARK    4  A    between atoms: C_5  and  C_7
REMARK    5  A    between atoms: C_20  and  C_21
REMARK    6  A    between atoms: C_21  and  N_22
REMARK    7  A    between atoms: C_23  and  C_25
REMARK                            x       y       z     vdW  Elec       q    Type
REMARK                         _______ _______ _______ _____ _____    ______ ____
ROOT
ATOM      1  C   UNL     1      48.100   7.696  14.480  0.00  0.00    +0.000 C 
ENDROOT
BRANCH   1   2
ATOM      2  C   UNL     1      47.074   7.044  13.562  0.00  0.00    +0.000 A 
ATOM      3  C   UNL     1      46.873   5.652  13.618  0.00  0.00    +0.000 A 
ATOM      4  C   UNL     1      45.996   5.018  12.727  0.00  0.00    +0.000 A 
ATOM      5  C   UNL     1      45.324   5.758  11.748  0.00  0.00    +0.000 A 
ATOM      6  C   UNL     1      45.492   7.147  11.713  0.00  0.00    +0.000 A 
ATOM      7  C   UNL     1      46.365   7.780  12.602  0.00  0.00    +0.000 A 
BRANCH   5   8
ATOM      8  C   UNL     1      44.430   5.086  10.739  0.00  0.00    +0.000 C 
BRANCH   8   9
ATOM      9  N   UNL     1      45.183   4.527   9.648  0.00  0.00    +0.000 N 
ATOM     10  C   UNL     1      45.007   3.205   9.300  0.00  0.00    +0.000 C 
ATOM     11  O   UNL     1      44.229   2.453   9.874  0.00  0.00    +0.000 OA
ATOM     12  H   UNL     1      45.659   5.156   9.018  0.00  0.00    +0.000 HD
BRANCH  10  13
ATOM     13  C   UNL     1      45.806   2.717   8.144  0.00  0.00    +0.000 A 
ATOM     14  C   UNL     1      46.088   3.545   7.048  0.00  0.00    +0.000 A 
ATOM     15  C   UNL     1      46.853   3.059   5.985  0.00  0.00    +0.000 A 
ATOM     16  C   UNL     1      47.341   1.753   6.018  0.00  0.00    +0.000 A 
ATOM     17  C   UNL     1      47.076   0.932   7.111  0.00  0.00    +0.000 A 
ATOM     18  C   UNL     1      46.312   1.413   8.178  0.00  0.00    +0.000 A 
ENDBRANCH  10  13
ENDBRANCH   8   9
ENDBRANCH   5   8
ENDBRANCH   1   2
BRANCH   1  19
ATOM     19  N   UNL     1      48.924   6.651  15.073  0.00  0.00    +0.000 N 
ATOM     20  C   UNL     1      49.231   6.698  16.411  0.00  0.00    +0.000 C 
ATOM     21  O   UNL     1      48.781   7.563  17.152  0.00  0.00    +0.000 OA
ATOM     22  H   UNL     1      49.470   6.063  14.460  0.00  0.00    +0.000 HD
BRANCH  20  23
ATOM     23  C   UNL     1      50.069   5.609  16.903  0.00  0.00    +0.000 A 
ATOM     24  C   UNL     1      49.580   4.462  17.509  0.00  0.00    +0.000 A 
ATOM     25  S   UNL     1      50.814   3.482  18.177  0.00  0.00    +0.000 S 
ATOM     26  C   UNL     1      52.029   4.562  17.667  0.00  0.00    +0.000 A 
ATOM     27  N   UNL     1      53.337   4.361  17.978  0.00  0.00    +0.000 NA
ATOM     28  C   UNL     1      54.133   5.280  17.534  0.00  0.00    +0.000 A 
ATOM     29  N   UNL     1      53.744   6.360  16.781  0.00  0.00    +0.000 N 
ATOM     30  C   UNL     1      52.450   6.542  16.350  0.00  0.00    +0.000 A 
ATOM     31  O   UNL     1      52.175   7.371  15.492  0.00  0.00    +0.000 OA
ATOM     32  C   UNL     1      51.506   5.608  16.933  0.00  0.00    +0.000 A 
ATOM     33  H   UNL     1      54.426   6.993  16.392  0.00  0.00    +0.000 HD
ENDBRANCH  20  23
ENDBRANCH   1  19
BRANCH   1  35
ATOM     34  N   UNL     1      49.591   9.476  13.212  0.00  0.00    +0.000 NA
ATOM     35  C   UNL     1      48.940   8.713  13.795  0.00  0.00    +0.000 C 
ENDBRANCH   1  35
TORSDOF 7
ENDMDL
MODEL 6
REMARK VINA RESULT:    -6.994      4.368      5.298
REMARK INTER + INTRA:         -11.164
REMARK INTER:                  -9.817
REMARK INTRA:                  -1.347
REMARK UNBOUND:                -1.308
REMARK  Name = 
REMARK  7 active torsions:
REMARK  status: ('A' for Active; 'I' for Inactive)
REMARK    1  A    between atoms: C_2  and  C_3
REMARK    2  A    between atoms: C_3  and  N_4
REMARK    3  A    between atoms: C_3  and  C_17
REMARK    4  A    between atoms: C_5  and  C_7
REMARK    5  A    between atoms: C_20  and  C_21
REMARK    6  A    between atoms: C_21  and  N_22
REMARK    7  A    between atoms: C_23  and  C_25
REMARK                            x       y       z     vdW  Elec       q    Type
REMARK                         _______ _______ _______ _____ _____    ______ ____
ROOT
ATOM      1  C   UNL     1      47.026  10.253  12.104  0.00  0.00    +0.000 C 
ENDROOT
BRANCH   1   2
ATOM      2  C   UNL     1      46.358   8.885  12.069  0.00  0.00    +0.000 A 
ATOM      3  C   UNL     1      47.147   7.721  12.109  0.00  0.00    +0.000 A 
ATOM      4  C   UNL     1      46.563   6.453  11.993  0.00  0.00    +0.000 A 
ATOM      5  C   UNL     1      45.181   6.324  11.810  0.00  0.00    +0.000 A 
ATOM      6  C   UNL     1      44.387   7.477  11.807  0.00  0.00    +0.000 A 
ATOM      7  C   UNL     1      44.970   8.741  11.923  0.00  0.00    +0.000 A 
BRANCH   5   8
ATOM      8  C   UNL     1      44.542   4.974  11.616  0.00  0.00    +0.000 C 
BRANCH   8   9
ATOM      9  N   UNL     1      45.272   4.168  10.674  0.00  0.00    +0.000 N 
ATOM     10  C   UNL     1      44.804   4.024   9.386  0.00  0.00    +0.000 C 
ATOM     11  O   UNL     1      43.777   4.553   8.977  0.00  0.00    +0.000 OA
ATOM     12  H   UNL     1      46.220   3.902  10.899  0.00  0.00    +0.000 HD
BRANCH  10  13
ATOM     13  C   UNL     1      45.635   3.194   8.473  0.00  0.00    +0.000 A 
ATOM     14  C   UNL     1      46.401   3.774   7.452  0.00  0.00    +0.000 A 
ATOM     15  C   UNL     1      47.181   2.966   6.620  0.00  0.00    +0.000 A 
ATOM     16  C   UNL     1      47.202   1.585   6.812  0.00  0.00    +0.000 A 
ATOM     17  C   UNL     1      46.455   1.006   7.834  0.00  0.00    +0.000 A 
ATOM     18  C   UNL     1      45.673   1.809   8.670  0.00  0.00    +0.000 A 
ENDBRANCH  10  13
ENDBRANCH   8   9
ENDBRANCH   5   8
ENDBRANCH   1   2
BRANCH   1  19
ATOM     19  N   UNL     1      48.294  10.169  11.392  0.00  0.00    +0.000 N 
ATOM     20  C   UNL     1      49.428  10.712  11.946  0.00  0.00    +0.000 C 
ATOM     21  O   UNL     1      49.430  11.215  13.062  0.00  0.00    +0.000 OA
ATOM     22  H   UNL     1      48.277   9.958  10.404  0.00  0.00    +0.000 HD
BRANCH  20  23
ATOM     23  C   UNL     1      50.643  10.582  11.147  0.00  0.00    +0.000 A 
ATOM     24  C   UNL     1      51.244  11.630  10.467  0.00  0.00    +0.000 A 
ATOM     25  S   UNL     1      52.516  11.118   9.442  0.00  0.00    +0.000 S 
ATOM     26  C   UNL     1      52.298   9.489   9.888  0.00  0.00    +0.000 A 
ATOM     27  N   UNL     1      53.026   8.491   9.319  0.00  0.00    +0.000 NA
ATOM     28  C   UNL     1      52.728   7.308   9.750  0.00  0.00    +0.000 A 
ATOM     29  N   UNL     1      51.796   7.036  10.721  0.00  0.00    +0.000 N 
ATOM     30  C   UNL     1      51.118   8.022  11.401  0.00  0.00    +0.000 A 
ATOM     31  O   UNL     1      50.476   7.772  12.413  0.00  0.00    +0.000 OA
ATOM     32  C   UNL     1      51.326   9.351  10.858  0.00  0.00    +0.000 A 
ATOM     33  H   UNL     1      51.674   6.100  11.075  0.00  0.00    +0.000 HD
ENDBRANCH  20  23
ENDBRANCH   1  19
BRANCH   1  35
ATOM     34  N   UNL     1      45.542  12.185  11.074  0.00  0.00    +0.000 NA
ATOM     35  C   UNL     1      46.175  11.338  11.553  0.00  0.00    +0.000 C 
ENDBRANCH   1  35
TORSDOF 7
ENDMDL
MODEL 7
REMARK VINA RESULT:    -6.590      2.134      3.049
REMARK INTER + INTRA:         -10.595
REMARK INTER:                  -9.525
REMARK INTRA:                  -1.070
REMARK UNBOUND:                -1.308
REMARK  Name = 
REMARK  7 active torsions:
REMARK  status: ('A' for Active; 'I' for Inactive)
REMARK    1  A    between atoms: C_2  and  C_3
REMARK    2  A    between atoms: C_3  and  N_4
REMARK    3  A    between atoms: C_3  and  C_17
REMARK    4  A    between atoms: C_5  and  C_7
REMARK    5  A    between atoms: C_20  and  C_21
REMARK    6  A    between atoms: C_21  and  N_22
REMARK    7  A    between atoms: C_23  and  C_25
REMARK                            x       y       z     vdW  Elec       q    Type
REMARK                         _______ _______ _______ _____ _____    ______ ____
ROOT
ATOM      1  C   UNL     1      48.100   7.710  14.559  0.00  0.00    +0.000 C 
ENDROOT
BRANCH   1   2
ATOM      2  C   UNL     1      47.300   6.719  13.723  0.00  0.00    +0.000 A 
ATOM      3  C   UNL     1      46.661   7.154  12.547  0.00  0.00    +0.000 A 
ATOM      4  C   UNL     1      45.851   6.283  11.806  0.00  0.00    +0.000 A 
ATOM      5  C   UNL     1      45.644   4.969  12.239  0.00  0.00    +0.000 A 
ATOM      6  C   UNL     1      46.307   4.520  13.388  0.00  0.00    +0.000 A 
ATOM      7  C   UNL     1      47.115   5.388  14.125  0.00  0.00    +0.000 A 
BRANCH   5   8
ATOM      8  C   UNL     1      44.724   4.038  11.495  0.00  0.00    +0.000 C 
BRANCH   8   9
ATOM      9  N   UNL     1      45.407   3.347  10.433  0.00  0.00    +0.000 N 
ATOM     10  C   UNL     1      45.061   3.589   9.122  0.00  0.00    +0.000 C 
ATOM     11  O   UNL     1      44.184   4.379   8.790  0.00  0.00    +0.000 OA
ATOM     12  H   UNL     1      46.269   2.866  10.647  0.00  0.00    +0.000 HD
BRANCH  10  13
ATOM     13  C   UNL     1      45.837   2.851   8.089  0.00  0.00    +0.000 A 
ATOM     14  C   UNL     1      46.185   1.504   8.260  0.00  0.00    +0.000 A 
ATOM     15  C   UNL     1      46.903   0.838   7.263  0.00  0.00    +0.000 A 
ATOM     16  C   UNL     1      47.267   1.512   6.098  0.00  0.00    +0.000 A 
ATOM     17  C   UNL     1      46.910   2.845   5.918  0.00  0.00    +0.000 A 
ATOM     18  C   UNL     1      46.191   3.517   6.911  0.00  0.00    +0.000 A 
ENDBRANCH  10  13
ENDBRANCH   8   9
ENDBRANCH   5   8
ENDBRANCH   1   2
BRANCH   1  19
ATOM     19  N   UNL     1      48.554   7.037  15.769  0.00  0.00    +0.000 N 
ATOM     20  C   UNL     1      48.556   7.709  16.967  0.00  0.00    +0.000 C 
ATOM     21  O   UNL     1      48.123   8.850  17.074  0.00  0.00    +0.000 OA
ATOM     22  H   UNL     1      49.103   6.194  15.673  0.00  0.00    +0.000 HD
BRANCH  20  23
ATOM     23  C   UNL     1      49.038   6.947  18.115  0.00  0.00    +0.000 A 
ATOM     24  C   UNL     1      48.281   6.013  18.804  0.00  0.00    +0.000 A 
ATOM     25  S   UNL     1      49.044   5.459  20.233  0.00  0.00    +0.000 S 
ATOM     26  C   UNL     1      50.405   6.447  19.959  0.00  0.00    +0.000 A 
ATOM     27  N   UNL     1      51.428   6.514  20.853  0.00  0.00    +0.000 NA
ATOM     28  C   UNL     1      52.376   7.323  20.509  0.00  0.00    +0.000 A 
ATOM     29  N   UNL     1      52.412   8.043  19.341  0.00  0.00    +0.000 N 
ATOM     30  C   UNL     1      51.454   7.920  18.360  0.00  0.00    +0.000 A 
ATOM     31  O   UNL     1      51.626   8.385  17.240  0.00  0.00    +0.000 OA
ATOM     32  C   UNL     1      50.309   7.125  18.761  0.00  0.00    +0.000 A 
ATOM     33  H   UNL     1      53.222   8.590  19.093  0.00  0.00    +0.000 HD
ENDBRANCH  20  23
ENDBRANCH   1  19
BRANCH   1  35
ATOM     34  N   UNL     1      50.101   8.836  13.246  0.00  0.00    +0.000 NA
ATOM     35  C   UNL     1      49.241   8.314  13.824  0.00  0.00    +0.000 C 
ENDBRANCH   1  35
TORSDOF 7
ENDMDL
MODEL 8
REMARK VINA RESULT:    -6.234      4.702      9.160
REMARK INTER + INTRA:         -10.093
REMARK INTER:                  -8.836
REMARK INTRA:                  -1.257
REMARK UNBOUND:                -1.308
REMARK  Name = 
REMARK  7 active torsions:
REMARK  status: ('A' for Active; 'I' for Inactive)
REMARK    1  A    between atoms: C_2  and  C_3
REMARK    2  A    between atoms: C_3  and  N_4
REMARK    3  A    between atoms: C_3  and  C_17
REMARK    4  A    between atoms: C_5  and  C_7
REMARK    5  A    between atoms: C_20  and  C_21
REMARK    6  A    between atoms: C_21  and  N_22
REMARK    7  A    between atoms: C_23  and  C_25
REMARK                            x       y       z     vdW  Elec       q    Type
REMARK                         _______ _______ _______ _____ _____    ______ ____
ROOT
ATOM      1  C   UNL     1      45.113   3.876  12.073  0.00  0.00    +0.000 C 
ENDROOT
BRANCH   1   2
ATOM      2  C   UNL     1      44.890   5.336  11.700  0.00  0.00    +0.000 A 
ATOM      3  C   UNL     1      45.966   6.241  11.751  0.00  0.00    +0.000 A 
ATOM      4  C   UNL     1      45.770   7.605  11.494  0.00  0.00    +0.000 A 
ATOM      5  C   UNL     1      44.491   8.094  11.206  0.00  0.00    +0.000 A 
ATOM      6  C   UNL     1      43.424   7.192  11.118  0.00  0.00    +0.000 A 
ATOM      7  C   UNL     1      43.620   5.832  11.372  0.00  0.00    +0.000 A 
BRANCH   5   8
ATOM      8  C   UNL     1      44.247   9.564  10.994  0.00  0.00    +0.000 C 
BRANCH   8   9
ATOM      9  N   UNL     1      43.041  10.005  11.643  0.00  0.00    +0.000 N 
ATOM     10  C   UNL     1      41.991  10.483  10.888  0.00  0.00    +0.000 C 
ATOM     11  O   UNL     1      42.017  10.557   9.666  0.00  0.00    +0.000 OA
ATOM     12  H   UNL     1      42.895   9.757  12.611  0.00  0.00    +0.000 HD
BRANCH  10  13
ATOM     13  C   UNL     1      40.774  10.892  11.640  0.00  0.00    +0.000 A 
ATOM     14  C   UNL     1      40.815  11.912  12.600  0.00  0.00    +0.000 A 
ATOM     15  C   UNL     1      39.650  12.280  13.278  0.00  0.00    +0.000 A 
ATOM     16  C   UNL     1      38.446  11.636  12.993  0.00  0.00    +0.000 A 
ATOM     17  C   UNL     1      38.397  10.632  12.030  0.00  0.00    +0.000 A 
ATOM     18  C   UNL     1      39.559  10.260  11.348  0.00  0.00    +0.000 A 
ENDBRANCH  10  13
ENDBRANCH   8   9
ENDBRANCH   5   8
ENDBRANCH   1   2
BRANCH   1  19
ATOM     19  N   UNL     1      45.651   3.177  10.914  0.00  0.00    +0.000 N 
ATOM     20  C   UNL     1      44.798   2.583  10.016  0.00  0.00    +0.000 C 
ATOM     21  O   UNL     1      43.580   2.674  10.116  0.00  0.00    +0.000 OA
ATOM     22  H   UNL     1      46.625   2.909  10.923  0.00  0.00    +0.000 HD
BRANCH  20  23
ATOM     23  C   UNL     1      45.439   1.901   8.895  0.00  0.00    +0.000 A 
ATOM     24  C   UNL     1      45.398   0.530   8.692  0.00  0.00    +0.000 A 
ATOM     25  S   UNL     1      46.429   0.013   7.427  0.00  0.00    +0.000 S 
ATOM     26  C   UNL     1      46.947   1.607   7.119  0.00  0.00    +0.000 A 
ATOM     27  N   UNL     1      47.901   1.878   6.188  0.00  0.00    +0.000 NA
ATOM     28  C   UNL     1      48.197   3.134   6.086  0.00  0.00    +0.000 A 
ATOM     29  N   UNL     1      47.604   4.142   6.804  0.00  0.00    +0.000 N 
ATOM     30  C   UNL     1      46.559   3.924   7.674  0.00  0.00    +0.000 A 
ATOM     31  O   UNL     1      45.896   4.853   8.118  0.00  0.00    +0.000 OA
ATOM     32  C   UNL     1      46.285   2.520   7.914  0.00  0.00    +0.000 A 
ATOM     33  H   UNL     1      47.819   5.109   6.615  0.00  0.00    +0.000 HD
ENDBRANCH  20  23
ENDBRANCH   1  19
BRANCH   1  35
ATOM     34  N   UNL     1      46.700   3.611  14.172  0.00  0.00    +0.000 NA
ATOM     35  C   UNL     1      45.990   3.699  13.258  0.00  0.00    +0.000 C 
ENDBRANCH   1  35
TORSDOF 7
ENDMDL
MODEL 9
REMARK VINA RESULT:    -5.812      3.736      9.341
REMARK INTER + INTRA:          -9.498
REMARK INTER:                  -8.315
REMARK INTRA:                  -1.183
REMARK UNBOUND:                -1.308
REMARK  Name = 
REMARK  7 active torsions:
REMARK  status: ('A' for Active; 'I' for Inactive)
REMARK    1  A    between atoms: C_2  and  C_3
REMARK    2  A    between atoms: C_3  and  N_4
REMARK    3  A    between atoms: C_3  and  C_17
REMARK    4  A    between atoms: C_5  and  C_7
REMARK    5  A    between atoms: C_20  and  C_21
REMARK    6  A    between atoms: C_21  and  N_22
REMARK    7  A    between atoms: C_23  and  C_25
REMARK                            x       y       z     vdW  Elec       q    Type
REMARK                         _______ _______ _______ _____ _____    ______ ____
ROOT
ATOM      1  C   UNL     1      44.814   5.803  10.672  0.00  0.00    +0.000 C 
ENDROOT
BRANCH   1   2
ATOM      2  C   UNL     1      45.464   5.367  11.977  0.00  0.00    +0.000 A 
ATOM      3  C   UNL     1      46.699   5.922  12.361  0.00  0.00    +0.000 A 
ATOM      4  C   UNL     1      47.359   5.476  13.514  0.00  0.00    +0.000 A 
ATOM      5  C   UNL     1      46.810   4.451  14.292  0.00  0.00    +0.000 A 
ATOM      6  C   UNL     1      45.564   3.922  13.935  0.00  0.00    +0.000 A 
ATOM      7  C   UNL     1      44.906   4.367  12.786  0.00  0.00    +0.000 A 
BRANCH   5   8
ATOM      8  C   UNL     1      47.535   3.911  15.497  0.00  0.00    +0.000 C 
BRANCH   8   9
ATOM      9  N   UNL     1      47.369   4.762  16.646  0.00  0.00    +0.000 N 
ATOM     10  C   UNL     1      48.442   5.478  17.130  0.00  0.00    +0.000 C 
ATOM     11  O   UNL     1      49.560   5.440  16.631  0.00  0.00    +0.000 OA
ATOM     12  H   UNL     1      46.432   4.992  16.945  0.00  0.00    +0.000 HD
BRANCH  10  13
ATOM     13  C   UNL     1      48.174   6.352  18.304  0.00  0.00    +0.000 A 
ATOM     14  C   UNL     1      47.666   5.831  19.503  0.00  0.00    +0.000 A 
ATOM     15  C   UNL     1      47.438   6.678  20.590  0.00  0.00    +0.000 A 
ATOM     16  C   UNL     1      47.722   8.039  20.484  0.00  0.00    +0.000 A 
ATOM     17  C   UNL     1      48.240   8.558  19.301  0.00  0.00    +0.000 A 
ATOM     18  C   UNL     1      48.471   7.716  18.210  0.00  0.00    +0.000 A 
ENDBRANCH  10  13
ENDBRANCH   8   9
ENDBRANCH   5   8
ENDBRANCH   1   2
BRANCH   1  19
ATOM     19  N   UNL     1      44.747   7.259  10.648  0.00  0.00    +0.000 N 
ATOM     20  C   UNL     1      43.577   7.896  10.979  0.00  0.00    +0.000 C 
ATOM     21  O   UNL     1      42.587   7.284  11.361  0.00  0.00    +0.000 OA
ATOM     22  H   UNL     1      45.461   7.764  10.143  0.00  0.00    +0.000 HD
BRANCH  20  23
ATOM     23  C   UNL     1      43.614   9.355  10.915  0.00  0.00    +0.000 A 
ATOM     24  C   UNL     1      42.711  10.126  10.201  0.00  0.00    +0.000 A 
ATOM     25  S   UNL     1      43.151  11.779  10.136  0.00  0.00    +0.000 S 
ATOM     26  C   UNL     1      44.553  11.503  11.065  0.00  0.00    +0.000 A 
ATOM     27  N   UNL     1      45.440  12.499  11.329  0.00  0.00    +0.000 NA
ATOM     28  C   UNL     1      46.461  12.124  12.030  0.00  0.00    +0.000 A 
ATOM     29  N   UNL     1      46.657  10.856  12.518  0.00  0.00    +0.000 N 
ATOM     30  C   UNL     1      45.732   9.848  12.369  0.00  0.00    +0.000 A 
ATOM     31  O   UNL     1      45.817   8.807  13.007  0.00  0.00    +0.000 OA
ATOM     32  C   UNL     1      44.638  10.189  11.480  0.00  0.00    +0.000 A 
ATOM     33  H   UNL     1      47.431  10.651  13.131  0.00  0.00    +0.000 HD
ENDBRANCH  20  23
ENDBRANCH   1  19
BRANCH   1  35
ATOM     34  N   UNL     1      46.033   4.922   8.496  0.00  0.00    +0.000 NA
ATOM     35  C   UNL     1      45.506   5.281   9.465  0.00  0.00    +0.000 C 
ENDBRANCH   1  35
TORSDOF 7
ENDMDL
