MODEL 1
REMARK VINA RESULT:    -8.427      0.000      0.000
REMARK INTER + INTRA:         -13.217
REMARK INTER:                 -11.876
REMARK INTRA:                  -1.341
REMARK UNBOUND:                -1.341
REMARK  Name = 
REMARK  8 active torsions:
REMARK  status: ('A' for Active; 'I' for Inactive)
REMARK    1  A    between atoms: C_1  and  N_2
REMARK    2  A    between atoms: C_4  and  C_5
REMARK    3  A    between atoms: N_7  and  C_8
REMARK    4  A    between atoms: C_8  and  C_9
REMARK    5  A    between atoms: C_12  and  C_13
REMARK    6  A    between atoms: C_13  and  O_14
REMARK    7  A    between atoms: O_14  and  C_15
REMARK    8  A    between atoms: C_15  and  C_16
REMARK                            x       y       z     vdW  Elec       q    Type
REMARK                         _______ _______ _______ _____ _____    ______ ____
ROOT
ATOM      1  C   UNL     1      46.928   7.977  12.991  0.00  0.00    +0.000 C 
ENDROOT
BRANCH   1   2
ATOM      2  C   UNL     1      46.070   6.879  12.426  0.00  0.00    +0.000 A 
ATOM      3  C   UNL     1      46.185   6.507  11.080  0.00  0.00    +0.000 A 
ATOM      4  C   UNL     1      45.402   5.472  10.561  0.00  0.00    +0.000 A 
ATOM      5  C   UNL     1      44.483   4.798  11.373  0.00  0.00    +0.000 A 
ATOM      6  C   UNL     1      44.360   5.180  12.715  0.00  0.00    +0.000 A 
ATOM      7  C   UNL     1      45.143   6.212  13.235  0.00  0.00    +0.000 A 
BRANCH   5   8
ATOM      8  C   UNL     1      43.620   3.695  10.817  0.00  0.00    +0.000 C 
BRANCH   8   9
ATOM      9  O   UNL     1      44.011   3.419   9.477  0.00  0.00    +0.000 OA
BRANCH   9  10
ATOM     10  C   UNL     1      44.786   2.224   9.406  0.00  0.00    +0.000 C 
BRANCH  10  11
ATOM     11  C   UNL     1      45.742   2.280   8.242  0.00  0.00    +0.000 A 
ATOM     12  C   UNL     1      45.875   3.437   7.460  0.00  0.00    +0.000 A 
ATOM     13  C   UNL     1      46.782   3.478   6.400  0.00  0.00    +0.000 A 
ATOM     14  C   UNL     1      47.576   2.368   6.119  0.00  0.00    +0.000 A 
ATOM     15  C   UNL     1      47.470   1.220   6.901  0.00  0.00    +0.000 A 
ATOM     16  C   UNL     1      46.563   1.178   7.960  0.00  0.00    +0.000 A 
ENDBRANCH  10  11
ENDBRANCH   9  10
ENDBRANCH   8   9
ENDBRANCH   5   8
ENDBRANCH   1   2
BRANCH   1  19
ATOM     17  C   UNL     1      48.510   6.921  14.520  0.00  0.00    +0.000 C 
ATOM     18  O   UNL     1      49.199   6.536  13.583  0.00  0.00    +0.000 OA
ATOM     19  N   UNL     1      47.376   7.681  14.331  0.00  0.00    +0.000 N 
ATOM     20  H   UNL     1      46.782   7.918  15.111  0.00  0.00    +0.000 HD
BRANCH  17  24
ATOM     21  C   UNL     1      50.352   7.380  19.135  0.00  0.00    +0.000 C 
ATOM     22  N   UNL     1      49.678   6.840  17.978  0.00  0.00    +0.000 N 
ATOM     23  C   UNL     1      49.509   7.475  16.778  0.00  0.00    +0.000 A 
ATOM     24  C   UNL     1      48.832   6.619  15.913  0.00  0.00    +0.000 A 
ATOM     25  C   UNL     1      48.579   5.406  16.653  0.00  0.00    +0.000 A 
ATOM     26  C   UNL     1      47.967   4.167  16.482  0.00  0.00    +0.000 A 
ATOM     27 CL   UNL     1      47.170   3.760  15.044  0.00  0.00    +0.000 Cl
ATOM     28  N   UNL     1      47.911   3.249  17.464  0.00  0.00    +0.000 NA
ATOM     29  C   UNL     1      48.482   3.575  18.630  0.00  0.00    +0.000 A 
ATOM     30  N   UNL     1      49.103   4.717  18.946  0.00  0.00    +0.000 NA
ATOM     31  C   UNL     1      49.118   5.592  17.923  0.00  0.00    +0.000 A 
ENDBRANCH  17  24
ENDBRANCH   1  19
TORSDOF 7
ENDMDL
MODEL 2
REMARK VINA RESULT:    -8.170      1.961      2.884
REMARK INTER + INTRA:         -12.855
REMARK INTER:                 -11.803
REMARK INTRA:                  -1.052
REMARK UNBOUND:                -1.341
REMARK  Name = 
REMARK  8 active torsions:
REMARK  status: ('A' for Active; 'I' for Inactive)
REMARK    1  A    between atoms: C_1  and  N_2
REMARK    2  A    between atoms: C_4  and  C_5
REMARK    3  A    between atoms: N_7  and  C_8
REMARK    4  A    between atoms: C_8  and  C_9
REMARK    5  A    between atoms: C_12  and  C_13
REMARK    6  A    between atoms: C_13  and  O_14
REMARK    7  A    between atoms: O_14  and  C_15
REMARK    8  A    between atoms: C_15  and  C_16
REMARK                            x       y       z     vdW  Elec       q    Type
REMARK                         _______ _______ _______ _____ _____    ______ ____
ROOT
ATOM      1  C   UNL     1      48.208   6.689  13.720  0.00  0.00    +0.000 C 
ENDROOT
BRANCH   1   2
ATOM      2  C   UNL     1      47.034   6.087  12.996  0.00  0.00    +0.000 A 
ATOM      3  C   UNL     1      46.308   5.036  13.570  0.00  0.00    +0.000 A 
ATOM      4  C   UNL     1      45.205   4.491  12.906  0.00  0.00    +0.000 A 
ATOM      5  C   UNL     1      44.814   4.980  11.654  0.00  0.00    +0.000 A 
ATOM      6  C   UNL     1      45.549   6.023  11.077  0.00  0.00    +0.000 A 
ATOM      7  C   UNL     1      46.650   6.569  11.739  0.00  0.00    +0.000 A 
BRANCH   5   8
ATOM      8  C   UNL     1      43.639   4.385  10.922  0.00  0.00    +0.000 C 
BRANCH   8   9
ATOM      9  O   UNL     1      44.024   4.061   9.591  0.00  0.00    +0.000 OA
BRANCH   9  10
ATOM     10  C   UNL     1      44.454   2.704   9.498  0.00  0.00    +0.000 C 
BRANCH  10  11
ATOM     11  C   UNL     1      45.513   2.554   8.436  0.00  0.00    +0.000 A 
ATOM     12  C   UNL     1      46.179   1.337   8.234  0.00  0.00    +0.000 A 
ATOM     13  C   UNL     1      47.141   1.212   7.231  0.00  0.00    +0.000 A 
ATOM     14  C   UNL     1      47.437   2.297   6.409  0.00  0.00    +0.000 A 
ATOM     15  C   UNL     1      46.767   3.505   6.584  0.00  0.00    +0.000 A 
ATOM     16  C   UNL     1      45.805   3.633   7.588  0.00  0.00    +0.000 A 
ENDBRANCH  10  11
ENDBRANCH   9  10
ENDBRANCH   8   9
ENDBRANCH   5   8
ENDBRANCH   1   2
BRANCH   1  19
ATOM     17  C   UNL     1      49.155   6.525  15.964  0.00  0.00    +0.000 C 
ATOM     18  O   UNL     1      50.294   6.531  15.511  0.00  0.00    +0.000 OA
ATOM     19  N   UNL     1      48.045   6.638  15.153  0.00  0.00    +0.000 N 
ATOM     20  H   UNL     1      47.118   6.549  15.540  0.00  0.00    +0.000 HD
BRANCH  17  24
ATOM     21  C   UNL     1      48.664   4.552  20.521  0.00  0.00    +0.000 C 
ATOM     22  N   UNL     1      48.649   5.498  19.430  0.00  0.00    +0.000 N 
ATOM     23  C   UNL     1      49.069   5.255  18.151  0.00  0.00    +0.000 A 
ATOM     24  C   UNL     1      48.873   6.407  17.393  0.00  0.00    +0.000 A 
ATOM     25  C   UNL     1      48.310   7.393  18.283  0.00  0.00    +0.000 A 
ATOM     26  C   UNL     1      47.885   8.719  18.266  0.00  0.00    +0.000 A 
ATOM     27 CL   UNL     1      48.018   9.677  16.876  0.00  0.00    +0.000 Cl
ATOM     28  N   UNL     1      47.409   9.337  19.363  0.00  0.00    +0.000 NA
ATOM     29  C   UNL     1      47.352   8.615  20.488  0.00  0.00    +0.000 A 
ATOM     30  N   UNL     1      47.722   7.341  20.662  0.00  0.00    +0.000 NA
ATOM     31  C   UNL     1      48.193   6.785  19.531  0.00  0.00    +0.000 A 
ENDBRANCH  17  24
ENDBRANCH   1  19
TORSDOF 7
ENDMDL
MODEL 3
REMARK VINA RESULT:    -8.161      1.523      1.931
REMARK INTER + INTRA:         -12.842
REMARK INTER:                 -11.741
REMARK INTRA:                  -1.101
REMARK UNBOUND:                -1.341
REMARK  Name = 
REMARK  8 active torsions:
REMARK  status: ('A' for Active; 'I' for Inactive)
REMARK    1  A    between atoms: C_1  and  N_2
REMARK    2  A    between atoms: C_4  and  C_5
REMARK    3  A    between atoms: N_7  and  C_8
REMARK    4  A    between atoms: C_8  and  C_9
REMARK    5  A    between atoms: C_12  and  C_13
REMARK    6  A    between atoms: C_13  and  O_14
REMARK    7  A    between atoms: O_14  and  C_15
REMARK    8  A    between atoms: C_15  and  C_16
REMARK                            x       y       z     vdW  Elec       q    Type
REMARK                         _______ _______ _______ _____ _____    ______ ____
ROOT
ATOM      1  C   UNL     1      48.271   6.607  13.540  0.00  0.00    +0.000 C 
ENDROOT
BRANCH   1   2
ATOM      2  C   UNL     1      47.086   5.958  12.881  0.00  0.00    +0.000 A 
ATOM      3  C   UNL     1      46.589   6.450  11.667  0.00  0.00    +0.000 A 
ATOM      4  C   UNL     1      45.500   5.833  11.044  0.00  0.00    +0.000 A 
ATOM      5  C   UNL     1      44.883   4.720  11.627  0.00  0.00    +0.000 A 
ATOM      6  C   UNL     1      45.373   4.237  12.846  0.00  0.00    +0.000 A 
ATOM      7  C   UNL     1      46.461   4.852  13.469  0.00  0.00    +0.000 A 
BRANCH   5   8
ATOM      8  C   UNL     1      43.696   4.062  10.972  0.00  0.00    +0.000 C 
BRANCH   8   9
ATOM      9  O   UNL     1      44.022   3.727   9.628  0.00  0.00    +0.000 OA
BRANCH   9  10
ATOM     10  C   UNL     1      44.654   2.449   9.558  0.00  0.00    +0.000 C 
BRANCH  10  11
ATOM     11  C   UNL     1      45.640   2.408   8.419  0.00  0.00    +0.000 A 
ATOM     12  C   UNL     1      46.314   1.226   8.077  0.00  0.00    +0.000 A 
ATOM     13  C   UNL     1      47.207   1.202   7.005  0.00  0.00    +0.000 A 
ATOM     14  C   UNL     1      47.426   2.354   6.254  0.00  0.00    +0.000 A 
ATOM     15  C   UNL     1      46.747   3.529   6.569  0.00  0.00    +0.000 A 
ATOM     16  C   UNL     1      45.854   3.555   7.641  0.00  0.00    +0.000 A 
ENDBRANCH  10  11
ENDBRANCH   9  10
ENDBRANCH   8   9
ENDBRANCH   5   8
ENDBRANCH   1   2
BRANCH   1  19
ATOM     17  C   UNL     1      49.040   6.780  15.851  0.00  0.00    +0.000 C 
ATOM     18  O   UNL     1      50.181   6.479  15.520  0.00  0.00    +0.000 OA
ATOM     19  N   UNL     1      48.021   6.908  14.930  0.00  0.00    +0.000 N 
ATOM     20  H   UNL     1      47.075   7.077  15.234  0.00  0.00    +0.000 HD
BRANCH  17  24
ATOM     21  C   UNL     1      47.666   9.214  19.984  0.00  0.00    +0.000 C 
ATOM     22  N   UNL     1      48.055   8.152  19.087  0.00  0.00    +0.000 N 
ATOM     23  C   UNL     1      48.286   8.279  17.744  0.00  0.00    +0.000 A 
ATOM     24  C   UNL     1      48.662   7.037  17.238  0.00  0.00    +0.000 A 
ATOM     25  C   UNL     1      48.642   6.119  18.351  0.00  0.00    +0.000 A 
ATOM     26  C   UNL     1      48.866   4.771  18.618  0.00  0.00    +0.000 A 
ATOM     27 CL   UNL     1      49.257   3.674  17.388  0.00  0.00    +0.000 Cl
ATOM     28  N   UNL     1      48.721   4.246  19.849  0.00  0.00    +0.000 NA
ATOM     29  C   UNL     1      48.353   5.085  20.825  0.00  0.00    +0.000 A 
ATOM     30  N   UNL     1      48.101   6.395  20.725  0.00  0.00    +0.000 NA
ATOM     31  C   UNL     1      48.258   6.854  19.470  0.00  0.00    +0.000 A 
ENDBRANCH  17  24
ENDBRANCH   1  19
TORSDOF 7
ENDMDL
MODEL 4
REMARK VINA RESULT:    -7.458      2.105      2.339
REMARK INTER + INTRA:         -11.851
REMARK INTER:                 -10.581
REMARK INTRA:                  -1.270
REMARK UNBOUND:                -1.341
REMARK  Name = 
REMARK  8 active torsions:
REMARK  status: ('A' for Active; 'I' for Inactive)
REMARK    1  A    between atoms: C_1  and  N_2
REMARK    2  A    between atoms: C_4  and  C_5
REMARK    3  A    between atoms: N_7  and  C_8
REMARK    4  A    between atoms: C_8  and  C_9
REMARK    5  A    between atoms: C_12  and  C_13
REMARK    6  A    between atoms: C_13  and  O_14
REMARK    7  A    between atoms: O_14  and  C_15
REMARK    8  A    between atoms: C_15  and  C_16
REMARK                            x       y       z     vdW  Elec       q    Type
REMARK                         _______ _______ _______ _____ _____    ______ ____
ROOT
ATOM      1  C   UNL     1      48.727   7.590  12.807  0.00  0.00    +0.000 C 
ENDROOT
BRANCH   1   2
ATOM      2  C   UNL     1      47.611   6.612  12.563  0.00  0.00    +0.000 A 
ATOM      3  C   UNL     1      47.388   5.551  13.450  0.00  0.00    +0.000 A 
ATOM      4  C   UNL     1      46.337   4.654  13.234  0.00  0.00    +0.000 A 
ATOM      5  C   UNL     1      45.497   4.796  12.123  0.00  0.00    +0.000 A 
ATOM      6  C   UNL     1      45.728   5.850  11.231  0.00  0.00    +0.000 A 
ATOM      7  C   UNL     1      46.777   6.747  11.447  0.00  0.00    +0.000 A 
BRANCH   5   8
ATOM      8  C   UNL     1      44.375   3.822  11.872  0.00  0.00    +0.000 C 
BRANCH   8   9
ATOM      9  O   UNL     1      44.848   2.756  11.056  0.00  0.00    +0.000 OA
BRANCH   9  10
ATOM     10  C   UNL     1      44.257   2.805   9.758  0.00  0.00    +0.000 C 
BRANCH  10  11
ATOM     11  C   UNL     1      45.319   2.740   8.690  0.00  0.00    +0.000 A 
ATOM     12  C   UNL     1      45.728   3.887   7.995  0.00  0.00    +0.000 A 
ATOM     13  C   UNL     1      46.729   3.812   7.025  0.00  0.00    +0.000 A 
ATOM     14  C   UNL     1      47.341   2.591   6.749  0.00  0.00    +0.000 A 
ATOM     15  C   UNL     1      46.959   1.448   7.447  0.00  0.00    +0.000 A 
ATOM     16  C   UNL     1      45.959   1.522   8.417  0.00  0.00    +0.000 A 
ENDBRANCH  10  11
ENDBRANCH   9  10
ENDBRANCH   8   9
ENDBRANCH   5   8
ENDBRANCH   1   2
BRANCH   1  19
ATOM     17  C   UNL     1      49.783   7.508  15.006  0.00  0.00    +0.000 C 
ATOM     18  O   UNL     1      48.966   8.302  15.457  0.00  0.00    +0.000 OA
ATOM     19  N   UNL     1      49.726   7.060  13.703  0.00  0.00    +0.000 N 
ATOM     20  H   UNL     1      50.455   6.469  13.333  0.00  0.00    +0.000 HD
BRANCH  17  24
ATOM     21  C   UNL     1      54.379   6.703  16.776  0.00  0.00    +0.000 C 
ATOM     22  N   UNL     1      52.952   6.606  16.579  0.00  0.00    +0.000 N 
ATOM     23  C   UNL     1      52.205   7.373  15.726  0.00  0.00    +0.000 A 
ATOM     24  C   UNL     1      50.877   6.961  15.806  0.00  0.00    +0.000 A 
ATOM     25  C   UNL     1      50.838   5.891  16.773  0.00  0.00    +0.000 A 
ATOM     26  C   UNL     1      49.916   5.036  17.372  0.00  0.00    +0.000 A 
ATOM     27 CL   UNL     1      48.259   5.139  17.038  0.00  0.00    +0.000 Cl
ATOM     28  N   UNL     1      50.273   4.128  18.299  0.00  0.00    +0.000 NA
ATOM     29  C   UNL     1      51.570   4.071  18.623  0.00  0.00    +0.000 A 
ATOM     30  N   UNL     1      52.568   4.821  18.139  0.00  0.00    +0.000 NA
ATOM     31  C   UNL     1      52.143   5.711  17.224  0.00  0.00    +0.000 A 
ENDBRANCH  17  24
ENDBRANCH   1  19
TORSDOF 7
ENDMDL
MODEL 5
REMARK VINA RESULT:    -7.368      1.579      2.516
REMARK INTER + INTRA:         -11.725
REMARK INTER:                 -10.772
REMARK INTRA:                  -0.952
REMARK UNBOUND:                -1.341
REMARK  Name = 
REMARK  8 active torsions:
REMARK  status: ('A' for Active; 'I' for Inactive)
REMARK    1  A    between atoms: C_1  and  N_2
REMARK    2  A    between atoms: C_4  and  C_5
REMARK    3  A    between atoms: N_7  and  C_8
REMARK    4  A    between atoms: C_8  and  C_9
REMARK    5  A    between atoms: C_12  and  C_13
REMARK    6  A    between atoms: C_13  and  O_14
REMARK    7  A    between atoms: O_14  and  C_15
REMARK    8  A    between atoms: C_15  and  C_16
REMARK                            x       y       z     vdW  Elec       q    Type
REMARK                         _______ _______ _______ _____ _____    ______ ____
ROOT
ATOM      1  C   UNL     1      46.809   7.738  13.019  0.00  0.00    +0.000 C 
ENDROOT
BRANCH   1   2
ATOM      2  C   UNL     1      45.949   6.617  12.504  0.00  0.00    +0.000 A 
ATOM      3  C   UNL     1      45.634   5.527  13.325  0.00  0.00    +0.000 A 
ATOM      4  C   UNL     1      44.817   4.496  12.853  0.00  0.00    +0.000 A 
ATOM      5  C   UNL     1      44.308   4.530  11.549  0.00  0.00    +0.000 A 
ATOM      6  C   UNL     1      44.634   5.615  10.725  0.00  0.00    +0.000 A 
ATOM      7  C   UNL     1      45.449   6.646  11.196  0.00  0.00    +0.000 A 
BRANCH   5   8
ATOM      8  C   UNL     1      43.444   3.413  11.025  0.00  0.00    +0.000 C 
BRANCH   8   9
ATOM      9  O   UNL     1      43.860   3.070   9.708  0.00  0.00    +0.000 OA
BRANCH   9  10
ATOM     10  C   UNL     1      45.018   2.238   9.737  0.00  0.00    +0.000 C 
BRANCH  10  11
ATOM     11  C   UNL     1      45.764   2.321   8.429  0.00  0.00    +0.000 A 
ATOM     12  C   UNL     1      45.790   3.504   7.677  0.00  0.00    +0.000 A 
ATOM     13  C   UNL     1      46.505   3.569   6.480  0.00  0.00    +0.000 A 
ATOM     14  C   UNL     1      47.212   2.456   6.029  0.00  0.00    +0.000 A 
ATOM     15  C   UNL     1      47.212   1.282   6.778  0.00  0.00    +0.000 A 
ATOM     16  C   UNL     1      46.497   1.216   7.975  0.00  0.00    +0.000 A 
ENDBRANCH  10  11
ENDBRANCH   9  10
ENDBRANCH   8   9
ENDBRANCH   5   8
ENDBRANCH   1   2
BRANCH   1  19
ATOM     17  C   UNL     1      48.633   6.768  14.320  0.00  0.00    +0.000 C 
ATOM     18  O   UNL     1      49.258   6.509  13.298  0.00  0.00    +0.000 OA
ATOM     19  N   UNL     1      47.416   7.416  14.288  0.00  0.00    +0.000 N 
ATOM     20  H   UNL     1      46.884   7.547  15.135  0.00  0.00    +0.000 HD
BRANCH  17  24
ATOM     21  C   UNL     1      48.816   4.833  18.916  0.00  0.00    +0.000 C 
ATOM     22  N   UNL     1      49.179   5.556  17.720  0.00  0.00    +0.000 N 
ATOM     23  C   UNL     1      48.451   5.611  16.562  0.00  0.00    +0.000 A 
ATOM     24  C   UNL     1      49.121   6.425  15.653  0.00  0.00    +0.000 A 
ATOM     25  C   UNL     1      50.325   6.871  16.313  0.00  0.00    +0.000 A 
ATOM     26  C   UNL     1      51.449   7.651  16.055  0.00  0.00    +0.000 A 
ATOM     27 CL   UNL     1      51.709   8.363  14.541  0.00  0.00    +0.000 Cl
ATOM     28  N   UNL     1      52.426   7.829  16.964  0.00  0.00    +0.000 NA
ATOM     29  C   UNL     1      52.269   7.224  18.147  0.00  0.00    +0.000 A 
ATOM     30  N   UNL     1      51.253   6.448  18.541  0.00  0.00    +0.000 NA
ATOM     31  C   UNL     1      50.316   6.305  17.585  0.00  0.00    +0.000 A 
ENDBRANCH  17  24
ENDBRANCH   1  19
TORSDOF 7
ENDMDL
MODEL 6
REMARK VINA RESULT:    -7.345      2.518      3.077
REMARK INTER + INTRA:         -11.691
REMARK INTER:                 -10.737
REMARK INTRA:                  -0.955
REMARK UNBOUND:                -1.341
REMARK  Name = 
REMARK  8 active torsions:
REMARK  status: ('A' for Active; 'I' for Inactive)
REMARK    1  A    between atoms: C_1  and  N_2
REMARK    2  A    between atoms: C_4  and  C_5
REMARK    3  A    between atoms: N_7  and  C_8
REMARK    4  A    between atoms: C_8  and  C_9
REMARK    5  A    between atoms: C_12  and  C_13
REMARK    6  A    between atoms: C_13  and  O_14
REMARK    7  A    between atoms: O_14  and  C_15
REMARK    8  A    between atoms: C_15  and  C_16
REMARK                            x       y       z     vdW  Elec       q    Type
REMARK                         _______ _______ _______ _____ _____    ______ ____
ROOT
ATOM      1  C   UNL     1      48.820   7.323  15.402  0.00  0.00    +0.000 C 
ENDROOT
BRANCH   1   2
ATOM      2  C   UNL     1      47.897   6.720  14.380  0.00  0.00    +0.000 A 
ATOM      3  C   UNL     1      47.523   7.446  13.242  0.00  0.00    +0.000 A 
ATOM      4  C   UNL     1      46.681   6.877  12.282  0.00  0.00    +0.000 A 
ATOM      5  C   UNL     1      46.190   5.576  12.446  0.00  0.00    +0.000 A 
ATOM      6  C   UNL     1      46.555   4.856  13.591  0.00  0.00    +0.000 A 
ATOM      7  C   UNL     1      47.397   5.423  14.550  0.00  0.00    +0.000 A 
BRANCH   5   8
ATOM      8  C   UNL     1      45.266   4.963  11.427  0.00  0.00    +0.000 C 
BRANCH   8   9
ATOM      9  O   UNL     1      45.862   5.044  10.137  0.00  0.00    +0.000 OA
BRANCH   9  10
ATOM     10  C   UNL     1      45.020   4.458   9.146  0.00  0.00    +0.000 C 
BRANCH  10  11
ATOM     11  C   UNL     1      45.769   3.407   8.367  0.00  0.00    +0.000 A 
ATOM     12  C   UNL     1      45.720   2.054   8.732  0.00  0.00    +0.000 A 
ATOM     13  C   UNL     1      46.402   1.092   7.986  0.00  0.00    +0.000 A 
ATOM     14  C   UNL     1      47.128   1.470   6.859  0.00  0.00    +0.000 A 
ATOM     15  C   UNL     1      47.166   2.808   6.472  0.00  0.00    +0.000 A 
ATOM     16  C   UNL     1      46.486   3.771   7.218  0.00  0.00    +0.000 A 
ENDBRANCH  10  11
ENDBRANCH   9  10
ENDBRANCH   8   9
ENDBRANCH   5   8
ENDBRANCH   1   2
BRANCH   1  19
ATOM     17  C   UNL     1      49.823   5.919  17.128  0.00  0.00    +0.000 C 
ATOM     18  O   UNL     1      48.935   6.214  17.920  0.00  0.00    +0.000 OA
ATOM     19  N   UNL     1      49.835   6.392  15.833  0.00  0.00    +0.000 N 
ATOM     20  H   UNL     1      50.618   6.200  15.226  0.00  0.00    +0.000 HD
BRANCH  17  24
ATOM     21  C   UNL     1      54.372   4.400  18.506  0.00  0.00    +0.000 C 
ATOM     22  N   UNL     1      52.990   4.378  18.091  0.00  0.00    +0.000 N 
ATOM     23  C   UNL     1      52.190   5.473  17.902  0.00  0.00    +0.000 A 
ATOM     24  C   UNL     1      50.935   5.040  17.481  0.00  0.00    +0.000 A 
ATOM     25  C   UNL     1      50.996   3.599  17.428  0.00  0.00    +0.000 A 
ATOM     26  C   UNL     1      50.176   2.513  17.132  0.00  0.00    +0.000 A 
ATOM     27 CL   UNL     1      48.545   2.716  16.723  0.00  0.00    +0.000 Cl
ATOM     28  N   UNL     1      50.606   1.241  17.219  0.00  0.00    +0.000 NA
ATOM     29  C   UNL     1      51.876   1.056  17.601  0.00  0.00    +0.000 A 
ATOM     30  N   UNL     1      52.779   1.991  17.917  0.00  0.00    +0.000 NA
ATOM     31  C   UNL     1      52.284   3.238  17.816  0.00  0.00    +0.000 A 
ENDBRANCH  17  24
ENDBRANCH   1  19
TORSDOF 7
ENDMDL
MODEL 7
REMARK VINA RESULT:    -7.271      2.166      2.766
REMARK INTER + INTRA:         -11.588
REMARK INTER:                 -10.607
REMARK INTRA:                  -0.981
REMARK UNBOUND:                -1.341
REMARK  Name = 
REMARK  8 active torsions:
REMARK  status: ('A' for Active; 'I' for Inactive)
REMARK    1  A    between atoms: C_1  and  N_2
REMARK    2  A    between atoms: C_4  and  C_5
REMARK    3  A    between atoms: N_7  and  C_8
REMARK    4  A    between atoms: C_8  and  C_9
REMARK    5  A    between atoms: C_12  and  C_13
REMARK    6  A    between atoms: C_13  and  O_14
REMARK    7  A    between atoms: O_14  and  C_15
REMARK    8  A    between atoms: C_15  and  C_16
REMARK                            x       y       z     vdW  Elec       q    Type
REMARK                         _______ _______ _______ _____ _____    ______ ____
ROOT
ATOM      1  C   UNL     1      48.210   5.701  14.183  0.00  0.00    +0.000 C 
ENDROOT
BRANCH   1   2
ATOM      2  C   UNL     1      47.037   5.412  13.287  0.00  0.00    +0.000 A 
ATOM      3  C   UNL     1      46.436   4.146  13.290  0.00  0.00    +0.000 A 
ATOM      4  C   UNL     1      45.333   3.884  12.472  0.00  0.00    +0.000 A 
ATOM      5  C   UNL     1      44.817   4.877  11.631  0.00  0.00    +0.000 A 
ATOM      6  C   UNL     1      45.428   6.138  11.621  0.00  0.00    +0.000 A 
ATOM      7  C   UNL     1      46.529   6.401  12.438  0.00  0.00    +0.000 A 
BRANCH   5   8
ATOM      8  C   UNL     1      43.642   4.597  10.731  0.00  0.00    +0.000 C 
BRANCH   8   9
ATOM      9  O   UNL     1      43.996   3.591   9.788  0.00  0.00    +0.000 OA
BRANCH   9  10
ATOM     10  C   UNL     1      44.622   4.164   8.640  0.00  0.00    +0.000 C 
BRANCH  10  11
ATOM     11  C   UNL     1      45.582   3.184   8.016  0.00  0.00    +0.000 A 
ATOM     12  C   UNL     1      46.439   3.564   6.972  0.00  0.00    +0.000 A 
ATOM     13  C   UNL     1      47.337   2.649   6.422  0.00  0.00    +0.000 A 
ATOM     14  C   UNL     1      47.399   1.349   6.918  0.00  0.00    +0.000 A 
ATOM     15  C   UNL     1      46.570   0.964   7.969  0.00  0.00    +0.000 A 
ATOM     16  C   UNL     1      45.670   1.878   8.520  0.00  0.00    +0.000 A 
ENDBRANCH  10  11
ENDBRANCH   9  10
ENDBRANCH   8   9
ENDBRANCH   5   8
ENDBRANCH   1   2
BRANCH   1  19
ATOM     17  C   UNL     1      48.853   7.414  15.800  0.00  0.00    +0.000 C 
ATOM     18  O   UNL     1      50.007   7.406  15.387  0.00  0.00    +0.000 OA
ATOM     19  N   UNL     1      47.870   6.625  15.239  0.00  0.00    +0.000 N 
ATOM     20  H   UNL     1      46.949   6.589  15.647  0.00  0.00    +0.000 HD
BRANCH  17  24
ATOM     21  C   UNL     1      47.568  11.468  18.409  0.00  0.00    +0.000 C 
ATOM     22  N   UNL     1      47.854  10.095  18.067  0.00  0.00    +0.000 N 
ATOM     23  C   UNL     1      48.202   9.632  16.827  0.00  0.00    +0.000 A 
ATOM     24  C   UNL     1      48.417   8.259  16.909  0.00  0.00    +0.000 A 
ATOM     25  C   UNL     1      48.172   7.887  18.282  0.00  0.00    +0.000 A 
ATOM     26  C   UNL     1      48.164   6.752  19.088  0.00  0.00    +0.000 A 
ATOM     27 CL   UNL     1      48.471   5.211  18.458  0.00  0.00    +0.000 Cl
ATOM     28  N   UNL     1      47.848   6.800  20.396  0.00  0.00    +0.000 NA
ATOM     29  C   UNL     1      47.543   8.001  20.901  0.00  0.00    +0.000 A 
ATOM     30  N   UNL     1      47.505   9.174  20.258  0.00  0.00    +0.000 NA
ATOM     31  C   UNL     1      47.825   9.055  18.956  0.00  0.00    +0.000 A 
ENDBRANCH  17  24
ENDBRANCH   1  19
TORSDOF 7
ENDMDL
MODEL 8
REMARK VINA RESULT:    -7.148      3.737      5.512
REMARK INTER + INTRA:         -11.415
REMARK INTER:                 -10.264
REMARK INTRA:                  -1.151
REMARK UNBOUND:                -1.341
REMARK  Name = 
REMARK  8 active torsions:
REMARK  status: ('A' for Active; 'I' for Inactive)
REMARK    1  A    between atoms: C_1  and  N_2
REMARK    2  A    between atoms: C_4  and  C_5
REMARK    3  A    between atoms: N_7  and  C_8
REMARK    4  A    between atoms: C_8  and  C_9
REMARK    5  A    between atoms: C_12  and  C_13
REMARK    6  A    between atoms: C_13  and  O_14
REMARK    7  A    between atoms: O_14  and  C_15
REMARK    8  A    between atoms: C_15  and  C_16
REMARK                            x       y       z     vdW  Elec       q    Type
REMARK                         _______ _______ _______ _____ _____    ______ ____
ROOT
ATOM      1  C   UNL     1      46.921   7.832  13.178  0.00  0.00    +0.000 C 
ENDROOT
BRANCH   1   2
ATOM      2  C   UNL     1      46.158   6.634  12.684  0.00  0.00    +0.000 A 
ATOM      3  C   UNL     1      46.200   5.424  13.390  0.00  0.00    +0.000 A 
ATOM      4  C   UNL     1      45.474   4.317  12.941  0.00  0.00    +0.000 A 
ATOM      5  C   UNL     1      44.702   4.395  11.776  0.00  0.00    +0.000 A 
ATOM      6  C   UNL     1      44.672   5.602  11.065  0.00  0.00    +0.000 A 
ATOM      7  C   UNL     1      45.396   6.709  11.513  0.00  0.00    +0.000 A 
BRANCH   5   8
ATOM      8  C   UNL     1      43.934   3.200  11.274  0.00  0.00    +0.000 C 
BRANCH   8   9
ATOM      9  O   UNL     1      43.936   3.199   9.851  0.00  0.00    +0.000 OA
BRANCH   9  10
ATOM     10  C   UNL     1      44.431   1.961   9.341  0.00  0.00    +0.000 C 
BRANCH  10  11
ATOM     11  C   UNL     1      45.543   2.202   8.353  0.00  0.00    +0.000 A 
ATOM     12  C   UNL     1      45.769   3.471   7.800  0.00  0.00    +0.000 A 
ATOM     13  C   UNL     1      46.818   3.679   6.904  0.00  0.00    +0.000 A 
ATOM     14  C   UNL     1      47.661   2.624   6.561  0.00  0.00    +0.000 A 
ATOM     15  C   UNL     1      47.462   1.364   7.119  0.00  0.00    +0.000 A 
ATOM     16  C   UNL     1      46.413   1.154   8.015  0.00  0.00    +0.000 A 
ENDBRANCH  10  11
ENDBRANCH   9  10
ENDBRANCH   8   9
ENDBRANCH   5   8
ENDBRANCH   1   2
BRANCH   1  19
ATOM     17  C   UNL     1      49.291   7.727  12.602  0.00  0.00    +0.000 C 
ATOM     18  O   UNL     1      49.516   6.989  13.554  0.00  0.00    +0.000 OA
ATOM     19  N   UNL     1      48.020   8.173  12.307  0.00  0.00    +0.000 N 
ATOM     20  H   UNL     1      47.872   8.843  11.567  0.00  0.00    +0.000 HD
BRANCH  17  24
ATOM     21  C   UNL     1      52.958   7.663   9.219  0.00  0.00    +0.000 C 
ATOM     22  N   UNL     1      51.994   8.138  10.184  0.00  0.00    +0.000 N 
ATOM     23  C   UNL     1      51.065   7.372  10.834  0.00  0.00    +0.000 A 
ATOM     24  C   UNL     1      50.340   8.190  11.697  0.00  0.00    +0.000 A 
ATOM     25  C   UNL     1      50.868   9.523  11.538  0.00  0.00    +0.000 A 
ATOM     26  C   UNL     1      50.657  10.812  12.019  0.00  0.00    +0.000 A 
ATOM     27 CL   UNL     1      49.412  11.160  13.114  0.00  0.00    +0.000 Cl
ATOM     28  N   UNL     1      51.378  11.867  11.596  0.00  0.00    +0.000 NA
ATOM     29  C   UNL     1      52.328  11.624  10.685  0.00  0.00    +0.000 A 
ATOM     30  N   UNL     1      52.647  10.449  10.130  0.00  0.00    +0.000 NA
ATOM     31  C   UNL     1      51.886   9.440  10.591  0.00  0.00    +0.000 A 
ENDBRANCH  17  24
ENDBRANCH   1  19
TORSDOF 7
ENDMDL
MODEL 9
REMARK VINA RESULT:    -6.939      2.161      3.472
REMARK INTER + INTRA:         -11.120
REMARK INTER:                 -10.045
REMARK INTRA:                  -1.075
REMARK UNBOUND:                -1.341
REMARK  Name = 
REMARK  8 active torsions:
REMARK  status: ('A' for Active; 'I' for Inactive)
REMARK    1  A    between atoms: C_1  and  N_2
REMARK    2  A    between atoms: C_4  and  C_5
REMARK    3  A    between atoms: N_7  and  C_8
REMARK    4  A    between atoms: C_8  and  C_9
REMARK    5  A    between atoms: C_12  and  C_13
REMARK    6  A    between atoms: C_13  and  O_14
REMARK    7  A    between atoms: O_14  and  C_15
REMARK    8  A    between atoms: C_15  and  C_16
REMARK                            x       y       z     vdW  Elec       q    Type
REMARK                         _______ _______ _______ _____ _____    ______ ____
ROOT
ATOM      1  C   UNL     1      47.477   4.529  15.712  0.00  0.00    +0.000 C 
ENDROOT
BRANCH   1   2
ATOM      2  C   UNL     1      46.886   4.715  14.341  0.00  0.00    +0.000 A 
ATOM      3  C   UNL     1      46.125   3.698  13.750  0.00  0.00    +0.000 A 
ATOM      4  C   UNL     1      45.559   3.880  12.485  0.00  0.00    +0.000 A 
ATOM      5  C   UNL     1      45.751   5.076  11.784  0.00  0.00    +0.000 A 
ATOM      6  C   UNL     1      46.522   6.087  12.371  0.00  0.00    +0.000 A 
ATOM      7  C   UNL     1      47.087   5.907  13.635  0.00  0.00    +0.000 A 
BRANCH   5   8
ATOM      8  C   UNL     1      45.161   5.272  10.412  0.00  0.00    +0.000 C 
BRANCH   8   9
ATOM      9  O   UNL     1      44.742   4.016   9.892  0.00  0.00    +0.000 OA
BRANCH   9  10
ATOM     10  C   UNL     1      44.667   4.050   8.468  0.00  0.00    +0.000 C 
BRANCH  10  11
ATOM     11  C   UNL     1      45.671   3.104   7.860  0.00  0.00    +0.000 A 
ATOM     12  C   UNL     1      46.464   3.483   6.768  0.00  0.00    +0.000 A 
ATOM     13  C   UNL     1      47.404   2.601   6.233  0.00  0.00    +0.000 A 
ATOM     14  C   UNL     1      47.572   1.337   6.794  0.00  0.00    +0.000 A 
ATOM     15  C   UNL     1      46.807   0.956   7.893  0.00  0.00    +0.000 A 
ATOM     16  C   UNL     1      45.865   1.836   8.428  0.00  0.00    +0.000 A 
ENDBRANCH  10  11
ENDBRANCH   9  10
ENDBRANCH   8   9
ENDBRANCH   5   8
ENDBRANCH   1   2
BRANCH   1  19
ATOM     17  C   UNL     1      49.191   5.789  16.908  0.00  0.00    +0.000 C 
ATOM     18  O   UNL     1      49.907   4.797  16.979  0.00  0.00    +0.000 OA
ATOM     19  N   UNL     1      47.974   5.768  16.261  0.00  0.00    +0.000 N 
ATOM     20  H   UNL     1      47.368   6.574  16.285  0.00  0.00    +0.000 HD
BRANCH  17  24
ATOM     21  C   UNL     1      50.003   9.376  20.281  0.00  0.00    +0.000 C 
ATOM     22  N   UNL     1      49.913   8.678  19.020  0.00  0.00    +0.000 N 
ATOM     23  C   UNL     1      49.557   7.367  18.851  0.00  0.00    +0.000 A 
ATOM     24  C   UNL     1      49.566   7.076  17.490  0.00  0.00    +0.000 A 
ATOM     25  C   UNL     1      49.960   8.289  16.814  0.00  0.00    +0.000 A 
ATOM     26  C   UNL     1      50.201   8.754  15.524  0.00  0.00    +0.000 A 
ATOM     27 CL   UNL     1      50.097   7.733  14.177  0.00  0.00    +0.000 Cl
ATOM     28  N   UNL     1      50.596  10.016  15.275  0.00  0.00    +0.000 NA
ATOM     29  C   UNL     1      50.744  10.823  16.333  0.00  0.00    +0.000 A 
ATOM     30  N   UNL     1      50.553  10.525  17.623  0.00  0.00    +0.000 NA
ATOM     31  C   UNL     1      50.166   9.248  17.802  0.00  0.00    +0.000 A 
ENDBRANCH  17  24
ENDBRANCH   1  19
TORSDOF 7
ENDMDL
