MODEL 1
REMARK VINA RESULT:    -7.929      0.000      0.000
REMARK INTER + INTRA:         -11.525
REMARK INTER:                 -11.174
REMARK INTRA:                  -0.352
REMARK UNBOUND:                -0.352
REMARK  Name = 
REMARK  10 active torsions:
REMARK  status: ('A' for Active; 'I' for Inactive)
REMARK    1  A    between atoms: C_1  and  C_2
REMARK    2  A    between atoms: C_2  and  O_3
REMARK    3  A    between atoms: O_3  and  C_4
REMARK    4  A    between atoms: C_6  and  C_7
REMARK    5  A    between atoms: C_7  and  C_8
REMARK    6  A    between atoms: C_8  and  N_9
REMARK    7  A    between atoms: C_13  and  C_14
REMARK    8  A    between atoms: C_17  and  C_18
REMARK    9  A    between atoms: C_21  and  N_22
REMARK   10  A    between atoms: N_25  and  C_26
REMARK                            x       y       z     vdW  Elec       q    Type
REMARK                         _______ _______ _______ _____ _____    ______ ____
ROOT
ATOM      1  C   UNL     1      46.840   4.520  14.143  0.00  0.00    +0.000 A 
ATOM      2  C   UNL     1      45.656   3.985  13.625  0.00  0.00    +0.000 A 
ATOM      3  C   UNL     1      44.804   4.786  12.853  0.00  0.00    +0.000 A 
ATOM      4  C   UNL     1      45.198   6.113  12.601  0.00  0.00    +0.000 A 
ATOM      5  C   UNL     1      46.378   6.674  13.102  0.00  0.00    +0.000 A 
ATOM      6  C   UNL     1      47.199   5.842  13.861  0.00  0.00    +0.000 A 
ENDROOT
BRANCH   5   7
ATOM      7  N   UNL     1      46.612   8.022  12.919  0.00  0.00    +0.000 N 
ATOM      8  C   UNL     1      45.506   8.971  12.767  0.00  0.00    +0.000 C 
ATOM      9  C   UNL     1      45.945  10.109  11.817  0.00  0.00    +0.000 C 
ATOM     10  N   UNL     1      47.173  10.799  12.276  0.00  0.00    +0.000 NA
ATOM     11  C   UNL     1      47.566  11.828  11.315  0.00  0.00    +0.000 C 
ATOM     12  C   UNL     1      48.260   9.805  12.449  0.00  0.00    +0.000 C 
ATOM     13  C   UNL     1      47.869   8.634  13.384  0.00  0.00    +0.000 C 
ENDBRANCH   5   7
BRANCH   1  14
ATOM     14  O   UNL     1      47.726   3.843  14.937  0.00  0.00    +0.000 OA
BRANCH  14  16
ATOM     15  C   UNL     1      48.209   2.770  17.008  0.00  0.00    +0.000 C 
ATOM     16  C   UNL     1      47.495   3.932  16.342  0.00  0.00    +0.000 C 
ENDBRANCH  14  16
ENDBRANCH   1  14
BRANCH   3  17
ATOM     17  C   UNL     1      43.475   4.233  12.357  0.00  0.00    +0.000 C 
BRANCH  17  18
ATOM     18  C   UNL     1      43.424   4.022  10.838  0.00  0.00    +0.000 C 
BRANCH  18  19
ATOM     19  N   UNL     1      44.224   4.990  10.080  0.00  0.00    +0.000 N 
ATOM     20  C   UNL     1      45.104   4.322   9.197  0.00  0.00    +0.000 A 
ATOM     21  C   UNL     1      45.939   5.071   8.382  0.00  0.00    +0.000 A 
ATOM     22  C   UNL     1      46.787   4.413   7.489  0.00  0.00    +0.000 A 
ATOM     23  C   UNL     1      46.800   3.011   7.424  0.00  0.00    +0.000 A 
ATOM     24  C   UNL     1      45.935   2.319   8.270  0.00  0.00    +0.000 A 
ATOM     25  C   UNL     1      45.803   0.828   8.349  0.00  0.00    +0.000 C 
ATOM     26  N   UNL     1      45.108   2.974   9.134  0.00  0.00    +0.000 NA
ATOM     27  H   UNL     1      44.775   5.590  10.687  0.00  0.00    +0.000 HD
BRANCH  23  28
ATOM     28  C   UNL     1      47.687   2.328   6.447  0.00  0.00    +0.000 C 
ATOM     29  N   UNL     1      47.765   2.864   5.190  0.00  0.00    +0.000 N 
ATOM     30  O   UNL     1      48.333   1.326   6.725  0.00  0.00    +0.000 OA
ATOM     31  H   UNL     1      47.366   3.756   4.929  0.00  0.00    +0.000 HD
ATOM     32  H   UNL     1      48.414   2.428   4.548  0.00  0.00    +0.000 HD
ENDBRANCH  23  28
ENDBRANCH  18  19
ENDBRANCH  17  18
ENDBRANCH   3  17
TORSDOF 7
ENDMDL
MODEL 2
REMARK VINA RESULT:    -7.565      2.342      4.668
REMARK INTER + INTRA:         -11.013
REMARK INTER:                  -9.906
REMARK INTRA:                  -1.108
REMARK UNBOUND:                -0.352
REMARK  Name = 
REMARK  10 active torsions:
REMARK  status: ('A' for Active; 'I' for Inactive)
REMARK    1  A    between atoms: C_1  and  C_2
REMARK    2  A    between atoms: C_2  and  O_3
REMARK    3  A    between atoms: O_3  and  C_4
REMARK    4  A    between atoms: C_6  and  C_7
REMARK    5  A    between atoms: C_7  and  C_8
REMARK    6  A    between atoms: C_8  and  N_9
REMARK    7  A    between atoms: C_13  and  C_14
REMARK    8  A    between atoms: C_17  and  C_18
REMARK    9  A    between atoms: C_21  and  N_22
REMARK   10  A    between atoms: N_25  and  C_26
REMARK                            x       y       z     vdW  Elec       q    Type
REMARK                         _______ _______ _______ _____ _____    ______ ____
ROOT
ATOM      1  C   UNL     1      46.954   6.195  12.386  0.00  0.00    +0.000 A 
ATOM      2  C   UNL     1      45.771   5.508  12.094  0.00  0.00    +0.000 A 
ATOM      3  C   UNL     1      45.219   4.632  13.037  0.00  0.00    +0.000 A 
ATOM      4  C   UNL     1      45.874   4.499  14.275  0.00  0.00    +0.000 A 
ATOM      5  C   UNL     1      47.057   5.175  14.596  0.00  0.00    +0.000 A 
ATOM      6  C   UNL     1      47.570   6.041  13.632  0.00  0.00    +0.000 A 
ENDROOT
BRANCH   5   7
ATOM      7  N   UNL     1      47.703   4.877  15.780  0.00  0.00    +0.000 N 
ATOM      8  C   UNL     1      47.761   3.503  16.287  0.00  0.00    +0.000 C 
ATOM      9  C   UNL     1      47.749   3.535  17.832  0.00  0.00    +0.000 C 
ATOM     10  N   UNL     1      48.846   4.354  18.399  0.00  0.00    +0.000 NA
ATOM     11  C   UNL     1      48.753   4.387  19.857  0.00  0.00    +0.000 C 
ATOM     12  C   UNL     1      48.774   5.726  17.839  0.00  0.00    +0.000 C 
ATOM     13  C   UNL     1      48.772   5.752  16.291  0.00  0.00    +0.000 C 
ENDBRANCH   5   7
BRANCH   1  14
ATOM     14  O   UNL     1      47.600   7.045  11.529  0.00  0.00    +0.000 OA
BRANCH  14  16
ATOM     15  C   UNL     1      49.833   7.864  11.396  0.00  0.00    +0.000 C 
ATOM     16  C   UNL     1      48.510   7.964  12.132  0.00  0.00    +0.000 C 
ENDBRANCH  14  16
ENDBRANCH   1  14
BRANCH   3  17
ATOM     17  C   UNL     1      43.978   3.820  12.694  0.00  0.00    +0.000 C 
BRANCH  17  18
ATOM     18  C   UNL     1      43.700   3.726  11.187  0.00  0.00    +0.000 C 
BRANCH  18  19
ATOM     19  N   UNL     1      43.919   2.388  10.628  0.00  0.00    +0.000 N 
ATOM     20  C   UNL     1      44.788   2.453   9.514  0.00  0.00    +0.000 A 
ATOM     21  C   UNL     1      45.127   1.281   8.854  0.00  0.00    +0.000 A 
ATOM     22  C   UNL     1      46.008   1.342   7.772  0.00  0.00    +0.000 A 
ATOM     23  C   UNL     1      46.536   2.572   7.353  0.00  0.00    +0.000 A 
ATOM     24  C   UNL     1      46.154   3.711   8.060  0.00  0.00    +0.000 A 
ATOM     25  C   UNL     1      46.606   5.109   7.768  0.00  0.00    +0.000 C 
ATOM     26  N   UNL     1      45.298   3.638   9.119  0.00  0.00    +0.000 NA
ATOM     27  H   UNL     1      43.052   1.949  10.333  0.00  0.00    +0.000 HD
BRANCH  23  28
ATOM     28  C   UNL     1      47.495   2.614   6.218  0.00  0.00    +0.000 C 
ATOM     29  N   UNL     1      48.816   2.407   6.508  0.00  0.00    +0.000 N 
ATOM     30  O   UNL     1      47.147   2.821   5.063  0.00  0.00    +0.000 OA
ATOM     31  H   UNL     1      49.158   2.104   7.409  0.00  0.00    +0.000 HD
ATOM     32  H   UNL     1      49.455   2.381   5.723  0.00  0.00    +0.000 HD
ENDBRANCH  23  28
ENDBRANCH  18  19
ENDBRANCH  17  18
ENDBRANCH   3  17
TORSDOF 7
ENDMDL
MODEL 3
REMARK VINA RESULT:    -7.225      2.227      6.558
REMARK INTER + INTRA:         -10.533
REMARK INTER:                  -9.271
REMARK INTRA:                  -1.262
REMARK UNBOUND:                -0.352
REMARK  Name = 
REMARK  10 active torsions:
REMARK  status: ('A' for Active; 'I' for Inactive)
REMARK    1  A    between atoms: C_1  and  C_2
REMARK    2  A    between atoms: C_2  and  O_3
REMARK    3  A    between atoms: O_3  and  C_4
REMARK    4  A    between atoms: C_6  and  C_7
REMARK    5  A    between atoms: C_7  and  C_8
REMARK    6  A    between atoms: C_8  and  N_9
REMARK    7  A    between atoms: C_13  and  C_14
REMARK    8  A    between atoms: C_17  and  C_18
REMARK    9  A    between atoms: C_21  and  N_22
REMARK   10  A    between atoms: N_25  and  C_26
REMARK                            x       y       z     vdW  Elec       q    Type
REMARK                         _______ _______ _______ _____ _____    ______ ____
ROOT
ATOM      1  C   UNL     1      45.327   4.958  13.095  0.00  0.00    +0.000 A 
ATOM      2  C   UNL     1      44.972   6.304  12.964  0.00  0.00    +0.000 A 
ATOM      3  C   UNL     1      44.752   6.850  11.693  0.00  0.00    +0.000 A 
ATOM      4  C   UNL     1      44.870   5.997  10.580  0.00  0.00    +0.000 A 
ATOM      5  C   UNL     1      45.220   4.646  10.681  0.00  0.00    +0.000 A 
ATOM      6  C   UNL     1      45.425   4.141  11.964  0.00  0.00    +0.000 A 
ENDROOT
BRANCH   5   7
ATOM      7  N   UNL     1      45.447   3.922   9.527  0.00  0.00    +0.000 N 
ATOM      8  C   UNL     1      44.868   2.589   9.341  0.00  0.00    +0.000 C 
ATOM      9  C   UNL     1      45.841   1.729   8.502  0.00  0.00    +0.000 C 
ATOM     10  N   UNL     1      46.175   2.347   7.197  0.00  0.00    +0.000 NA
ATOM     11  C   UNL     1      47.134   1.515   6.473  0.00  0.00    +0.000 C 
ATOM     12  C   UNL     1      46.727   3.705   7.424  0.00  0.00    +0.000 C 
ATOM     13  C   UNL     1      45.796   4.607   8.270  0.00  0.00    +0.000 C 
ENDBRANCH   5   7
BRANCH   1  14
ATOM     14  O   UNL     1      45.600   4.329  14.281  0.00  0.00    +0.000 OA
BRANCH  14  16
ATOM     15  C   UNL     1      47.343   4.284  15.904  0.00  0.00    +0.000 C 
ATOM     16  C   UNL     1      46.958   3.937  14.478  0.00  0.00    +0.000 C 
ENDBRANCH  14  16
ENDBRANCH   1  14
BRANCH   3  17
ATOM     17  C   UNL     1      44.447   8.334  11.540  0.00  0.00    +0.000 C 
BRANCH  17  18
ATOM     18  C   UNL     1      45.107   9.213  12.611  0.00  0.00    +0.000 C 
BRANCH  18  19
ATOM     19  N   UNL     1      46.016  10.226  12.064  0.00  0.00    +0.000 N 
ATOM     20  C   UNL     1      47.329   9.710  11.964  0.00  0.00    +0.000 A 
ATOM     21  C   UNL     1      48.334  10.519  11.454  0.00  0.00    +0.000 A 
ATOM     22  C   UNL     1      49.625  10.000  11.327  0.00  0.00    +0.000 A 
ATOM     23  C   UNL     1      49.902   8.681  11.718  0.00  0.00    +0.000 A 
ATOM     24  C   UNL     1      48.846   7.924  12.222  0.00  0.00    +0.000 A 
ATOM     25  C   UNL     1      48.941   6.503  12.690  0.00  0.00    +0.000 C 
ATOM     26  N   UNL     1      47.589   8.440  12.335  0.00  0.00    +0.000 NA
ATOM     27  H   UNL     1      46.045  11.065  12.637  0.00  0.00    +0.000 HD
BRANCH  23  28
ATOM     28  C   UNL     1      51.274   8.137  11.548  0.00  0.00    +0.000 C 
ATOM     29  N   UNL     1      52.136   8.271  12.602  0.00  0.00    +0.000 N 
ATOM     30  O   UNL     1      51.646   7.585  10.521  0.00  0.00    +0.000 OA
ATOM     31  H   UNL     1      51.863   8.595  13.520  0.00  0.00    +0.000 HD
ATOM     32  H   UNL     1      53.050   7.848  12.500  0.00  0.00    +0.000 HD
ENDBRANCH  23  28
ENDBRANCH  18  19
ENDBRANCH  17  18
ENDBRANCH   3  17
TORSDOF 7
ENDMDL
MODEL 4
REMARK VINA RESULT:    -7.045      3.462      7.865
REMARK INTER + INTRA:         -10.280
REMARK INTER:                  -9.112
REMARK INTRA:                  -1.168
REMARK UNBOUND:                -0.352
REMARK  Name = 
REMARK  10 active torsions:
REMARK  status: ('A' for Active; 'I' for Inactive)
REMARK    1  A    between atoms: C_1  and  C_2
REMARK    2  A    between atoms: C_2  and  O_3
REMARK    3  A    between atoms: O_3  and  C_4
REMARK    4  A    between atoms: C_6  and  C_7
REMARK    5  A    between atoms: C_7  and  C_8
REMARK    6  A    between atoms: C_8  and  N_9
REMARK    7  A    between atoms: C_13  and  C_14
REMARK    8  A    between atoms: C_17  and  C_18
REMARK    9  A    between atoms: C_21  and  N_22
REMARK   10  A    between atoms: N_25  and  C_26
REMARK                            x       y       z     vdW  Elec       q    Type
REMARK                         _______ _______ _______ _____ _____    ______ ____
ROOT
ATOM      1  C   UNL     1      44.411  10.219  11.401  0.00  0.00    +0.000 A 
ATOM      2  C   UNL     1      45.686  10.439  11.932  0.00  0.00    +0.000 A 
ATOM      3  C   UNL     1      46.525   9.353  12.214  0.00  0.00    +0.000 A 
ATOM      4  C   UNL     1      46.052   8.061  11.918  0.00  0.00    +0.000 A 
ATOM      5  C   UNL     1      44.783   7.811  11.383  0.00  0.00    +0.000 A 
ATOM      6  C   UNL     1      43.982   8.919  11.112  0.00  0.00    +0.000 A 
ENDROOT
BRANCH   5   7
ATOM      7  N   UNL     1      44.353   6.505  11.255  0.00  0.00    +0.000 N 
ATOM      8  C   UNL     1      42.936   6.156  11.387  0.00  0.00    +0.000 C 
ATOM      9  C   UNL     1      42.819   4.746  12.010  0.00  0.00    +0.000 C 
ATOM     10  N   UNL     1      43.548   3.713  11.237  0.00  0.00    +0.000 NA
ATOM     11  C   UNL     1      43.443   2.415  11.901  0.00  0.00    +0.000 C 
ATOM     12  C   UNL     1      44.969   4.116  11.097  0.00  0.00    +0.000 C 
ATOM     13  C   UNL     1      45.144   5.527  10.487  0.00  0.00    +0.000 C 
ENDBRANCH   5   7
BRANCH   1  14
ATOM     14  O   UNL     1      43.496  11.199  11.121  0.00  0.00    +0.000 OA
BRANCH  14  16
ATOM     15  C   UNL     1      41.134  11.491  11.027  0.00  0.00    +0.000 C 
ATOM     16  C   UNL     1      42.328  10.777  10.420  0.00  0.00    +0.000 C 
ENDBRANCH  14  16
ENDBRANCH   1  14
BRANCH   3  17
ATOM     17  C   UNL     1      47.880   9.583  12.869  0.00  0.00    +0.000 C 
BRANCH  17  18
ATOM     18  C   UNL     1      48.677   8.292  13.104  0.00  0.00    +0.000 C 
BRANCH  18  19
ATOM     19  N   UNL     1      49.231   8.180  14.457  0.00  0.00    +0.000 N 
ATOM     20  C   UNL     1      48.802   6.979  15.069  0.00  0.00    +0.000 A 
ATOM     21  C   UNL     1      49.233   6.686  16.354  0.00  0.00    +0.000 A 
ATOM     22  C   UNL     1      48.834   5.487  16.948  0.00  0.00    +0.000 A 
ATOM     23  C   UNL     1      48.000   4.595  16.257  0.00  0.00    +0.000 A 
ATOM     24  C   UNL     1      47.604   4.951  14.969  0.00  0.00    +0.000 A 
ATOM     25  C   UNL     1      46.719   4.136  14.074  0.00  0.00    +0.000 C 
ATOM     26  N   UNL     1      48.006   6.122  14.398  0.00  0.00    +0.000 NA
ATOM     27  H   UNL     1      48.956   8.957  15.050  0.00  0.00    +0.000 HD
BRANCH  23  28
ATOM     28  C   UNL     1      47.609   3.310  16.893  0.00  0.00    +0.000 C 
ATOM     29  N   UNL     1      48.568   2.337  16.980  0.00  0.00    +0.000 N 
ATOM     30  O   UNL     1      46.485   3.101  17.330  0.00  0.00    +0.000 OA
ATOM     31  H   UNL     1      49.544   2.483  16.761  0.00  0.00    +0.000 HD
ATOM     32  H   UNL     1      48.311   1.487  17.464  0.00  0.00    +0.000 HD
ENDBRANCH  23  28
ENDBRANCH  18  19
ENDBRANCH  17  18
ENDBRANCH   3  17
TORSDOF 7
ENDMDL
MODEL 5
REMARK VINA RESULT:    -6.978      3.522      7.963
REMARK INTER + INTRA:         -10.185
REMARK INTER:                  -8.758
REMARK INTRA:                  -1.426
REMARK UNBOUND:                -0.352
REMARK  Name = 
REMARK  10 active torsions:
REMARK  status: ('A' for Active; 'I' for Inactive)
REMARK    1  A    between atoms: C_1  and  C_2
REMARK    2  A    between atoms: C_2  and  O_3
REMARK    3  A    between atoms: O_3  and  C_4
REMARK    4  A    between atoms: C_6  and  C_7
REMARK    5  A    between atoms: C_7  and  C_8
REMARK    6  A    between atoms: C_8  and  N_9
REMARK    7  A    between atoms: C_13  and  C_14
REMARK    8  A    between atoms: C_17  and  C_18
REMARK    9  A    between atoms: C_21  and  N_22
REMARK   10  A    between atoms: N_25  and  C_26
REMARK                            x       y       z     vdW  Elec       q    Type
REMARK                         _______ _______ _______ _____ _____    ______ ____
ROOT
ATOM      1  C   UNL     1      45.277   9.918  11.956  0.00  0.00    +0.000 A 
ATOM      2  C   UNL     1      46.674   9.984  11.998  0.00  0.00    +0.000 A 
ATOM      3  C   UNL     1      47.437   8.828  11.794  0.00  0.00    +0.000 A 
ATOM      4  C   UNL     1      46.754   7.628  11.520  0.00  0.00    +0.000 A 
ATOM      5  C   UNL     1      45.358   7.532  11.468  0.00  0.00    +0.000 A 
ATOM      6  C   UNL     1      44.637   8.708  11.672  0.00  0.00    +0.000 A 
ENDROOT
BRANCH   5   7
ATOM      7  N   UNL     1      44.774   6.289  11.331  0.00  0.00    +0.000 N 
ATOM      8  C   UNL     1      43.320   6.123  11.389  0.00  0.00    +0.000 C 
ATOM      9  C   UNL     1      42.994   4.749  12.020  0.00  0.00    +0.000 C 
ATOM     10  N   UNL     1      43.625   3.620  11.298  0.00  0.00    +0.000 NA
ATOM     11  C   UNL     1      43.323   2.357  11.968  0.00  0.00    +0.000 C 
ATOM     12  C   UNL     1      45.091   3.839  11.231  0.00  0.00    +0.000 C 
ATOM     13  C   UNL     1      45.474   5.207  10.616  0.00  0.00    +0.000 C 
ENDBRANCH   5   7
BRANCH   1  14
ATOM     14  O   UNL     1      44.434  10.974  12.176  0.00  0.00    +0.000 OA
BRANCH  14  16
ATOM     15  C   UNL     1      44.126  12.078  10.088  0.00  0.00    +0.000 C 
ATOM     16  C   UNL     1      43.469  11.222  11.155  0.00  0.00    +0.000 C 
ENDBRANCH  14  16
ENDBRANCH   1  14
BRANCH   3  17
ATOM     17  C   UNL     1      48.953   8.878  11.921  0.00  0.00    +0.000 C 
BRANCH  17  18
ATOM     18  C   UNL     1      49.572   7.571  12.434  0.00  0.00    +0.000 C 
BRANCH  18  19
ATOM     19  N   UNL     1      50.214   7.698  13.746  0.00  0.00    +0.000 N 
ATOM     20  C   UNL     1      49.543   6.903  14.705  0.00  0.00    +0.000 A 
ATOM     21  C   UNL     1      50.012   6.882  16.010  0.00  0.00    +0.000 A 
ATOM     22  C   UNL     1      49.367   6.075  16.951  0.00  0.00    +0.000 A 
ATOM     23  C   UNL     1      48.255   5.303  16.581  0.00  0.00    +0.000 A 
ATOM     24  C   UNL     1      47.837   5.371  15.253  0.00  0.00    +0.000 A 
ATOM     25  C   UNL     1      46.676   4.626  14.668  0.00  0.00    +0.000 C 
ATOM     26  N   UNL     1      48.479   6.158  14.343  0.00  0.00    +0.000 NA
ATOM     27  H   UNL     1      50.224   8.658  14.077  0.00  0.00    +0.000 HD
BRANCH  23  28
ATOM     28  C   UNL     1      47.600   4.427  17.587  0.00  0.00    +0.000 C 
ATOM     29  N   UNL     1      46.701   5.013  18.436  0.00  0.00    +0.000 N 
ATOM     30  O   UNL     1      47.834   3.229  17.676  0.00  0.00    +0.000 OA
ATOM     31  H   UNL     1      46.363   5.960  18.337  0.00  0.00    +0.000 HD
ATOM     32  H   UNL     1      46.217   4.400  19.080  0.00  0.00    +0.000 HD
ENDBRANCH  23  28
ENDBRANCH  18  19
ENDBRANCH  17  18
ENDBRANCH   3  17
TORSDOF 7
ENDMDL
MODEL 6
REMARK VINA RESULT:    -6.756      3.478      8.086
REMARK INTER + INTRA:          -9.872
REMARK INTER:                  -9.066
REMARK INTRA:                  -0.806
REMARK UNBOUND:                -0.352
REMARK  Name = 
REMARK  10 active torsions:
REMARK  status: ('A' for Active; 'I' for Inactive)
REMARK    1  A    between atoms: C_1  and  C_2
REMARK    2  A    between atoms: C_2  and  O_3
REMARK    3  A    between atoms: O_3  and  C_4
REMARK    4  A    between atoms: C_6  and  C_7
REMARK    5  A    between atoms: C_7  and  C_8
REMARK    6  A    between atoms: C_8  and  N_9
REMARK    7  A    between atoms: C_13  and  C_14
REMARK    8  A    between atoms: C_17  and  C_18
REMARK    9  A    between atoms: C_21  and  N_22
REMARK   10  A    between atoms: N_25  and  C_26
REMARK                            x       y       z     vdW  Elec       q    Type
REMARK                         _______ _______ _______ _____ _____    ______ ____
ROOT
ATOM      1  C   UNL     1      44.434   5.006  10.790  0.00  0.00    +0.000 A 
ATOM      2  C   UNL     1      45.421   4.526  11.657  0.00  0.00    +0.000 A 
ATOM      3  C   UNL     1      46.133   5.417  12.470  0.00  0.00    +0.000 A 
ATOM      4  C   UNL     1      45.798   6.782  12.401  0.00  0.00    +0.000 A 
ATOM      5  C   UNL     1      44.814   7.291  11.546  0.00  0.00    +0.000 A 
ATOM      6  C   UNL     1      44.126   6.369  10.758  0.00  0.00    +0.000 A 
ENDROOT
BRANCH   5   7
ATOM      7  N   UNL     1      44.651   8.658  11.446  0.00  0.00    +0.000 N 
ATOM      8  C   UNL     1      43.459   9.236  10.820  0.00  0.00    +0.000 C 
ATOM      9  C   UNL     1      43.850  10.556  10.115  0.00  0.00    +0.000 C 
ATOM     10  N   UNL     1      44.490  11.529  11.031  0.00  0.00    +0.000 NA
ATOM     11  C   UNL     1      44.881  12.733  10.299  0.00  0.00    +0.000 C 
ATOM     12  C   UNL     1      45.671  10.899  11.669  0.00  0.00    +0.000 C 
ATOM     13  C   UNL     1      45.338   9.565  12.381  0.00  0.00    +0.000 C 
ENDBRANCH   5   7
BRANCH   1  14
ATOM     14  O   UNL     1      43.704   4.233   9.927  0.00  0.00    +0.000 OA
BRANCH  14  16
ATOM     15  C   UNL     1      44.981   3.450   8.075  0.00  0.00    +0.000 C 
ATOM     16  C   UNL     1      44.367   3.079   9.412  0.00  0.00    +0.000 C 
ENDBRANCH  14  16
ENDBRANCH   1  14
BRANCH   3  17
ATOM     17  C   UNL     1      47.264   4.911  13.354  0.00  0.00    +0.000 C 
BRANCH  17  18
ATOM     18  C   UNL     1      46.916   4.890  14.849  0.00  0.00    +0.000 C 
BRANCH  18  19
ATOM     19  N   UNL     1      47.251   3.628  15.515  0.00  0.00    +0.000 N 
ATOM     20  C   UNL     1      47.702   3.868  16.835  0.00  0.00    +0.000 A 
ATOM     21  C   UNL     1      48.056   2.791  17.632  0.00  0.00    +0.000 A 
ATOM     22  C   UNL     1      48.473   3.025  18.945  0.00  0.00    +0.000 A 
ATOM     23  C   UNL     1      48.539   4.334  19.446  0.00  0.00    +0.000 A 
ATOM     24  C   UNL     1      48.169   5.370  18.591  0.00  0.00    +0.000 A 
ATOM     25  C   UNL     1      48.172   6.828  18.938  0.00  0.00    +0.000 C 
ATOM     26  N   UNL     1      47.758   5.128  17.313  0.00  0.00    +0.000 NA
ATOM     27  H   UNL     1      47.973   3.113  15.020  0.00  0.00    +0.000 HD
BRANCH  23  28
ATOM     28  C   UNL     1      48.956   4.563  20.854  0.00  0.00    +0.000 C 
ATOM     29  N   UNL     1      50.299   4.625  21.107  0.00  0.00    +0.000 N 
ATOM     30  O   UNL     1      48.154   4.695  21.770  0.00  0.00    +0.000 OA
ATOM     31  H   UNL     1      51.010   4.655  20.390  0.00  0.00    +0.000 HD
ATOM     32  H   UNL     1      50.574   4.838  22.058  0.00  0.00    +0.000 HD
ENDBRANCH  23  28
ENDBRANCH  18  19
ENDBRANCH  17  18
ENDBRANCH   3  17
TORSDOF 7
ENDMDL
MODEL 7
REMARK VINA RESULT:    -6.568      3.775      6.926
REMARK INTER + INTRA:          -9.607
REMARK INTER:                  -8.411
REMARK INTRA:                  -1.196
REMARK UNBOUND:                -0.352
REMARK  Name = 
REMARK  10 active torsions:
REMARK  status: ('A' for Active; 'I' for Inactive)
REMARK    1  A    between atoms: C_1  and  C_2
REMARK    2  A    between atoms: C_2  and  O_3
REMARK    3  A    between atoms: O_3  and  C_4
REMARK    4  A    between atoms: C_6  and  C_7
REMARK    5  A    between atoms: C_7  and  C_8
REMARK    6  A    between atoms: C_8  and  N_9
REMARK    7  A    between atoms: C_13  and  C_14
REMARK    8  A    between atoms: C_17  and  C_18
REMARK    9  A    between atoms: C_21  and  N_22
REMARK   10  A    between atoms: N_25  and  C_26
REMARK                            x       y       z     vdW  Elec       q    Type
REMARK                         _______ _______ _______ _____ _____    ______ ____
ROOT
ATOM      1  C   UNL     1      48.218   9.137  18.213  0.00  0.00    +0.000 A 
ATOM      2  C   UNL     1      48.186   9.633  16.906  0.00  0.00    +0.000 A 
ATOM      3  C   UNL     1      48.455   8.782  15.827  0.00  0.00    +0.000 A 
ATOM      4  C   UNL     1      48.722   7.429  16.106  0.00  0.00    +0.000 A 
ATOM      5  C   UNL     1      48.757   6.904  17.403  0.00  0.00    +0.000 A 
ATOM      6  C   UNL     1      48.479   7.783  18.448  0.00  0.00    +0.000 A 
ENDROOT
BRANCH   5   7
ATOM      7  N   UNL     1      49.164   5.597  17.588  0.00  0.00    +0.000 N 
ATOM      8  C   UNL     1      50.393   5.282  18.320  0.00  0.00    +0.000 C 
ATOM      9  C   UNL     1      51.026   4.006  17.717  0.00  0.00    +0.000 C 
ATOM     10  N   UNL     1      50.100   2.850  17.718  0.00  0.00    +0.000 NA
ATOM     11  C   UNL     1      50.735   1.691  17.092  0.00  0.00    +0.000 C 
ATOM     12  C   UNL     1      48.856   3.216  16.998  0.00  0.00    +0.000 C 
ATOM     13  C   UNL     1      48.186   4.496  17.554  0.00  0.00    +0.000 C 
ENDBRANCH   5   7
BRANCH   1  14
ATOM     14  O   UNL     1      48.008   9.884  19.342  0.00  0.00    +0.000 OA
BRANCH  14  16
ATOM     15  C   UNL     1      46.904   9.505  21.418  0.00  0.00    +0.000 C 
ATOM     16  C   UNL     1      46.716   9.765  19.934  0.00  0.00    +0.000 C 
ENDBRANCH  14  16
ENDBRANCH   1  14
BRANCH   3  17
ATOM     17  C   UNL     1      48.503   9.335  14.409  0.00  0.00    +0.000 C 
BRANCH  17  18
ATOM     18  C   UNL     1      48.402   8.255  13.322  0.00  0.00    +0.000 C 
BRANCH  18  19
ATOM     19  N   UNL     1      47.216   8.385  12.470  0.00  0.00    +0.000 N 
ATOM     20  C   UNL     1      46.534   7.150  12.379  0.00  0.00    +0.000 A 
ATOM     21  C   UNL     1      45.374   7.075  11.622  0.00  0.00    +0.000 A 
ATOM     22  C   UNL     1      44.683   5.862  11.556  0.00  0.00    +0.000 A 
ATOM     23  C   UNL     1      45.161   4.734  12.239  0.00  0.00    +0.000 A 
ATOM     24  C   UNL     1      46.332   4.879  12.981  0.00  0.00    +0.000 A 
ATOM     25  C   UNL     1      46.998   3.797  13.776  0.00  0.00    +0.000 C 
ATOM     26  N   UNL     1      46.994   6.070  13.043  0.00  0.00    +0.000 NA
ATOM     27  H   UNL     1      47.451   8.691  11.530  0.00  0.00    +0.000 HD
BRANCH  23  28
ATOM     28  C   UNL     1      44.398   3.460  12.182  0.00  0.00    +0.000 C 
ATOM     29  N   UNL     1      44.565   2.679  11.072  0.00  0.00    +0.000 N 
ATOM     30  O   UNL     1      43.643   3.099  13.076  0.00  0.00    +0.000 OA
ATOM     31  H   UNL     1      45.264   2.848  10.361  0.00  0.00    +0.000 HD
ATOM     32  H   UNL     1      44.086   1.787  11.066  0.00  0.00    +0.000 HD
ENDBRANCH  23  28
ENDBRANCH  18  19
ENDBRANCH  17  18
ENDBRANCH   3  17
TORSDOF 7
ENDMDL
MODEL 8
REMARK VINA RESULT:    -6.378      3.655      8.203
REMARK INTER + INTRA:          -9.340
REMARK INTER:                  -8.474
REMARK INTRA:                  -0.866
REMARK UNBOUND:                -0.352
REMARK  Name = 
REMARK  10 active torsions:
REMARK  status: ('A' for Active; 'I' for Inactive)
REMARK    1  A    between atoms: C_1  and  C_2
REMARK    2  A    between atoms: C_2  and  O_3
REMARK    3  A    between atoms: O_3  and  C_4
REMARK    4  A    between atoms: C_6  and  C_7
REMARK    5  A    between atoms: C_7  and  C_8
REMARK    6  A    between atoms: C_8  and  N_9
REMARK    7  A    between atoms: C_13  and  C_14
REMARK    8  A    between atoms: C_17  and  C_18
REMARK    9  A    between atoms: C_21  and  N_22
REMARK   10  A    between atoms: N_25  and  C_26
REMARK                            x       y       z     vdW  Elec       q    Type
REMARK                         _______ _______ _______ _____ _____    ______ ____
ROOT
ATOM      1  C   UNL     1      50.032   7.871  13.036  0.00  0.00    +0.000 A 
ATOM      2  C   UNL     1      49.855   8.453  14.296  0.00  0.00    +0.000 A 
ATOM      3  C   UNL     1      48.676   8.221  15.015  0.00  0.00    +0.000 A 
ATOM      4  C   UNL     1      47.711   7.371  14.442  0.00  0.00    +0.000 A 
ATOM      5  C   UNL     1      47.863   6.772  13.186  0.00  0.00    +0.000 A 
ATOM      6  C   UNL     1      49.053   7.025  12.506  0.00  0.00    +0.000 A 
ENDROOT
BRANCH   5   7
ATOM      7  N   UNL     1      46.806   6.067  12.646  0.00  0.00    +0.000 N 
ATOM      8  C   UNL     1      46.081   5.065  13.432  0.00  0.00    +0.000 C 
ATOM      9  C   UNL     1      45.602   3.936  12.491  0.00  0.00    +0.000 C 
ATOM     10  N   UNL     1      44.767   4.435  11.373  0.00  0.00    +0.000 NA
ATOM     11  C   UNL     1      44.386   3.332  10.492  0.00  0.00    +0.000 C 
ATOM     12  C   UNL     1      45.520   5.469  10.621  0.00  0.00    +0.000 C 
ATOM     13  C   UNL     1      46.034   6.620  11.519  0.00  0.00    +0.000 C 
ENDBRANCH   5   7
BRANCH   1  14
ATOM     14  O   UNL     1      51.125   8.056  12.232  0.00  0.00    +0.000 OA
BRANCH  14  16
ATOM     15  C   UNL     1      52.350   7.407  10.296  0.00  0.00    +0.000 C 
ATOM     16  C   UNL     1      50.969   7.661  10.870  0.00  0.00    +0.000 C 
ENDBRANCH  14  16
ENDBRANCH   1  14
BRANCH   3  17
ATOM     17  C   UNL     1      48.442   8.918  16.348  0.00  0.00    +0.000 C 
BRANCH  17  18
ATOM     18  C   UNL     1      48.801   8.056  17.566  0.00  0.00    +0.000 C 
BRANCH  18  19
ATOM     19  N   UNL     1      47.982   6.846  17.693  0.00  0.00    +0.000 N 
ATOM     20  C   UNL     1      48.794   5.689  17.628  0.00  0.00    +0.000 A 
ATOM     21  C   UNL     1      48.199   4.441  17.742  0.00  0.00    +0.000 A 
ATOM     22  C   UNL     1      49.004   3.300  17.707  0.00  0.00    +0.000 A 
ATOM     23  C   UNL     1      50.394   3.415  17.550  0.00  0.00    +0.000 A 
ATOM     24  C   UNL     1      50.925   4.699  17.441  0.00  0.00    +0.000 A 
ATOM     25  C   UNL     1      52.377   5.027  17.269  0.00  0.00    +0.000 C 
ATOM     26  N   UNL     1      50.129   5.806  17.483  0.00  0.00    +0.000 NA
ATOM     27  H   UNL     1      47.276   6.783  16.966  0.00  0.00    +0.000 HD
BRANCH  23  28
ATOM     28  C   UNL     1      51.237   2.192  17.545  0.00  0.00    +0.000 C 
ATOM     29  N   UNL     1      52.224   2.108  18.489  0.00  0.00    +0.000 N 
ATOM     30  O   UNL     1      51.080   1.281  16.742  0.00  0.00    +0.000 OA
ATOM     31  H   UNL     1      52.328   2.755  19.259  0.00  0.00    +0.000 HD
ATOM     32  H   UNL     1      52.757   1.248  18.516  0.00  0.00    +0.000 HD
ENDBRANCH  23  28
ENDBRANCH  18  19
ENDBRANCH  17  18
ENDBRANCH   3  17
TORSDOF 7
ENDMDL
MODEL 9
REMARK VINA RESULT:    -6.305      2.754      7.228
REMARK INTER + INTRA:          -9.237
REMARK INTER:                  -8.043
REMARK INTRA:                  -1.195
REMARK UNBOUND:                -0.352
REMARK  Name = 
REMARK  10 active torsions:
REMARK  status: ('A' for Active; 'I' for Inactive)
REMARK    1  A    between atoms: C_1  and  C_2
REMARK    2  A    between atoms: C_2  and  O_3
REMARK    3  A    between atoms: O_3  and  C_4
REMARK    4  A    between atoms: C_6  and  C_7
REMARK    5  A    between atoms: C_7  and  C_8
REMARK    6  A    between atoms: C_8  and  N_9
REMARK    7  A    between atoms: C_13  and  C_14
REMARK    8  A    between atoms: C_17  and  C_18
REMARK    9  A    between atoms: C_21  and  N_22
REMARK   10  A    between atoms: N_25  and  C_26
REMARK                            x       y       z     vdW  Elec       q    Type
REMARK                         _______ _______ _______ _____ _____    ______ ____
ROOT
ATOM      1  C   UNL     1      47.895   5.428  15.349  0.00  0.00    +0.000 A 
ATOM      2  C   UNL     1      48.573   6.629  15.117  0.00  0.00    +0.000 A 
ATOM      3  C   UNL     1      48.357   7.337  13.927  0.00  0.00    +0.000 A 
ATOM      4  C   UNL     1      47.427   6.815  13.010  0.00  0.00    +0.000 A 
ATOM      5  C   UNL     1      46.731   5.618  13.217  0.00  0.00    +0.000 A 
ATOM      6  C   UNL     1      46.971   4.947  14.415  0.00  0.00    +0.000 A 
ENDROOT
BRANCH   5   7
ATOM      7  N   UNL     1      45.944   5.113  12.201  0.00  0.00    +0.000 N 
ATOM      8  C   UNL     1      44.975   4.043  12.451  0.00  0.00    +0.000 C 
ATOM      9  C   UNL     1      44.870   3.152  11.192  0.00  0.00    +0.000 C 
ATOM     10  N   UNL     1      44.508   3.918   9.976  0.00  0.00    +0.000 NA
ATOM     11  C   UNL     1      44.473   3.033   8.812  0.00  0.00    +0.000 C 
ATOM     12  C   UNL     1      45.491   5.010   9.772  0.00  0.00    +0.000 C 
ATOM     13  C   UNL     1      45.645   5.927  11.010  0.00  0.00    +0.000 C 
ENDBRANCH   5   7
BRANCH   1  14
ATOM     14  O   UNL     1      48.054   4.637  16.455  0.00  0.00    +0.000 OA
BRANCH  14  16
ATOM     15  C   UNL     1      48.981   2.490  16.907  0.00  0.00    +0.000 C 
ATOM     16  C   UNL     1      47.832   3.242  16.260  0.00  0.00    +0.000 C 
ENDBRANCH  14  16
ENDBRANCH   1  14
BRANCH   3  17
ATOM     17  C   UNL     1      49.153   8.600  13.633  0.00  0.00    +0.000 C 
BRANCH  17  18
ATOM     18  C   UNL     1      48.831   9.229  12.270  0.00  0.00    +0.000 C 
BRANCH  18  19
ATOM     19  N   UNL     1      48.699  10.689  12.312  0.00  0.00    +0.000 N 
ATOM     20  C   UNL     1      47.370  11.075  12.014  0.00  0.00    +0.000 A 
ATOM     21  C   UNL     1      47.044  12.423  12.015  0.00  0.00    +0.000 A 
ATOM     22  C   UNL     1      45.726  12.802  11.751  0.00  0.00    +0.000 A 
ATOM     23  C   UNL     1      44.748  11.833  11.479  0.00  0.00    +0.000 A 
ATOM     24  C   UNL     1      45.144  10.497  11.494  0.00  0.00    +0.000 A 
ATOM     25  C   UNL     1      44.252   9.322  11.229  0.00  0.00    +0.000 C 
ATOM     26  N   UNL     1      46.433  10.139  11.760  0.00  0.00    +0.000 NA
ATOM     27  H   UNL     1      49.320  11.149  11.653  0.00  0.00    +0.000 HD
BRANCH  23  28
ATOM     28  C   UNL     1      43.345  12.253  11.229  0.00  0.00    +0.000 C 
ATOM     29  N   UNL     1      43.009  12.581   9.944  0.00  0.00    +0.000 N 
ATOM     30  O   UNL     1      42.502  12.313  12.115  0.00  0.00    +0.000 OA
ATOM     31  H   UNL     1      43.610  12.432   9.145  0.00  0.00    +0.000 HD
ATOM     32  H   UNL     1      42.038  12.811   9.771  0.00  0.00    +0.000 HD
ENDBRANCH  23  28
ENDBRANCH  18  19
ENDBRANCH  17  18
ENDBRANCH   3  17
TORSDOF 7
ENDMDL
