MODEL 1
REMARK VINA RESULT:    -6.508      0.000      0.000
REMARK INTER + INTRA:         -10.417
REMARK INTER:                  -9.552
REMARK INTRA:                  -0.865
REMARK UNBOUND:                -0.865
REMARK  Name = 
REMARK  12 active torsions:
REMARK  status: ('A' for Active; 'I' for Inactive)
REMARK    1  A    between atoms: C_1  and  S_2
REMARK    2  A    between atoms: S_2  and  C_3
REMARK    3  A    between atoms: C_5  and  C_6
REMARK    4  A    between atoms: C_11  and  N_12
REMARK    5  A    between atoms: N_12  and  C_13
REMARK    6  A    between atoms: C_13  and  C_14
REMARK    7  A    between atoms: C_14  and  C_15
REMARK    8  A    between atoms: C_14  and  C_16
REMARK    9  A    between atoms: C_18  and  C_19
REMARK   10  A    between atoms: C_20  and  O_21
REMARK   11  A    between atoms: O_21  and  C_22
REMARK   12  A    between atoms: C_26  and  C_27
REMARK                            x       y       z     vdW  Elec       q    Type
REMARK                         _______ _______ _______ _____ _____    ______ ____
ROOT
ATOM      1  C   UNL     1      47.391   3.835  15.380  0.00  0.00    +0.000 C 
ENDROOT
BRANCH   1   2
ATOM      2  N   UNL     1      46.638   4.978  14.845  0.00  0.00    +0.000 N 
ATOM      3  H   UNL     1      46.986   5.871  15.198  0.00  0.00    +0.000 HD
BRANCH   2   9
ATOM      4  C   UNL     1      46.505   6.116  12.590  0.00  0.00    +0.000 A 
ATOM      5  C   UNL     1      46.130   5.989  11.235  0.00  0.00    +0.000 A 
ATOM      6  C   UNL     1      45.507   4.838  10.741  0.00  0.00    +0.000 A 
ATOM      7  C   UNL     1      45.237   3.800  11.626  0.00  0.00    +0.000 A 
ATOM      8  C   UNL     1      45.604   3.917  12.976  0.00  0.00    +0.000 A 
ATOM      9  C   UNL     1      46.234   5.071  13.502  0.00  0.00    +0.000 A 
BRANCH   6  10
ATOM     10  C   UNL     1      45.194   4.803   9.282  0.00  0.00    +0.000 C 
ATOM     11  N   UNL     1      43.954   4.381   8.883  0.00  0.00    +0.000 N 
ATOM     12  O   UNL     1      46.019   5.131   8.442  0.00  0.00    +0.000 OA
ATOM     13  H   UNL     1      43.219   4.062   9.493  0.00  0.00    +0.000 HD
ATOM     14  H   UNL     1      43.792   4.351   7.889  0.00  0.00    +0.000 HD
ENDBRANCH   6  10
BRANCH   4  16
ATOM     15  C   UNL     1      49.011   7.161  12.901  0.00  0.00    +0.000 C 
ATOM     16  S   UNL     1      47.285   7.693  12.966  0.00  0.00    +0.000 S 
ENDBRANCH   4  16
ENDBRANCH   2   9
ENDBRANCH   1   2
BRANCH   1  17
ATOM     17  C   UNL     1      47.677   3.952  16.900  0.00  0.00    +0.000 C 
ATOM     18  C   UNL     1      46.908   2.842  17.629  0.00  0.00    +0.000 C 
BRANCH  17  19
ATOM     19  C   UNL     1      49.153   3.948  17.284  0.00  0.00    +0.000 A 
ATOM     20  C   UNL     1      49.850   2.761  17.514  0.00  0.00    +0.000 A 
ATOM     21  C   UNL     1      51.254   2.695  17.540  0.00  0.00    +0.000 A 
ATOM     22  C   UNL     1      51.805   1.301  17.478  0.00  0.00    +0.000 C 
ATOM     23  C   UNL     1      51.978   3.895  17.542  0.00  0.00    +0.000 A 
ATOM     24  C   UNL     1      51.279   5.125  17.454  0.00  0.00    +0.000 A 
ATOM     25  C   UNL     1      51.979   6.462  17.466  0.00  0.00    +0.000 C 
ATOM     26  C   UNL     1      49.883   5.135  17.289  0.00  0.00    +0.000 A 
BRANCH  23  27
ATOM     27  O   UNL     1      53.339   4.060  17.579  0.00  0.00    +0.000 OA
BRANCH  27  28
ATOM     28  C   UNL     1      54.123   3.999  18.782  0.00  0.00    +0.000 C 
ATOM     29  C   UNL     1      54.868   2.660  18.968  0.00  0.00    +0.000 C 
ATOM     30  N   UNL     1      54.144   2.392  20.211  0.00  0.00    +0.000 NA
ATOM     31  C   UNL     1      53.391   3.640  20.090  0.00  0.00    +0.000 C 
ATOM     32  H   UNL     1      54.733   2.339  21.040  0.00  0.00    +0.000 HD
ENDBRANCH  27  28
ENDBRANCH  23  27
ENDBRANCH  17  19
ENDBRANCH   1  17
TORSDOF 8
ENDMDL
MODEL 2
REMARK VINA RESULT:    -6.374      3.263      8.638
REMARK INTER + INTRA:         -10.221
REMARK INTER:                  -8.717
REMARK INTRA:                  -1.504
REMARK UNBOUND:                -0.865
REMARK  Name = 
REMARK  12 active torsions:
REMARK  status: ('A' for Active; 'I' for Inactive)
REMARK    1  A    between atoms: C_1  and  S_2
REMARK    2  A    between atoms: S_2  and  C_3
REMARK    3  A    between atoms: C_5  and  C_6
REMARK    4  A    between atoms: C_11  and  N_12
REMARK    5  A    between atoms: N_12  and  C_13
REMARK    6  A    between atoms: C_13  and  C_14
REMARK    7  A    between atoms: C_14  and  C_15
REMARK    8  A    between atoms: C_14  and  C_16
REMARK    9  A    between atoms: C_18  and  C_19
REMARK   10  A    between atoms: C_20  and  O_21
REMARK   11  A    between atoms: O_21  and  C_22
REMARK   12  A    between atoms: C_26  and  C_27
REMARK                            x       y       z     vdW  Elec       q    Type
REMARK                         _______ _______ _______ _____ _____    ______ ____
ROOT
ATOM      1  C   UNL     1      50.243   7.713  13.772  0.00  0.00    +0.000 C 
ENDROOT
BRANCH   1   2
ATOM      2  N   UNL     1      50.436   8.206  15.142  0.00  0.00    +0.000 N 
ATOM      3  H   UNL     1      50.290   9.215  15.217  0.00  0.00    +0.000 HD
BRANCH   2   9
ATOM      4  C   UNL     1      48.933   7.937  17.160  0.00  0.00    +0.000 A 
ATOM      5  C   UNL     1      48.489   7.070  18.181  0.00  0.00    +0.000 A 
ATOM      6  C   UNL     1      49.015   5.785  18.346  0.00  0.00    +0.000 A 
ATOM      7  C   UNL     1      50.021   5.365  17.482  0.00  0.00    +0.000 A 
ATOM      8  C   UNL     1      50.473   6.221  16.464  0.00  0.00    +0.000 A 
ATOM      9  C   UNL     1      49.958   7.527  16.276  0.00  0.00    +0.000 A 
BRANCH   6  10
ATOM     10  C   UNL     1      48.438   4.943  19.435  0.00  0.00    +0.000 C 
ATOM     11  N   UNL     1      48.563   3.583  19.356  0.00  0.00    +0.000 N 
ATOM     12  O   UNL     1      47.851   5.441  20.385  0.00  0.00    +0.000 OA
ATOM     13  H   UNL     1      49.000   3.077  18.602  0.00  0.00    +0.000 HD
ATOM     14  H   UNL     1      48.140   3.051  20.101  0.00  0.00    +0.000 HD
ENDBRANCH   6  10
BRANCH   4  16
ATOM     15  C   UNL     1      47.530   9.528  18.883  0.00  0.00    +0.000 C 
ATOM     16  S   UNL     1      48.097   9.530  17.167  0.00  0.00    +0.000 S 
ENDBRANCH   4  16
ENDBRANCH   2   9
ENDBRANCH   1   2
BRANCH   1  17
ATOM     17  C   UNL     1      48.902   8.175  13.142  0.00  0.00    +0.000 C 
ATOM     18  C   UNL     1      49.190   8.757  11.752  0.00  0.00    +0.000 C 
BRANCH  17  19
ATOM     19  C   UNL     1      47.814   7.108  13.082  0.00  0.00    +0.000 A 
ATOM     20  C   UNL     1      46.975   6.973  11.973  0.00  0.00    +0.000 A 
ATOM     21  C   UNL     1      46.203   5.823  11.739  0.00  0.00    +0.000 A 
ATOM     22  C   UNL     1      45.630   5.739  10.354  0.00  0.00    +0.000 C 
ATOM     23  C   UNL     1      46.110   4.863  12.756  0.00  0.00    +0.000 A 
ATOM     24  C   UNL     1      46.843   5.051  13.954  0.00  0.00    +0.000 A 
ATOM     25  C   UNL     1      46.787   4.076  15.104  0.00  0.00    +0.000 C 
ATOM     26  C   UNL     1      47.711   6.148  14.087  0.00  0.00    +0.000 A 
BRANCH  23  27
ATOM     27  O   UNL     1      45.406   3.686  12.743  0.00  0.00    +0.000 OA
BRANCH  27  28
ATOM     28  C   UNL     1      43.980   3.601  12.907  0.00  0.00    +0.000 C 
ATOM     29  C   UNL     1      43.211   3.458  11.576  0.00  0.00    +0.000 C 
ATOM     30  N   UNL     1      42.502   4.717  11.813  0.00  0.00    +0.000 NA
ATOM     31  C   UNL     1      43.204   4.922  13.079  0.00  0.00    +0.000 C 
ATOM     32  H   UNL     1      41.493   4.620  11.908  0.00  0.00    +0.000 HD
ENDBRANCH  27  28
ENDBRANCH  23  27
ENDBRANCH  17  19
ENDBRANCH   1  17
TORSDOF 8
ENDMDL
MODEL 3
REMARK VINA RESULT:    -6.271      2.188      8.861
REMARK INTER + INTRA:         -10.069
REMARK INTER:                  -8.984
REMARK INTRA:                  -1.085
REMARK UNBOUND:                -0.865
REMARK  Name = 
REMARK  12 active torsions:
REMARK  status: ('A' for Active; 'I' for Inactive)
REMARK    1  A    between atoms: C_1  and  S_2
REMARK    2  A    between atoms: S_2  and  C_3
REMARK    3  A    between atoms: C_5  and  C_6
REMARK    4  A    between atoms: C_11  and  N_12
REMARK    5  A    between atoms: N_12  and  C_13
REMARK    6  A    between atoms: C_13  and  C_14
REMARK    7  A    between atoms: C_14  and  C_15
REMARK    8  A    between atoms: C_14  and  C_16
REMARK    9  A    between atoms: C_18  and  C_19
REMARK   10  A    between atoms: C_20  and  O_21
REMARK   11  A    between atoms: O_21  and  C_22
REMARK   12  A    between atoms: C_26  and  C_27
REMARK                            x       y       z     vdW  Elec       q    Type
REMARK                         _______ _______ _______ _____ _____    ______ ____
ROOT
ATOM      1  C   UNL     1      49.872   7.728  15.551  0.00  0.00    +0.000 C 
ENDROOT
BRANCH   1   2
ATOM      2  N   UNL     1      49.700   7.151  16.891  0.00  0.00    +0.000 N 
ATOM      3  H   UNL     1      48.789   7.375  17.296  0.00  0.00    +0.000 HD
BRANCH   2   9
ATOM      4  C   UNL     1      49.304   4.702  17.383  0.00  0.00    +0.000 A 
ATOM      5  C   UNL     1      49.898   3.439  17.596  0.00  0.00    +0.000 A 
ATOM      6  C   UNL     1      51.286   3.269  17.637  0.00  0.00    +0.000 A 
ATOM      7  C   UNL     1      52.095   4.389  17.480  0.00  0.00    +0.000 A 
ATOM      8  C   UNL     1      51.514   5.650  17.270  0.00  0.00    +0.000 A 
ATOM      9  C   UNL     1      50.113   5.850  17.226  0.00  0.00    +0.000 A 
BRANCH   6  10
ATOM     10  C   UNL     1      51.800   1.880  17.828  0.00  0.00    +0.000 C 
ATOM     11  N   UNL     1      52.914   1.689  18.600  0.00  0.00    +0.000 N 
ATOM     12  O   UNL     1      51.255   0.919  17.306  0.00  0.00    +0.000 OA
ATOM     13  H   UNL     1      53.450   2.416  19.045  0.00  0.00    +0.000 HD
ATOM     14  H   UNL     1      53.240   0.739  18.684  0.00  0.00    +0.000 HD
ENDBRANCH   6  10
BRANCH   4  16
ATOM     15  C   UNL     1      47.290   2.874  17.647  0.00  0.00    +0.000 C 
ATOM     16  S   UNL     1      47.506   4.647  17.377  0.00  0.00    +0.000 S 
ENDBRANCH   4  16
ENDBRANCH   2   9
ENDBRANCH   1   2
BRANCH   1  17
ATOM     17  C   UNL     1      48.590   8.418  15.016  0.00  0.00    +0.000 C 
ATOM     18  C   UNL     1      48.982   9.769  14.402  0.00  0.00    +0.000 C 
BRANCH  17  19
ATOM     19  C   UNL     1      47.764   7.585  14.043  0.00  0.00    +0.000 A 
ATOM     20  C   UNL     1      47.852   6.191  14.008  0.00  0.00    +0.000 A 
ATOM     21  C   UNL     1      46.890   5.383  13.378  0.00  0.00    +0.000 A 
ATOM     22  C   UNL     1      46.987   3.927  13.725  0.00  0.00    +0.000 C 
ATOM     23  C   UNL     1      45.921   6.003  12.577  0.00  0.00    +0.000 A 
ATOM     24  C   UNL     1      45.902   7.416  12.481  0.00  0.00    +0.000 A 
ATOM     25  C   UNL     1      44.904   8.162  11.629  0.00  0.00    +0.000 C 
ATOM     26  C   UNL     1      46.797   8.189  13.241  0.00  0.00    +0.000 A 
BRANCH  23  27
ATOM     27  O   UNL     1      44.908   5.409  11.866  0.00  0.00    +0.000 OA
BRANCH  27  28
ATOM     28  C   UNL     1      45.119   4.553  10.730  0.00  0.00    +0.000 C 
ATOM     29  C   UNL     1      43.962   4.582   9.710  0.00  0.00    +0.000 C 
ATOM     30  N   UNL     1      43.708   3.154   9.908  0.00  0.00    +0.000 NA
ATOM     31  C   UNL     1      44.782   3.058  10.895  0.00  0.00    +0.000 C 
ATOM     32  H   UNL     1      43.851   2.582   9.078  0.00  0.00    +0.000 HD
ENDBRANCH  27  28
ENDBRANCH  23  27
ENDBRANCH  17  19
ENDBRANCH   1  17
TORSDOF 8
ENDMDL
MODEL 4
REMARK VINA RESULT:    -6.218      3.522      4.881
REMARK INTER + INTRA:          -9.992
REMARK INTER:                  -9.282
REMARK INTRA:                  -0.709
REMARK UNBOUND:                -0.865
REMARK  Name = 
REMARK  12 active torsions:
REMARK  status: ('A' for Active; 'I' for Inactive)
REMARK    1  A    between atoms: C_1  and  S_2
REMARK    2  A    between atoms: S_2  and  C_3
REMARK    3  A    between atoms: C_5  and  C_6
REMARK    4  A    between atoms: C_11  and  N_12
REMARK    5  A    between atoms: N_12  and  C_13
REMARK    6  A    between atoms: C_13  and  C_14
REMARK    7  A    between atoms: C_14  and  C_15
REMARK    8  A    between atoms: C_14  and  C_16
REMARK    9  A    between atoms: C_18  and  C_19
REMARK   10  A    between atoms: C_20  and  O_21
REMARK   11  A    between atoms: O_21  and  C_22
REMARK   12  A    between atoms: C_26  and  C_27
REMARK                            x       y       z     vdW  Elec       q    Type
REMARK                         _______ _______ _______ _____ _____    ______ ____
ROOT
ATOM      1  C   UNL     1      45.545   7.018  12.035  0.00  0.00    +0.000 C 
ENDROOT
BRANCH   1   2
ATOM      2  N   UNL     1      44.850   6.448  10.873  0.00  0.00    +0.000 N 
ATOM      3  H   UNL     1      44.614   7.155  10.176  0.00  0.00    +0.000 HD
BRANCH   2   9
ATOM      4  C   UNL     1      44.917   3.924  10.714  0.00  0.00    +0.000 A 
ATOM      5  C   UNL     1      45.266   2.809   9.921  0.00  0.00    +0.000 A 
ATOM      6  C   UNL     1      45.899   2.949   8.681  0.00  0.00    +0.000 A 
ATOM      7  C   UNL     1      46.204   4.230   8.234  0.00  0.00    +0.000 A 
ATOM      8  C   UNL     1      45.864   5.345   9.017  0.00  0.00    +0.000 A 
ATOM      9  C   UNL     1      45.225   5.232  10.276  0.00  0.00    +0.000 A 
BRANCH   6  10
ATOM     10  C   UNL     1      46.182   1.701   7.913  0.00  0.00    +0.000 C 
ATOM     11  N   UNL     1      46.773   1.803   6.682  0.00  0.00    +0.000 N 
ATOM     12  O   UNL     1      45.892   0.599   8.354  0.00  0.00    +0.000 OA
ATOM     13  H   UNL     1      47.021   2.662   6.221  0.00  0.00    +0.000 HD
ATOM     14  H   UNL     1      46.926   0.937   6.189  0.00  0.00    +0.000 HD
ENDBRANCH   6  10
BRANCH   4  16
ATOM     15  C   UNL     1      42.742   4.642  12.204  0.00  0.00    +0.000 C 
ATOM     16  S   UNL     1      44.117   3.471  12.260  0.00  0.00    +0.000 S 
ENDBRANCH   4  16
ENDBRANCH   2   9
ENDBRANCH   1   2
BRANCH   1  17
ATOM     17  C   UNL     1      46.982   6.462  12.217  0.00  0.00    +0.000 C 
ATOM     18  C   UNL     1      47.950   7.334  11.406  0.00  0.00    +0.000 C 
BRANCH  17  19
ATOM     19  C   UNL     1      47.443   6.320  13.664  0.00  0.00    +0.000 A 
ATOM     20  C   UNL     1      47.080   5.223  14.448  0.00  0.00    +0.000 A 
ATOM     21  C   UNL     1      47.738   4.893  15.645  0.00  0.00    +0.000 A 
ATOM     22  C   UNL     1      47.422   3.520  16.162  0.00  0.00    +0.000 C 
ATOM     23  C   UNL     1      48.652   5.811  16.179  0.00  0.00    +0.000 A 
ATOM     24  C   UNL     1      48.930   7.005  15.468  0.00  0.00    +0.000 A 
ATOM     25  C   UNL     1      49.886   8.054  15.980  0.00  0.00    +0.000 C 
ATOM     26  C   UNL     1      48.352   7.227  14.207  0.00  0.00    +0.000 A 
BRANCH  23  27
ATOM     27  O   UNL     1      49.387   5.698  17.333  0.00  0.00    +0.000 OA
BRANCH  27  28
ATOM     28  C   UNL     1      48.912   6.097  18.630  0.00  0.00    +0.000 C 
ATOM     29  C   UNL     1      48.940   4.961  19.675  0.00  0.00    +0.000 C 
ATOM     30  N   UNL     1      47.488   5.039  19.847  0.00  0.00    +0.000 NA
ATOM     31  C   UNL     1      47.387   6.110  18.855  0.00  0.00    +0.000 C 
ATOM     32  H   UNL     1      47.189   5.308  20.782  0.00  0.00    +0.000 HD
ENDBRANCH  27  28
ENDBRANCH  23  27
ENDBRANCH  17  19
ENDBRANCH   1  17
TORSDOF 8
ENDMDL
MODEL 5
REMARK VINA RESULT:    -6.212      3.527      8.782
REMARK INTER + INTRA:          -9.982
REMARK INTER:                  -8.621
REMARK INTRA:                  -1.361
REMARK UNBOUND:                -0.865
REMARK  Name = 
REMARK  12 active torsions:
REMARK  status: ('A' for Active; 'I' for Inactive)
REMARK    1  A    between atoms: C_1  and  S_2
REMARK    2  A    between atoms: S_2  and  C_3
REMARK    3  A    between atoms: C_5  and  C_6
REMARK    4  A    between atoms: C_11  and  N_12
REMARK    5  A    between atoms: N_12  and  C_13
REMARK    6  A    between atoms: C_13  and  C_14
REMARK    7  A    between atoms: C_14  and  C_15
REMARK    8  A    between atoms: C_14  and  C_16
REMARK    9  A    between atoms: C_18  and  C_19
REMARK   10  A    between atoms: C_20  and  O_21
REMARK   11  A    between atoms: O_21  and  C_22
REMARK   12  A    between atoms: C_26  and  C_27
REMARK                            x       y       z     vdW  Elec       q    Type
REMARK                         _______ _______ _______ _____ _____    ______ ____
ROOT
ATOM      1  C   UNL     1      49.922   7.836  14.060  0.00  0.00    +0.000 C 
ENDROOT
BRANCH   1   2
ATOM      2  N   UNL     1      49.128   8.257  15.222  0.00  0.00    +0.000 N 
ATOM      3  H   UNL     1      48.223   8.646  14.954  0.00  0.00    +0.000 HD
BRANCH   2   9
ATOM      4  C   UNL     1      48.697   7.963  17.697  0.00  0.00    +0.000 A 
ATOM      5  C   UNL     1      48.531   7.044  18.756  0.00  0.00    +0.000 A 
ATOM      6  C   UNL     1      48.674   5.665  18.572  0.00  0.00    +0.000 A 
ATOM      7  C   UNL     1      49.009   5.197  17.306  0.00  0.00    +0.000 A 
ATOM      8  C   UNL     1      49.179   6.103  16.246  0.00  0.00    +0.000 A 
ATOM      9  C   UNL     1      49.041   7.504  16.406  0.00  0.00    +0.000 A 
BRANCH   6  10
ATOM     10  C   UNL     1      48.435   4.788  19.756  0.00  0.00    +0.000 C 
ATOM     11  N   UNL     1      48.447   3.430  19.585  0.00  0.00    +0.000 N 
ATOM     12  O   UNL     1      48.220   5.255  20.865  0.00  0.00    +0.000 OA
ATOM     13  H   UNL     1      48.584   2.951  18.710  0.00  0.00    +0.000 HD
ATOM     14  H   UNL     1      48.260   2.876  20.406  0.00  0.00    +0.000 HD
ENDBRANCH   6  10
BRANCH   4  16
ATOM     15  C   UNL     1      47.185   9.412  19.454  0.00  0.00    +0.000 C 
ATOM     16  S   UNL     1      48.460   9.674  18.200  0.00  0.00    +0.000 S 
ENDBRANCH   4  16
ENDBRANCH   2   9
ENDBRANCH   1   2
BRANCH   1  17
ATOM     17  C   UNL     1      49.191   8.062  12.710  0.00  0.00    +0.000 C 
ATOM     18  C   UNL     1      50.182   7.798  11.568  0.00  0.00    +0.000 C 
BRANCH  17  19
ATOM     19  C   UNL     1      47.908   7.260  12.527  0.00  0.00    +0.000 A 
ATOM     20  C   UNL     1      47.805   5.930  12.942  0.00  0.00    +0.000 A 
ATOM     21  C   UNL     1      46.572   5.273  13.095  0.00  0.00    +0.000 A 
ATOM     22  C   UNL     1      46.654   3.978  13.848  0.00  0.00    +0.000 C 
ATOM     23  C   UNL     1      45.416   5.906  12.616  0.00  0.00    +0.000 A 
ATOM     24  C   UNL     1      45.518   7.203  12.056  0.00  0.00    +0.000 A 
ATOM     25  C   UNL     1      44.328   7.948  11.503  0.00  0.00    +0.000 C 
ATOM     26  C   UNL     1      46.752   7.876  12.052  0.00  0.00    +0.000 A 
BRANCH  23  27
ATOM     27  O   UNL     1      44.125   5.442  12.650  0.00  0.00    +0.000 OA
BRANCH  27  28
ATOM     28  C   UNL     1      43.571   4.539  11.677  0.00  0.00    +0.000 C 
ATOM     29  C   UNL     1      43.553   3.067  12.141  0.00  0.00    +0.000 C 
ATOM     30  N   UNL     1      44.428   2.674  11.035  0.00  0.00    +0.000 NA
ATOM     31  C   UNL     1      44.501   4.051  10.549  0.00  0.00    +0.000 C 
ATOM     32  H   UNL     1      44.008   2.021  10.377  0.00  0.00    +0.000 HD
ENDBRANCH  27  28
ENDBRANCH  23  27
ENDBRANCH  17  19
ENDBRANCH   1  17
TORSDOF 8
ENDMDL
MODEL 6
REMARK VINA RESULT:    -6.190      2.948      8.912
REMARK INTER + INTRA:          -9.950
REMARK INTER:                  -8.637
REMARK INTRA:                  -1.313
REMARK UNBOUND:                -0.865
REMARK  Name = 
REMARK  12 active torsions:
REMARK  status: ('A' for Active; 'I' for Inactive)
REMARK    1  A    between atoms: C_1  and  S_2
REMARK    2  A    between atoms: S_2  and  C_3
REMARK    3  A    between atoms: C_5  and  C_6
REMARK    4  A    between atoms: C_11  and  N_12
REMARK    5  A    between atoms: N_12  and  C_13
REMARK    6  A    between atoms: C_13  and  C_14
REMARK    7  A    between atoms: C_14  and  C_15
REMARK    8  A    between atoms: C_14  and  C_16
REMARK    9  A    between atoms: C_18  and  C_19
REMARK   10  A    between atoms: C_20  and  O_21
REMARK   11  A    between atoms: O_21  and  C_22
REMARK   12  A    between atoms: C_26  and  C_27
REMARK                            x       y       z     vdW  Elec       q    Type
REMARK                         _______ _______ _______ _____ _____    ______ ____
ROOT
ATOM      1  C   UNL     1      49.172   8.375  14.135  0.00  0.00    +0.000 C 
ENDROOT
BRANCH   1   2
ATOM      2  N   UNL     1      50.218   7.453  14.599  0.00  0.00    +0.000 N 
ATOM      3  H   UNL     1      51.149   7.869  14.557  0.00  0.00    +0.000 HD
BRANCH   2   9
ATOM      4  C   UNL     1      51.069   6.215  16.634  0.00  0.00    +0.000 A 
ATOM      5  C   UNL     1      50.721   5.486  17.792  0.00  0.00    +0.000 A 
ATOM      6  C   UNL     1      49.394   5.166  18.097  0.00  0.00    +0.000 A 
ATOM      7  C   UNL     1      48.397   5.569  17.217  0.00  0.00    +0.000 A 
ATOM      8  C   UNL     1      48.732   6.292  16.061  0.00  0.00    +0.000 A 
ATOM      9  C   UNL     1      50.067   6.628  15.727  0.00  0.00    +0.000 A 
BRANCH   6  10
ATOM     10  C   UNL     1      49.144   4.426  19.370  0.00  0.00    +0.000 C 
ATOM     11  N   UNL     1      48.367   3.301  19.337  0.00  0.00    +0.000 N 
ATOM     12  O   UNL     1      49.609   4.809  20.434  0.00  0.00    +0.000 OA
ATOM     13  H   UNL     1      47.916   2.923  18.520  0.00  0.00    +0.000 HD
ATOM     14  H   UNL     1      48.206   2.844  20.222  0.00  0.00    +0.000 HD
ENDBRANCH   6  10
BRANCH   4  16
ATOM     15  C   UNL     1      53.408   5.325  17.734  0.00  0.00    +0.000 C 
ATOM     16  S   UNL     1      52.840   6.491  16.475  0.00  0.00    +0.000 S 
ENDBRANCH   4  16
ENDBRANCH   2   9
ENDBRANCH   1   2
BRANCH   1  17
ATOM     17  C   UNL     1      48.796   8.166  12.644  0.00  0.00    +0.000 C 
ATOM     18  C   UNL     1      50.017   7.601  11.907  0.00  0.00    +0.000 C 
BRANCH  17  19
ATOM     19  C   UNL     1      47.557   7.310  12.403  0.00  0.00    +0.000 A 
ATOM     20  C   UNL     1      47.513   5.961  12.762  0.00  0.00    +0.000 A 
ATOM     21  C   UNL     1      46.312   5.239  12.863  0.00  0.00    +0.000 A 
ATOM     22  C   UNL     1      46.445   3.919  13.565  0.00  0.00    +0.000 C 
ATOM     23  C   UNL     1      45.135   5.833  12.388  0.00  0.00    +0.000 A 
ATOM     24  C   UNL     1      45.182   7.156  11.882  0.00  0.00    +0.000 A 
ATOM     25  C   UNL     1      43.967   7.863  11.336  0.00  0.00    +0.000 C 
ATOM     26  C   UNL     1      46.381   7.888  11.930  0.00  0.00    +0.000 A 
BRANCH  23  27
ATOM     27  O   UNL     1      43.868   5.306  12.376  0.00  0.00    +0.000 OA
BRANCH  27  28
ATOM     28  C   UNL     1      43.376   4.419  11.356  0.00  0.00    +0.000 C 
ATOM     29  C   UNL     1      43.384   2.933  11.772  0.00  0.00    +0.000 C 
ATOM     30  N   UNL     1      44.310   2.601  10.689  0.00  0.00    +0.000 NA
ATOM     31  C   UNL     1      44.361   3.995  10.249  0.00  0.00    +0.000 C 
ATOM     32  H   UNL     1      43.934   1.958   9.994  0.00  0.00    +0.000 HD
ENDBRANCH  27  28
ENDBRANCH  23  27
ENDBRANCH  17  19
ENDBRANCH   1  17
TORSDOF 8
ENDMDL
MODEL 7
REMARK VINA RESULT:    -6.178      3.409      4.563
REMARK INTER + INTRA:          -9.933
REMARK INTER:                  -9.052
REMARK INTRA:                  -0.881
REMARK UNBOUND:                -0.865
REMARK  Name = 
REMARK  12 active torsions:
REMARK  status: ('A' for Active; 'I' for Inactive)
REMARK    1  A    between atoms: C_1  and  S_2
REMARK    2  A    between atoms: S_2  and  C_3
REMARK    3  A    between atoms: C_5  and  C_6
REMARK    4  A    between atoms: C_11  and  N_12
REMARK    5  A    between atoms: N_12  and  C_13
REMARK    6  A    between atoms: C_13  and  C_14
REMARK    7  A    between atoms: C_14  and  C_15
REMARK    8  A    between atoms: C_14  and  C_16
REMARK    9  A    between atoms: C_18  and  C_19
REMARK   10  A    between atoms: C_20  and  O_21
REMARK   11  A    between atoms: O_21  and  C_22
REMARK   12  A    between atoms: C_26  and  C_27
REMARK                            x       y       z     vdW  Elec       q    Type
REMARK                         _______ _______ _______ _____ _____    ______ ____
ROOT
ATOM      1  C   UNL     1      47.381   4.023  15.299  0.00  0.00    +0.000 C 
ENDROOT
BRANCH   1   2
ATOM      2  N   UNL     1      46.150   4.640  14.789  0.00  0.00    +0.000 N 
ATOM      3  H   UNL     1      45.878   5.466  15.324  0.00  0.00    +0.000 HD
BRANCH   2   9
ATOM      4  C   UNL     1      46.244   5.880  12.586  0.00  0.00    +0.000 A 
ATOM      5  C   UNL     1      46.005   5.818  11.196  0.00  0.00    +0.000 A 
ATOM      6  C   UNL     1      45.430   4.695  10.591  0.00  0.00    +0.000 A 
ATOM      7  C   UNL     1      45.071   3.620  11.396  0.00  0.00    +0.000 A 
ATOM      8  C   UNL     1      45.302   3.673  12.780  0.00  0.00    +0.000 A 
ATOM      9  C   UNL     1      45.881   4.797  13.418  0.00  0.00    +0.000 A 
BRANCH   6  10
ATOM     10  C   UNL     1      45.263   4.728   9.108  0.00  0.00    +0.000 C 
ATOM     11  N   UNL     1      44.098   4.257   8.564  0.00  0.00    +0.000 N 
ATOM     12  O   UNL     1      46.142   5.155   8.374  0.00  0.00    +0.000 OA
ATOM     13  H   UNL     1      43.330   3.859   9.079  0.00  0.00    +0.000 HD
ATOM     14  H   UNL     1      44.036   4.278   7.558  0.00  0.00    +0.000 HD
ENDBRANCH   6  10
BRANCH   4  16
ATOM     15  C   UNL     1      45.604   8.533  12.737  0.00  0.00    +0.000 C 
ATOM     16  S   UNL     1      46.988   7.432  13.109  0.00  0.00    +0.000 S 
ENDBRANCH   4  16
ENDBRANCH   2   9
ENDBRANCH   1   2
BRANCH   1  17
ATOM     17  C   UNL     1      47.412   3.917  16.847  0.00  0.00    +0.000 C 
ATOM     18  C   UNL     1      48.398   2.808  17.241  0.00  0.00    +0.000 C 
BRANCH  17  19
ATOM     19  C   UNL     1      47.721   5.219  17.579  0.00  0.00    +0.000 A 
ATOM     20  C   UNL     1      47.215   5.485  18.853  0.00  0.00    +0.000 A 
ATOM     21  C   UNL     1      47.731   6.496  19.681  0.00  0.00    +0.000 A 
ATOM     22  C   UNL     1      47.279   6.412  21.109  0.00  0.00    +0.000 C 
ATOM     23  C   UNL     1      48.646   7.406  19.132  0.00  0.00    +0.000 A 
ATOM     24  C   UNL     1      49.066   7.239  17.789  0.00  0.00    +0.000 A 
ATOM     25  C   UNL     1      50.033   8.181  17.115  0.00  0.00    +0.000 C 
ATOM     26  C   UNL     1      48.628   6.131  17.043  0.00  0.00    +0.000 A 
BRANCH  23  27
ATOM     27  O   UNL     1      49.256   8.467  19.751  0.00  0.00    +0.000 OA
BRANCH  27  28
ATOM     28  C   UNL     1      48.584   9.691  20.095  0.00  0.00    +0.000 C 
ATOM     29  C   UNL     1      47.207   9.852  19.417  0.00  0.00    +0.000 C 
ATOM     30  N   UNL     1      47.653  11.063  18.726  0.00  0.00    +0.000 NA
ATOM     31  C   UNL     1      48.985  10.963  19.322  0.00  0.00    +0.000 C 
ATOM     32  H   UNL     1      47.144  11.906  18.982  0.00  0.00    +0.000 HD
ENDBRANCH  27  28
ENDBRANCH  23  27
ENDBRANCH  17  19
ENDBRANCH   1  17
TORSDOF 8
ENDMDL
MODEL 8
REMARK VINA RESULT:    -6.085      4.029      5.256
REMARK INTER + INTRA:          -9.796
REMARK INTER:                  -8.463
REMARK INTRA:                  -1.333
REMARK UNBOUND:                -0.865
REMARK  Name = 
REMARK  12 active torsions:
REMARK  status: ('A' for Active; 'I' for Inactive)
REMARK    1  A    between atoms: C_1  and  S_2
REMARK    2  A    between atoms: S_2  and  C_3
REMARK    3  A    between atoms: C_5  and  C_6
REMARK    4  A    between atoms: C_11  and  N_12
REMARK    5  A    between atoms: N_12  and  C_13
REMARK    6  A    between atoms: C_13  and  C_14
REMARK    7  A    between atoms: C_14  and  C_15
REMARK    8  A    between atoms: C_14  and  C_16
REMARK    9  A    between atoms: C_18  and  C_19
REMARK   10  A    between atoms: C_20  and  O_21
REMARK   11  A    between atoms: O_21  and  C_22
REMARK   12  A    between atoms: C_26  and  C_27
REMARK                            x       y       z     vdW  Elec       q    Type
REMARK                         _______ _______ _______ _____ _____    ______ ____
ROOT
ATOM      1  C   UNL     1      47.608   3.679  15.244  0.00  0.00    +0.000 C 
ENDROOT
BRANCH   1   2
ATOM      2  N   UNL     1      46.489   3.794  14.298  0.00  0.00    +0.000 N 
ATOM      3  H   UNL     1      45.654   3.303  14.622  0.00  0.00    +0.000 HD
BRANCH   2   9
ATOM      4  C   UNL     1      44.918   5.356  13.077  0.00  0.00    +0.000 A 
ATOM      5  C   UNL     1      44.728   6.655  12.557  0.00  0.00    +0.000 A 
ATOM      6  C   UNL     1      45.737   7.623  12.590  0.00  0.00    +0.000 A 
ATOM      7  C   UNL     1      46.967   7.279  13.139  0.00  0.00    +0.000 A 
ATOM      8  C   UNL     1      47.167   5.989  13.657  0.00  0.00    +0.000 A 
ATOM      9  C   UNL     1      46.164   4.990  13.635  0.00  0.00    +0.000 A 
BRANCH   6  10
ATOM     10  C   UNL     1      45.407   8.974  12.046  0.00  0.00    +0.000 C 
ATOM     11  N   UNL     1      46.160  10.046  12.441  0.00  0.00    +0.000 N 
ATOM     12  O   UNL     1      44.478   9.141  11.269  0.00  0.00    +0.000 OA
ATOM     13  H   UNL     1      46.923  10.017  13.098  0.00  0.00    +0.000 HD
ATOM     14  H   UNL     1      45.889  10.943  12.067  0.00  0.00    +0.000 HD
ENDBRANCH   6  10
BRANCH   4  16
ATOM     15  C   UNL     1      42.450   5.410  11.904  0.00  0.00    +0.000 C 
ATOM     16  S   UNL     1      43.468   4.305  12.909  0.00  0.00    +0.000 S 
ENDBRANCH   4  16
ENDBRANCH   2   9
ENDBRANCH   1   2
BRANCH   1  17
ATOM     17  C   UNL     1      47.205   4.013  16.705  0.00  0.00    +0.000 C 
ATOM     18  C   UNL     1      47.314   2.733  17.545  0.00  0.00    +0.000 C 
BRANCH  17  19
ATOM     19  C   UNL     1      47.977   5.162  17.343  0.00  0.00    +0.000 A 
ATOM     20  C   UNL     1      49.017   5.811  16.674  0.00  0.00    +0.000 A 
ATOM     21  C   UNL     1      49.520   7.060  17.079  0.00  0.00    +0.000 A 
ATOM     22  C   UNL     1      50.395   7.729  16.060  0.00  0.00    +0.000 C 
ATOM     23  C   UNL     1      49.108   7.576  18.315  0.00  0.00    +0.000 A 
ATOM     24  C   UNL     1      48.157   6.858  19.082  0.00  0.00    +0.000 A 
ATOM     25  C   UNL     1      47.672   7.333  20.430  0.00  0.00    +0.000 C 
ATOM     26  C   UNL     1      47.578   5.684  18.572  0.00  0.00    +0.000 A 
BRANCH  23  27
ATOM     27  O   UNL     1      49.482   8.757  18.904  0.00  0.00    +0.000 OA
BRANCH  27  28
ATOM     28  C   UNL     1      48.854  10.022  18.636  0.00  0.00    +0.000 C 
ATOM     29  C   UNL     1      47.745   9.947  17.564  0.00  0.00    +0.000 C 
ATOM     30  N   UNL     1      48.476  10.872  16.697  0.00  0.00    +0.000 NA
ATOM     31  C   UNL     1      49.570  10.979  17.662  0.00  0.00    +0.000 C 
ATOM     32  H   UNL     1      47.994  11.751  16.515  0.00  0.00    +0.000 HD
ENDBRANCH  27  28
ENDBRANCH  23  27
ENDBRANCH  17  19
ENDBRANCH   1  17
TORSDOF 8
ENDMDL
MODEL 9
REMARK VINA RESULT:    -5.893      3.371      4.961
REMARK INTER + INTRA:          -9.514
REMARK INTER:                  -8.080
REMARK INTRA:                  -1.434
REMARK UNBOUND:                -0.865
REMARK  Name = 
REMARK  12 active torsions:
REMARK  status: ('A' for Active; 'I' for Inactive)
REMARK    1  A    between atoms: C_1  and  S_2
REMARK    2  A    between atoms: S_2  and  C_3
REMARK    3  A    between atoms: C_5  and  C_6
REMARK    4  A    between atoms: C_11  and  N_12
REMARK    5  A    between atoms: N_12  and  C_13
REMARK    6  A    between atoms: C_13  and  C_14
REMARK    7  A    between atoms: C_14  and  C_15
REMARK    8  A    between atoms: C_14  and  C_16
REMARK    9  A    between atoms: C_18  and  C_19
REMARK   10  A    between atoms: C_20  and  O_21
REMARK   11  A    between atoms: O_21  and  C_22
REMARK   12  A    between atoms: C_26  and  C_27
REMARK                            x       y       z     vdW  Elec       q    Type
REMARK                         _______ _______ _______ _____ _____    ______ ____
ROOT
ATOM      1  C   UNL     1      49.699   7.666  13.200  0.00  0.00    +0.000 C 
ENDROOT
BRANCH   1   2
ATOM      2  N   UNL     1      48.312   8.147  13.143  0.00  0.00    +0.000 N 
ATOM      3  H   UNL     1      48.191   8.906  12.471  0.00  0.00    +0.000 HD
BRANCH   2   9
ATOM      4  C   UNL     1      45.878   7.577  12.756  0.00  0.00    +0.000 A 
ATOM      5  C   UNL     1      44.906   6.554  12.722  0.00  0.00    +0.000 A 
ATOM      6  C   UNL     1      45.208   5.230  13.060  0.00  0.00    +0.000 A 
ATOM      7  C   UNL     1      46.506   4.929  13.458  0.00  0.00    +0.000 A 
ATOM      8  C   UNL     1      47.480   5.940  13.498  0.00  0.00    +0.000 A 
ATOM      9  C   UNL     1      47.200   7.287  13.163  0.00  0.00    +0.000 A 
BRANCH   6  10
ATOM     10  C   UNL     1      44.109   4.227  12.947  0.00  0.00    +0.000 C 
ATOM     11  N   UNL     1      44.418   2.948  12.571  0.00  0.00    +0.000 N 
ATOM     12  O   UNL     1      42.945   4.526  13.173  0.00  0.00    +0.000 OA
ATOM     13  H   UNL     1      45.338   2.613  12.334  0.00  0.00    +0.000 HD
ATOM     14  H   UNL     1      43.643   2.309  12.486  0.00  0.00    +0.000 HD
ENDBRANCH   6  10
BRANCH   4  16
ATOM     15  C   UNL     1      43.998   8.634  11.078  0.00  0.00    +0.000 C 
ATOM     16  S   UNL     1      45.231   9.186  12.278  0.00  0.00    +0.000 S 
ENDBRANCH   4  16
ENDBRANCH   2   9
ENDBRANCH   1   2
BRANCH   1  17
ATOM     17  C   UNL     1      50.473   8.186  14.441  0.00  0.00    +0.000 C 
ATOM     18  C   UNL     1      50.464   9.720  14.414  0.00  0.00    +0.000 C 
BRANCH  17  19
ATOM     19  C   UNL     1      49.980   7.652  15.781  0.00  0.00    +0.000 A 
ATOM     20  C   UNL     1      49.298   8.463  16.691  0.00  0.00    +0.000 A 
ATOM     21  C   UNL     1      48.552   7.944  17.763  0.00  0.00    +0.000 A 
ATOM     22  C   UNL     1      47.644   8.942  18.420  0.00  0.00    +0.000 C 
ATOM     23  C   UNL     1      48.664   6.578  18.053  0.00  0.00    +0.000 A 
ATOM     24  C   UNL     1      49.470   5.758  17.225  0.00  0.00    +0.000 A 
ATOM     25  C   UNL     1      49.658   4.282  17.476  0.00  0.00    +0.000 C 
ATOM     26  C   UNL     1      50.086   6.296  16.082  0.00  0.00    +0.000 A 
BRANCH  23  27
ATOM     27  O   UNL     1      48.042   5.873  19.053  0.00  0.00    +0.000 OA
BRANCH  27  28
ATOM     28  C   UNL     1      48.435   5.925  20.436  0.00  0.00    +0.000 C 
ATOM     29  C   UNL     1      48.614   4.534  21.080  0.00  0.00    +0.000 C 
ATOM     30  N   UNL     1      47.557   4.812  22.053  0.00  0.00    +0.000 NA
ATOM     31  C   UNL     1      47.324   6.138  21.483  0.00  0.00    +0.000 C 
ATOM     32  H   UNL     1      47.869   4.824  23.022  0.00  0.00    +0.000 HD
ENDBRANCH  27  28
ENDBRANCH  23  27
ENDBRANCH  17  19
ENDBRANCH   1  17
TORSDOF 8
ENDMDL
