MODEL 1
REMARK VINA RESULT:    -8.065      0.000      0.000
REMARK INTER + INTRA:         -10.779
REMARK INTER:                 -10.187
REMARK INTRA:                  -0.592
REMARK UNBOUND:                -0.592
REMARK  Name = 
REMARK  5 active torsions:
REMARK  status: ('A' for Active; 'I' for Inactive)
REMARK    1  A    between atoms: N_1  and  C_2
REMARK    2  A    between atoms: C_6  and  C_7
REMARK    3  A    between atoms: C_7  and  C_8
REMARK    4  A    between atoms: C_8  and  C_9
REMARK    5  A    between atoms: C_13  and  N_14
REMARK                            x       y       z     vdW  Elec       q    Type
REMARK                         _______ _______ _______ _____ _____    ______ ____
ROOT
ATOM      1  C   UNL     1      44.822   4.269  11.196  0.00  0.00    +0.000 A 
ATOM      2  C   UNL     1      45.023   3.311  12.184  0.00  0.00    +0.000 A 
ATOM      3  N   UNL     1      45.769   3.503  13.291  0.00  0.00    +0.000 NA
ATOM      4  C   UNL     1      46.383   4.706  13.404  0.00  0.00    +0.000 A 
ATOM      5  C   UNL     1      46.296   5.753  12.485  0.00  0.00    +0.000 A 
ATOM      6  C   UNL     1      45.478   5.497  11.370  0.00  0.00    +0.000 A 
ENDROOT
BRANCH   5   7
ATOM      7  N   UNL     1      46.981   6.942  12.623  0.00  0.00    +0.000 N 
ATOM      8  C   UNL     1      48.434   7.054  12.422  0.00  0.00    +0.000 C 
ATOM      9  C   UNL     1      48.801   8.383  11.691  0.00  0.00    +0.000 C 
ATOM     10  N   UNL     1      48.066   9.602  12.099  0.00  0.00    +0.000 NA
ATOM     11  C   UNL     1      46.621   9.302  12.157  0.00  0.00    +0.000 C 
ATOM     12  C   UNL     1      46.326   8.149  13.129  0.00  0.00    +0.000 C 
ATOM     13  H   UNL     1      48.370   9.859  13.038  0.00  0.00    +0.000 HD
ENDBRANCH   5   7
BRANCH   1  14
ATOM     14  C   UNL     1      44.012   3.973   9.951  0.00  0.00    +0.000 C 
BRANCH  14  15
ATOM     15  C   UNL     1      44.781   4.256   8.651  0.00  0.00    +0.000 C 
BRANCH  15  20
ATOM     16  C   UNL     1      47.424   2.272   6.664  0.00  0.00    +0.000 A 
ATOM     17  C   UNL     1      47.222   1.050   7.306  0.00  0.00    +0.000 A 
ATOM     18  N   UNL     1      46.265   0.819   8.232  0.00  0.00    +0.000 NA
ATOM     19  C   UNL     1      45.511   1.880   8.585  0.00  0.00    +0.000 A 
ATOM     20  C   UNL     1      45.655   3.170   8.069  0.00  0.00    +0.000 A 
ATOM     21  C   UNL     1      46.649   3.353   7.102  0.00  0.00    +0.000 A 
BRANCH  16  22
ATOM     22  N   UNL     1      48.511   2.470   5.804  0.00  0.00    +0.000 N 
ATOM     23  H   UNL     1      49.341   1.948   6.065  0.00  0.00    +0.000 HD
ATOM     24  H   UNL     1      48.289   2.363   4.819  0.00  0.00    +0.000 HD
ENDBRANCH  16  22
ENDBRANCH  15  20
ENDBRANCH  14  15
ENDBRANCH   1  14
TORSDOF 5
ENDMDL
MODEL 2
REMARK VINA RESULT:    -7.904      0.780      1.382
REMARK INTER + INTRA:         -10.576
REMARK INTER:                 -10.001
REMARK INTRA:                  -0.575
REMARK UNBOUND:                -0.592
REMARK  Name = 
REMARK  5 active torsions:
REMARK  status: ('A' for Active; 'I' for Inactive)
REMARK    1  A    between atoms: N_1  and  C_2
REMARK    2  A    between atoms: C_6  and  C_7
REMARK    3  A    between atoms: C_7  and  C_8
REMARK    4  A    between atoms: C_8  and  C_9
REMARK    5  A    between atoms: C_13  and  N_14
REMARK                            x       y       z     vdW  Elec       q    Type
REMARK                         _______ _______ _______ _____ _____    ______ ____
ROOT
ATOM      1  C   UNL     1      45.016   4.362  11.300  0.00  0.00    +0.000 A 
ATOM      2  C   UNL     1      45.181   3.352  12.242  0.00  0.00    +0.000 A 
ATOM      3  N   UNL     1      45.969   3.449  13.332  0.00  0.00    +0.000 NA
ATOM      4  C   UNL     1      46.665   4.604  13.474  0.00  0.00    +0.000 A 
ATOM      5  C   UNL     1      46.620   5.692  12.602  0.00  0.00    +0.000 A 
ATOM      6  C   UNL     1      45.757   5.536  11.503  0.00  0.00    +0.000 A 
ENDROOT
BRANCH   5   7
ATOM      7  N   UNL     1      47.386   6.827  12.766  0.00  0.00    +0.000 N 
ATOM      8  C   UNL     1      46.803   8.158  12.993  0.00  0.00    +0.000 C 
ATOM      9  C   UNL     1      47.638   8.969  14.032  0.00  0.00    +0.000 C 
ATOM     10  N   UNL     1      49.113   8.871  13.936  0.00  0.00    +0.000 NA
ATOM     11  C   UNL     1      49.497   7.451  13.801  0.00  0.00    +0.000 C 
ATOM     12  C   UNL     1      48.837   6.806  12.572  0.00  0.00    +0.000 C 
ATOM     13  H   UNL     1      49.411   9.357  13.092  0.00  0.00    +0.000 HD
ENDBRANCH   5   7
BRANCH   1  14
ATOM     14  C   UNL     1      44.154   4.172  10.069  0.00  0.00    +0.000 C 
BRANCH  14  15
ATOM     15  C   UNL     1      44.914   4.418   8.757  0.00  0.00    +0.000 C 
BRANCH  15  20
ATOM     16  C   UNL     1      47.415   2.292   6.734  0.00  0.00    +0.000 A 
ATOM     17  C   UNL     1      47.107   1.071   7.333  0.00  0.00    +0.000 A 
ATOM     18  N   UNL     1      46.123   0.888   8.241  0.00  0.00    +0.000 NA
ATOM     19  C   UNL     1      45.452   1.995   8.621  0.00  0.00    +0.000 A 
ATOM     20  C   UNL     1      45.705   3.284   8.149  0.00  0.00    +0.000 A 
ATOM     21  C   UNL     1      46.724   3.418   7.200  0.00  0.00    +0.000 A 
BRANCH  16  22
ATOM     22  N   UNL     1      48.526   2.430   5.893  0.00  0.00    +0.000 N 
ATOM     23  H   UNL     1      48.288   2.620   4.925  0.00  0.00    +0.000 HD
ATOM     24  H   UNL     1      49.236   3.067   6.242  0.00  0.00    +0.000 HD
ENDBRANCH  16  22
ENDBRANCH  15  20
ENDBRANCH  14  15
ENDBRANCH   1  14
TORSDOF 5
ENDMDL
MODEL 3
REMARK VINA RESULT:    -7.824      1.818      2.489
REMARK INTER + INTRA:         -10.475
REMARK INTER:                  -9.907
REMARK INTRA:                  -0.568
REMARK UNBOUND:                -0.592
REMARK  Name = 
REMARK  5 active torsions:
REMARK  status: ('A' for Active; 'I' for Inactive)
REMARK    1  A    between atoms: N_1  and  C_2
REMARK    2  A    between atoms: C_6  and  C_7
REMARK    3  A    between atoms: C_7  and  C_8
REMARK    4  A    between atoms: C_8  and  C_9
REMARK    5  A    between atoms: C_13  and  N_14
REMARK                            x       y       z     vdW  Elec       q    Type
REMARK                         _______ _______ _______ _____ _____    ______ ____
ROOT
ATOM      1  C   UNL     1      43.996   4.600  10.795  0.00  0.00    +0.000 A 
ATOM      2  C   UNL     1      42.861   4.791  11.575  0.00  0.00    +0.000 A 
ATOM      3  N   UNL     1      42.881   5.104  12.886  0.00  0.00    +0.000 NA
ATOM      4  C   UNL     1      44.103   5.196  13.466  0.00  0.00    +0.000 A 
ATOM      5  C   UNL     1      45.326   5.007  12.820  0.00  0.00    +0.000 A 
ATOM      6  C   UNL     1      45.232   4.713  11.448  0.00  0.00    +0.000 A 
ENDROOT
BRANCH   5   7
ATOM      7  N   UNL     1      46.542   5.064  13.467  0.00  0.00    +0.000 N 
ATOM      8  C   UNL     1      47.530   6.124  13.219  0.00  0.00    +0.000 C 
ATOM      9  C   UNL     1      48.228   6.566  14.543  0.00  0.00    +0.000 C 
ATOM     10  N   UNL     1      48.591   5.498  15.503  0.00  0.00    +0.000 NA
ATOM     11  C   UNL     1      47.439   4.591  15.679  0.00  0.00    +0.000 C 
ATOM     12  C   UNL     1      46.996   3.979  14.340  0.00  0.00    +0.000 C 
ATOM     13  H   UNL     1      49.357   4.956  15.103  0.00  0.00    +0.000 HD
ENDBRANCH   5   7
BRANCH   1  14
ATOM     14  C   UNL     1      43.904   4.199   9.337  0.00  0.00    +0.000 C 
BRANCH  14  15
ATOM     15  C   UNL     1      45.206   4.451   8.560  0.00  0.00    +0.000 C 
BRANCH  15  20
ATOM     16  C   UNL     1      47.434   2.181   6.380  0.00  0.00    +0.000 A 
ATOM     17  C   UNL     1      47.231   1.011   7.110  0.00  0.00    +0.000 A 
ATOM     18  N   UNL     1      46.385   0.896   8.157  0.00  0.00    +0.000 NA
ATOM     19  C   UNL     1      45.756   2.027   8.540  0.00  0.00    +0.000 A 
ATOM     20  C   UNL     1      45.922   3.276   7.938  0.00  0.00    +0.000 A 
ATOM     21  C   UNL     1      46.797   3.337   6.848  0.00  0.00    +0.000 A 
BRANCH  16  22
ATOM     22  N   UNL     1      48.415   2.257   5.384  0.00  0.00    +0.000 N 
ATOM     23  H   UNL     1      48.817   3.182   5.273  0.00  0.00    +0.000 HD
ATOM     24  H   UNL     1      49.129   1.537   5.448  0.00  0.00    +0.000 HD
ENDBRANCH  16  22
ENDBRANCH  15  20
ENDBRANCH  14  15
ENDBRANCH   1  14
TORSDOF 5
ENDMDL
MODEL 4
REMARK VINA RESULT:    -7.022      1.373      2.267
REMARK INTER + INTRA:          -9.461
REMARK INTER:                  -8.809
REMARK INTRA:                  -0.652
REMARK UNBOUND:                -0.592
REMARK  Name = 
REMARK  5 active torsions:
REMARK  status: ('A' for Active; 'I' for Inactive)
REMARK    1  A    between atoms: N_1  and  C_2
REMARK    2  A    between atoms: C_6  and  C_7
REMARK    3  A    between atoms: C_7  and  C_8
REMARK    4  A    between atoms: C_8  and  C_9
REMARK    5  A    between atoms: C_13  and  N_14
REMARK                            x       y       z     vdW  Elec       q    Type
REMARK                         _______ _______ _______ _____ _____    ______ ____
ROOT
ATOM      1  C   UNL     1      45.407   4.102  12.584  0.00  0.00    +0.000 A 
ATOM      2  C   UNL     1      46.471   3.702  13.385  0.00  0.00    +0.000 A 
ATOM      3  N   UNL     1      47.437   4.527  13.836  0.00  0.00    +0.000 NA
ATOM      4  C   UNL     1      47.362   5.820  13.436  0.00  0.00    +0.000 A 
ATOM      5  C   UNL     1      46.371   6.361  12.616  0.00  0.00    +0.000 A 
ATOM      6  C   UNL     1      45.380   5.453  12.206  0.00  0.00    +0.000 A 
ENDROOT
BRANCH   5   7
ATOM      7  N   UNL     1      46.368   7.675  12.197  0.00  0.00    +0.000 N 
ATOM      8  C   UNL     1      45.146   8.372  11.766  0.00  0.00    +0.000 C 
ATOM      9  C   UNL     1      45.134   9.850  12.268  0.00  0.00    +0.000 C 
ATOM     10  N   UNL     1      46.412  10.595  12.202  0.00  0.00    +0.000 NA
ATOM     11  C   UNL     1      47.492   9.757  12.760  0.00  0.00    +0.000 C 
ATOM     12  C   UNL     1      47.612   8.422  12.008  0.00  0.00    +0.000 C 
ATOM     13  H   UNL     1      46.628  10.771  11.221  0.00  0.00    +0.000 HD
ENDBRANCH   5   7
BRANCH   1  14
ATOM     14  C   UNL     1      44.382   3.114  12.068  0.00  0.00    +0.000 C 
BRANCH  14  15
ATOM     15  C   UNL     1      43.914   3.422  10.637  0.00  0.00    +0.000 C 
BRANCH  15  20
ATOM     16  C   UNL     1      46.275   1.833   8.035  0.00  0.00    +0.000 A 
ATOM     17  C   UNL     1      46.435   2.974   7.249  0.00  0.00    +0.000 A 
ATOM     18  N   UNL     1      45.926   4.189   7.547  0.00  0.00    +0.000 NA
ATOM     19  C   UNL     1      45.160   4.258   8.655  0.00  0.00    +0.000 A 
ATOM     20  C   UNL     1      44.866   3.179   9.491  0.00  0.00    +0.000 A 
ATOM     21  C   UNL     1      45.430   1.945   9.147  0.00  0.00    +0.000 A 
BRANCH  16  22
ATOM     22  N   UNL     1      46.728   0.582   7.602  0.00  0.00    +0.000 N 
ATOM     23  H   UNL     1      46.395   0.321   6.680  0.00  0.00    +0.000 HD
ATOM     24  H   UNL     1      47.730   0.446   7.696  0.00  0.00    +0.000 HD
ENDBRANCH  16  22
ENDBRANCH  15  20
ENDBRANCH  14  15
ENDBRANCH   1  14
TORSDOF 5
ENDMDL
MODEL 5
REMARK VINA RESULT:    -6.926      1.583      2.290
REMARK INTER + INTRA:          -9.341
REMARK INTER:                  -8.885
REMARK INTRA:                  -0.456
REMARK UNBOUND:                -0.592
REMARK  Name = 
REMARK  5 active torsions:
REMARK  status: ('A' for Active; 'I' for Inactive)
REMARK    1  A    between atoms: N_1  and  C_2
REMARK    2  A    between atoms: C_6  and  C_7
REMARK    3  A    between atoms: C_7  and  C_8
REMARK    4  A    between atoms: C_8  and  C_9
REMARK    5  A    between atoms: C_13  and  N_14
REMARK                            x       y       z     vdW  Elec       q    Type
REMARK                         _______ _______ _______ _____ _____    ______ ____
ROOT
ATOM      1  C   UNL     1      45.187   5.526  11.159  0.00  0.00    +0.000 A 
ATOM      2  C   UNL     1      44.434   6.693  11.238  0.00  0.00    +0.000 A 
ATOM      3  N   UNL     1      44.823   7.809  11.887  0.00  0.00    +0.000 NA
ATOM      4  C   UNL     1      46.016   7.750  12.527  0.00  0.00    +0.000 A 
ATOM      5  C   UNL     1      46.869   6.645  12.558  0.00  0.00    +0.000 A 
ATOM      6  C   UNL     1      46.415   5.526  11.837  0.00  0.00    +0.000 A 
ENDROOT
BRANCH   5   7
ATOM      7  N   UNL     1      48.051   6.619  13.267  0.00  0.00    +0.000 N 
ATOM      8  C   UNL     1      49.320   7.127  12.723  0.00  0.00    +0.000 C 
ATOM      9  C   UNL     1      50.143   7.874  13.818  0.00  0.00    +0.000 C 
ATOM     10  N   UNL     1      50.166   7.274  15.172  0.00  0.00    +0.000 NA
ATOM     11  C   UNL     1      48.789   6.914  15.566  0.00  0.00    +0.000 C 
ATOM     12  C   UNL     1      48.153   5.941  14.560  0.00  0.00    +0.000 C 
ATOM     13  H   UNL     1      50.714   6.416  15.131  0.00  0.00    +0.000 HD
ENDBRANCH   5   7
BRANCH   1  14
ATOM     14  C   UNL     1      44.670   4.288  10.456  0.00  0.00    +0.000 C 
BRANCH  14  15
ATOM     15  C   UNL     1      44.876   4.329   8.934  0.00  0.00    +0.000 C 
BRANCH  15  20
ATOM     16  C   UNL     1      47.383   2.277   6.843  0.00  0.00    +0.000 A 
ATOM     17  C   UNL     1      47.032   1.028   7.354  0.00  0.00    +0.000 A 
ATOM     18  N   UNL     1      46.019   0.811   8.221  0.00  0.00    +0.000 NA
ATOM     19  C   UNL     1      45.363   1.907   8.655  0.00  0.00    +0.000 A 
ATOM     20  C   UNL     1      45.658   3.218   8.275  0.00  0.00    +0.000 A 
ATOM     21  C   UNL     1      46.705   3.387   7.363  0.00  0.00    +0.000 A 
BRANCH  16  22
ATOM     22  N   UNL     1      48.520   2.441   6.042  0.00  0.00    +0.000 N 
ATOM     23  H   UNL     1      49.127   1.629   6.019  0.00  0.00    +0.000 HD
ATOM     24  H   UNL     1      48.326   2.796   5.111  0.00  0.00    +0.000 HD
ENDBRANCH  16  22
ENDBRANCH  15  20
ENDBRANCH  14  15
ENDBRANCH   1  14
TORSDOF 5
ENDMDL
MODEL 6
REMARK VINA RESULT:    -6.532      1.438      6.507
REMARK INTER + INTRA:          -8.842
REMARK INTER:                  -8.205
REMARK INTRA:                  -0.637
REMARK UNBOUND:                -0.592
REMARK  Name = 
REMARK  5 active torsions:
REMARK  status: ('A' for Active; 'I' for Inactive)
REMARK    1  A    between atoms: N_1  and  C_2
REMARK    2  A    between atoms: C_6  and  C_7
REMARK    3  A    between atoms: C_7  and  C_8
REMARK    4  A    between atoms: C_8  and  C_9
REMARK    5  A    between atoms: C_13  and  N_14
REMARK                            x       y       z     vdW  Elec       q    Type
REMARK                         _______ _______ _______ _____ _____    ______ ____
ROOT
ATOM      1  C   UNL     1      44.309   4.860  10.845  0.00  0.00    +0.000 A 
ATOM      2  C   UNL     1      43.483   3.938  11.479  0.00  0.00    +0.000 A 
ATOM      3  N   UNL     1      43.397   2.635  11.141  0.00  0.00    +0.000 NA
ATOM      4  C   UNL     1      44.148   2.233  10.087  0.00  0.00    +0.000 A 
ATOM      5  C   UNL     1      45.002   3.046   9.340  0.00  0.00    +0.000 A 
ATOM      6  C   UNL     1      45.067   4.385   9.765  0.00  0.00    +0.000 A 
ENDROOT
BRANCH   5   7
ATOM      7  N   UNL     1      45.708   2.599   8.244  0.00  0.00    +0.000 N 
ATOM      8  C   UNL     1      46.290   3.507   7.244  0.00  0.00    +0.000 C 
ATOM      9  C   UNL     1      47.690   3.004   6.773  0.00  0.00    +0.000 C 
ATOM     10  N   UNL     1      47.845   1.548   6.552  0.00  0.00    +0.000 NA
ATOM     11  C   UNL     1      47.277   0.819   7.705  0.00  0.00    +0.000 C 
ATOM     12  C   UNL     1      45.797   1.174   7.919  0.00  0.00    +0.000 C 
ATOM     13  H   UNL     1      47.307   1.292   5.725  0.00  0.00    +0.000 HD
ENDBRANCH   5   7
BRANCH   1  14
ATOM     14  C   UNL     1      44.323   6.323  11.241  0.00  0.00    +0.000 C 
BRANCH  14  15
ATOM     15  C   UNL     1      45.048   6.580  12.571  0.00  0.00    +0.000 C 
BRANCH  15  20
ATOM     16  C   UNL     1      48.538   8.140  12.071  0.00  0.00    +0.000 A 
ATOM     17  C   UNL     1      49.245   7.185  12.801  0.00  0.00    +0.000 A 
ATOM     18  N   UNL     1      48.700   6.072  13.338  0.00  0.00    +0.000 NA
ATOM     19  C   UNL     1      47.366   5.936  13.198  0.00  0.00    +0.000 A 
ATOM     20  C   UNL     1      46.533   6.851  12.551  0.00  0.00    +0.000 A 
ATOM     21  C   UNL     1      47.149   7.979  11.998  0.00  0.00    +0.000 A 
BRANCH  16  22
ATOM     22  N   UNL     1      49.146   9.329  11.648  0.00  0.00    +0.000 N 
ATOM     23  H   UNL     1      48.705  10.167  12.012  0.00  0.00    +0.000 HD
ATOM     24  H   UNL     1      50.154   9.347  11.769  0.00  0.00    +0.000 HD
ENDBRANCH  16  22
ENDBRANCH  15  20
ENDBRANCH  14  15
ENDBRANCH   1  14
TORSDOF 5
ENDMDL
MODEL 7
REMARK VINA RESULT:    -6.530      2.301      7.046
REMARK INTER + INTRA:          -8.840
REMARK INTER:                  -8.270
REMARK INTRA:                  -0.570
REMARK UNBOUND:                -0.592
REMARK  Name = 
REMARK  5 active torsions:
REMARK  status: ('A' for Active; 'I' for Inactive)
REMARK    1  A    between atoms: N_1  and  C_2
REMARK    2  A    between atoms: C_6  and  C_7
REMARK    3  A    between atoms: C_7  and  C_8
REMARK    4  A    between atoms: C_8  and  C_9
REMARK    5  A    between atoms: C_13  and  N_14
REMARK                            x       y       z     vdW  Elec       q    Type
REMARK                         _______ _______ _______ _____ _____    ______ ____
ROOT
ATOM      1  C   UNL     1      45.066   5.608  12.263  0.00  0.00    +0.000 A 
ATOM      2  C   UNL     1      43.927   5.093  12.874  0.00  0.00    +0.000 A 
ATOM      3  N   UNL     1      43.191   4.077  12.380  0.00  0.00    +0.000 NA
ATOM      4  C   UNL     1      43.588   3.567  11.189  0.00  0.00    +0.000 A 
ATOM      5  C   UNL     1      44.692   3.994  10.449  0.00  0.00    +0.000 A 
ATOM      6  C   UNL     1      45.432   5.036  11.035  0.00  0.00    +0.000 A 
ENDROOT
BRANCH   5   7
ATOM      7  N   UNL     1      45.026   3.473   9.217  0.00  0.00    +0.000 N 
ATOM      8  C   UNL     1      45.487   4.307   8.096  0.00  0.00    +0.000 C 
ATOM      9  C   UNL     1      46.628   3.600   7.299  0.00  0.00    +0.000 C 
ATOM     10  N   UNL     1      46.482   2.145   7.061  0.00  0.00    +0.000 NA
ATOM     11  C   UNL     1      46.102   1.482   8.325  0.00  0.00    +0.000 C 
ATOM     12  C   UNL     1      44.797   2.064   8.893  0.00  0.00    +0.000 C 
ATOM     13  H   UNL     1      45.724   2.006   6.394  0.00  0.00    +0.000 HD
ENDBRANCH   5   7
BRANCH   1  14
ATOM     14  C   UNL     1      45.820   6.785  12.845  0.00  0.00    +0.000 C 
BRANCH  14  15
ATOM     15  C   UNL     1      47.303   6.479  13.111  0.00  0.00    +0.000 C 
BRANCH  15  20
ATOM     16  C   UNL     1      47.599   4.359  16.318  0.00  0.00    +0.000 A 
ATOM     17  C   UNL     1      48.731   4.996  16.825  0.00  0.00    +0.000 A 
ATOM     18  N   UNL     1      49.319   6.076  16.267  0.00  0.00    +0.000 NA
ATOM     19  C   UNL     1      48.789   6.507  15.103  0.00  0.00    +0.000 A 
ATOM     20  C   UNL     1      47.701   5.919  14.455  0.00  0.00    +0.000 A 
ATOM     21  C   UNL     1      47.119   4.812  15.082  0.00  0.00    +0.000 A 
BRANCH  16  22
ATOM     22  N   UNL     1      47.117   3.172  16.883  0.00  0.00    +0.000 N 
ATOM     23  H   UNL     1      46.507   3.315  17.681  0.00  0.00    +0.000 HD
ATOM     24  H   UNL     1      46.718   2.523  16.212  0.00  0.00    +0.000 HD
ENDBRANCH  16  22
ENDBRANCH  15  20
ENDBRANCH  14  15
ENDBRANCH   1  14
TORSDOF 5
ENDMDL
MODEL 8
REMARK VINA RESULT:    -6.511      2.146      3.426
REMARK INTER + INTRA:          -8.816
REMARK INTER:                  -8.306
REMARK INTRA:                  -0.511
REMARK UNBOUND:                -0.592
REMARK  Name = 
REMARK  5 active torsions:
REMARK  status: ('A' for Active; 'I' for Inactive)
REMARK    1  A    between atoms: N_1  and  C_2
REMARK    2  A    between atoms: C_6  and  C_7
REMARK    3  A    between atoms: C_7  and  C_8
REMARK    4  A    between atoms: C_8  and  C_9
REMARK    5  A    between atoms: C_13  and  N_14
REMARK                            x       y       z     vdW  Elec       q    Type
REMARK                         _______ _______ _______ _____ _____    ______ ____
ROOT
ATOM      1  C   UNL     1      45.924   5.300  11.652  0.00  0.00    +0.000 A 
ATOM      2  C   UNL     1      46.547   6.450  11.178  0.00  0.00    +0.000 A 
ATOM      3  N   UNL     1      47.465   7.158  11.866  0.00  0.00    +0.000 NA
ATOM      4  C   UNL     1      47.754   6.719  13.115  0.00  0.00    +0.000 A 
ATOM      5  C   UNL     1      47.194   5.600  13.734  0.00  0.00    +0.000 A 
ATOM      6  C   UNL     1      46.266   4.891  12.950  0.00  0.00    +0.000 A 
ENDROOT
BRANCH   5   7
ATOM      7  N   UNL     1      47.486   5.223  15.027  0.00  0.00    +0.000 N 
ATOM      8  C   UNL     1      47.004   3.967  15.621  0.00  0.00    +0.000 C 
ATOM      9  C   UNL     1      48.098   3.313  16.522  0.00  0.00    +0.000 C 
ATOM     10  N   UNL     1      48.895   4.219  17.380  0.00  0.00    +0.000 NA
ATOM     11  C   UNL     1      49.356   5.369  16.577  0.00  0.00    +0.000 C 
ATOM     12  C   UNL     1      48.174   6.127  15.951  0.00  0.00    +0.000 C 
ATOM     13  H   UNL     1      48.288   4.577  18.117  0.00  0.00    +0.000 HD
ENDBRANCH   5   7
BRANCH   1  14
ATOM     14  C   UNL     1      44.861   4.579  10.849  0.00  0.00    +0.000 C 
BRANCH  14  15
ATOM     15  C   UNL     1      45.045   4.735   9.331  0.00  0.00    +0.000 C 
BRANCH  15  20
ATOM     16  C   UNL     1      47.150   2.636   6.875  0.00  0.00    +0.000 A 
ATOM     17  C   UNL     1      46.842   1.392   7.424  0.00  0.00    +0.000 A 
ATOM     18  N   UNL     1      45.964   1.194   8.432  0.00  0.00    +0.000 NA
ATOM     19  C   UNL     1      45.412   2.303   8.966  0.00  0.00    +0.000 A 
ATOM     20  C   UNL     1      45.686   3.609   8.555  0.00  0.00    +0.000 A 
ATOM     21  C   UNL     1      46.590   3.759   7.498  0.00  0.00    +0.000 A 
BRANCH  16  22
ATOM     22  N   UNL     1      48.159   2.778   5.914  0.00  0.00    +0.000 N 
ATOM     23  H   UNL     1      48.948   2.155   6.054  0.00  0.00    +0.000 HD
ATOM     24  H   UNL     1      47.827   2.760   4.955  0.00  0.00    +0.000 HD
ENDBRANCH  16  22
ENDBRANCH  15  20
ENDBRANCH  14  15
ENDBRANCH   1  14
TORSDOF 5
ENDMDL
MODEL 9
REMARK VINA RESULT:    -6.338      3.324      7.290
REMARK INTER + INTRA:          -8.597
REMARK INTER:                  -7.918
REMARK INTRA:                  -0.679
REMARK UNBOUND:                -0.592
REMARK  Name = 
REMARK  5 active torsions:
REMARK  status: ('A' for Active; 'I' for Inactive)
REMARK    1  A    between atoms: N_1  and  C_2
REMARK    2  A    between atoms: C_6  and  C_7
REMARK    3  A    between atoms: C_7  and  C_8
REMARK    4  A    between atoms: C_8  and  C_9
REMARK    5  A    between atoms: C_13  and  N_14
REMARK                            x       y       z     vdW  Elec       q    Type
REMARK                         _______ _______ _______ _____ _____    ______ ____
ROOT
ATOM      1  C   UNL     1      48.015   6.960  12.576  0.00  0.00    +0.000 A 
ATOM      2  C   UNL     1      48.597   6.630  13.795  0.00  0.00    +0.000 A 
ATOM      3  N   UNL     1      48.126   5.685  14.633  0.00  0.00    +0.000 NA
ATOM      4  C   UNL     1      46.986   5.057  14.255  0.00  0.00    +0.000 A 
ATOM      5  C   UNL     1      46.278   5.297  13.077  0.00  0.00    +0.000 A 
ATOM      6  C   UNL     1      46.840   6.273  12.235  0.00  0.00    +0.000 A 
ENDROOT
BRANCH   5   7
ATOM      7  N   UNL     1      45.094   4.664  12.761  0.00  0.00    +0.000 N 
ATOM      8  C   UNL     1      43.775   5.267  13.010  0.00  0.00    +0.000 C 
ATOM      9  C   UNL     1      42.787   4.964  11.841  0.00  0.00    +0.000 C 
ATOM     10  N   UNL     1      42.823   3.600  11.264  0.00  0.00    +0.000 NA
ATOM     11  C   UNL     1      44.226   3.218  11.008  0.00  0.00    +0.000 C 
ATOM     12  C   UNL     1      45.068   3.278  12.293  0.00  0.00    +0.000 C 
ATOM     13  H   UNL     1      42.444   2.952  11.954  0.00  0.00    +0.000 HD
ENDBRANCH   5   7
BRANCH   1  14
ATOM     14  C   UNL     1      48.566   8.069  11.703  0.00  0.00    +0.000 C 
BRANCH  14  15
ATOM     15  C   UNL     1      48.320   9.471  12.281  0.00  0.00    +0.000 C 
BRANCH  15  20
ATOM     16  C   UNL     1      44.726  10.736  11.685  0.00  0.00    +0.000 A 
ATOM     17  C   UNL     1      45.079  11.912  11.025  0.00  0.00    +0.000 A 
ATOM     18  N   UNL     1      46.343  12.257  10.695  0.00  0.00    +0.000 NA
ATOM     19  C   UNL     1      47.315  11.416  11.103  0.00  0.00    +0.000 A 
ATOM     20  C   UNL     1      47.103  10.242  11.829  0.00  0.00    +0.000 A 
ATOM     21  C   UNL     1      45.775   9.922  12.132  0.00  0.00    +0.000 A 
BRANCH  16  22
ATOM     22  N   UNL     1      43.410  10.503  12.102  0.00  0.00    +0.000 N 
ATOM     23  H   UNL     1      43.196  10.882  13.018  0.00  0.00    +0.000 HD
ATOM     24  H   UNL     1      42.705  10.750  11.414  0.00  0.00    +0.000 HD
ENDBRANCH  16  22
ENDBRANCH  15  20
ENDBRANCH  14  15
ENDBRANCH   1  14
TORSDOF 5
ENDMDL
