MODEL 1
REMARK VINA RESULT:    -8.191      0.000      0.000
REMARK INTER + INTRA:         -12.960
REMARK INTER:                 -11.543
REMARK INTRA:                  -1.416
REMARK UNBOUND:                -1.416
REMARK  Name = 
REMARK  7 active torsions:
REMARK  status: ('A' for Active; 'I' for Inactive)
REMARK    1  A    between atoms: C_2  and  C_4
REMARK    2  A    between atoms: C_4  and  N_5
REMARK    3  A    between atoms: C_4  and  C_28
REMARK    4  A    between atoms: C_6  and  C_8
REMARK    5  A    between atoms: C_11  and  C_12
REMARK    6  A    between atoms: C_12  and  N_13
REMARK    7  A    between atoms: C_14  and  C_16
REMARK                            x       y       z     vdW  Elec       q    Type
REMARK                         _______ _______ _______ _____ _____    ______ ____
ROOT
ATOM      1  C   UNL     1      45.901   7.022  12.149  0.00  0.00    +0.000 A 
ATOM      2  C   UNL     1      47.239   6.609  12.172  0.00  0.00    +0.000 A 
ATOM      3  C   UNL     1      48.204   7.386  12.821  0.00  0.00    +0.000 A 
ATOM      4  C   UNL     1      47.842   8.583  13.453  0.00  0.00    +0.000 A 
ATOM      5  C   UNL     1      46.508   9.007  13.398  0.00  0.00    +0.000 A 
ATOM      6  C   UNL     1      45.542   8.233  12.752  0.00  0.00    +0.000 A 
ENDROOT
BRANCH   1   8
ATOM      7  N   UNL     1      45.382   5.002  10.901  0.00  0.00    +0.000 N 
ATOM      8  C   UNL     1      44.901   6.161  11.459  0.00  0.00    +0.000 C 
ATOM      9  O   UNL     1      43.728   6.508  11.379  0.00  0.00    +0.000 OA
ATOM     10  H   UNL     1      46.350   4.738  11.009  0.00  0.00    +0.000 HD
BRANCH   7  11
ATOM     11  C   UNL     1      44.499   4.019  10.295  0.00  0.00    +0.000 C 
BRANCH  11  12
ATOM     12  C   UNL     1      45.231   3.354   9.140  0.00  0.00    +0.000 A 
ATOM     13  C   UNL     1      45.805   4.162   8.144  0.00  0.00    +0.000 A 
ATOM     14  C   UNL     1      46.558   3.596   7.112  0.00  0.00    +0.000 A 
ATOM     15  C   UNL     1      46.747   2.218   7.061  0.00  0.00    +0.000 A 
ATOM     16  C   UNL     1      46.187   1.402   8.042  0.00  0.00    +0.000 A 
ATOM     17  C   UNL     1      45.440   1.966   9.078  0.00  0.00    +0.000 A 
ENDBRANCH  11  12
BRANCH  11  19
ATOM     18  N   UNL     1      44.910   2.753  12.383  0.00  0.00    +0.000 N 
ATOM     19  C   UNL     1      44.022   3.010  11.370  0.00  0.00    +0.000 C 
ATOM     20  O   UNL     1      42.900   2.504  11.396  0.00  0.00    +0.000 OA
ATOM     21  H   UNL     1      44.639   2.067  13.075  0.00  0.00    +0.000 HD
ATOM     22  H   UNL     1      45.881   3.024  12.329  0.00  0.00    +0.000 HD
ENDBRANCH  11  19
ENDBRANCH   7  11
ENDBRANCH   1   8
BRANCH   4  23
ATOM     23  C   UNL     1      48.875   9.438  14.142  0.00  0.00    +0.000 C 
BRANCH  23  24
ATOM     24  N   UNL     1      49.371   8.802  15.335  0.00  0.00    +0.000 N 
ATOM     25  C   UNL     1      48.753   8.928  16.553  0.00  0.00    +0.000 C 
ATOM     26  O   UNL     1      47.729   9.591  16.703  0.00  0.00    +0.000 OA
ATOM     27  H   UNL     1      50.310   8.423  15.290  0.00  0.00    +0.000 HD
BRANCH  25  28
ATOM     28  C   UNL     1      49.336   8.163  17.664  0.00  0.00    +0.000 A 
ATOM     29  C   UNL     1      49.743   8.830  18.813  0.00  0.00    +0.000 A 
ATOM     30  S   UNL     1      50.342   7.799  20.030  0.00  0.00    +0.000 S 
ATOM     31  C   UNL     1      50.127   6.426  19.048  0.00  0.00    +0.000 A 
ATOM     32  N   UNL     1      50.476   5.189  19.494  0.00  0.00    +0.000 NA
ATOM     33  C   UNL     1      50.302   4.244  18.632  0.00  0.00    +0.000 A 
ATOM     34  N   UNL     1      49.801   4.421  17.368  0.00  0.00    +0.000 N 
ATOM     35  C   UNL     1      49.373   5.641  16.900  0.00  0.00    +0.000 A 
ATOM     36  O   UNL     1      48.824   5.744  15.807  0.00  0.00    +0.000 OA
ATOM     37  C   UNL     1      49.585   6.747  17.815  0.00  0.00    +0.000 A 
ATOM     38  H   UNL     1      49.669   3.634  16.751  0.00  0.00    +0.000 HD
ENDBRANCH  25  28
ENDBRANCH  23  24
ENDBRANCH   4  23
TORSDOF 7
ENDMDL
MODEL 2
REMARK VINA RESULT:    -7.846      2.040      2.543
REMARK INTER + INTRA:         -12.473
REMARK INTER:                 -11.244
REMARK INTRA:                  -1.229
REMARK UNBOUND:                -1.416
REMARK  Name = 
REMARK  7 active torsions:
REMARK  status: ('A' for Active; 'I' for Inactive)
REMARK    1  A    between atoms: C_2  and  C_4
REMARK    2  A    between atoms: C_4  and  N_5
REMARK    3  A    between atoms: C_4  and  C_28
REMARK    4  A    between atoms: C_6  and  C_8
REMARK    5  A    between atoms: C_11  and  C_12
REMARK    6  A    between atoms: C_12  and  N_13
REMARK    7  A    between atoms: C_14  and  C_16
REMARK                            x       y       z     vdW  Elec       q    Type
REMARK                         _______ _______ _______ _____ _____    ______ ____
ROOT
ATOM      1  C   UNL     1      46.977   6.587  12.534  0.00  0.00    +0.000 A 
ATOM      2  C   UNL     1      47.776   7.654  12.104  0.00  0.00    +0.000 A 
ATOM      3  C   UNL     1      48.830   8.109  12.903  0.00  0.00    +0.000 A 
ATOM      4  C   UNL     1      49.096   7.504  14.138  0.00  0.00    +0.000 A 
ATOM      5  C   UNL     1      48.272   6.458  14.576  0.00  0.00    +0.000 A 
ATOM      6  C   UNL     1      47.219   6.001  13.781  0.00  0.00    +0.000 A 
ENDROOT
BRANCH   1   8
ATOM      7  N   UNL     1      45.810   4.770  11.419  0.00  0.00    +0.000 N 
ATOM      8  C   UNL     1      45.872   6.122  11.648  0.00  0.00    +0.000 C 
ATOM      9  O   UNL     1      45.100   6.926  11.139  0.00  0.00    +0.000 OA
ATOM     10  H   UNL     1      46.449   4.136  11.875  0.00  0.00    +0.000 HD
BRANCH   7  11
ATOM     11  C   UNL     1      44.721   4.170  10.665  0.00  0.00    +0.000 C 
BRANCH  11  12
ATOM     12  C   UNL     1      45.292   3.531   9.408  0.00  0.00    +0.000 A 
ATOM     13  C   UNL     1      45.800   4.362   8.395  0.00  0.00    +0.000 A 
ATOM     14  C   UNL     1      46.410   3.815   7.263  0.00  0.00    +0.000 A 
ATOM     15  C   UNL     1      46.520   2.434   7.129  0.00  0.00    +0.000 A 
ATOM     16  C   UNL     1      46.024   1.596   8.126  0.00  0.00    +0.000 A 
ATOM     17  C   UNL     1      45.420   2.140   9.261  0.00  0.00    +0.000 A 
ENDBRANCH  11  12
BRANCH  11  19
ATOM     18  N   UNL     1      44.626   2.727  12.674  0.00  0.00    +0.000 N 
ATOM     19  C   UNL     1      43.956   3.164  11.560  0.00  0.00    +0.000 C 
ATOM     20  O   UNL     1      42.793   2.809  11.366  0.00  0.00    +0.000 OA
ATOM     21  H   UNL     1      44.164   2.037  13.253  0.00  0.00    +0.000 HD
ATOM     22  H   UNL     1      45.618   2.871  12.797  0.00  0.00    +0.000 HD
ENDBRANCH  11  19
ENDBRANCH   7  11
ENDBRANCH   1   8
BRANCH   4  23
ATOM     23  C   UNL     1      50.218   7.995  15.016  0.00  0.00    +0.000 C 
BRANCH  23  24
ATOM     24  N   UNL     1      51.013   6.901  15.512  0.00  0.00    +0.000 N 
ATOM     25  C   UNL     1      51.102   6.595  16.845  0.00  0.00    +0.000 C 
ATOM     26  O   UNL     1      50.501   7.234  17.706  0.00  0.00    +0.000 OA
ATOM     27  H   UNL     1      51.672   6.489  14.861  0.00  0.00    +0.000 HD
BRANCH  25  28
ATOM     28  C   UNL     1      51.895   5.407  17.192  0.00  0.00    +0.000 A 
ATOM     29  C   UNL     1      53.262   5.539  17.406  0.00  0.00    +0.000 A 
ATOM     30  S   UNL     1      54.028   4.085  17.856  0.00  0.00    +0.000 S 
ATOM     31  C   UNL     1      52.572   3.215  17.732  0.00  0.00    +0.000 A 
ATOM     32  N   UNL     1      52.537   1.876  17.972  0.00  0.00    +0.000 NA
ATOM     33  C   UNL     1      51.379   1.334  17.798  0.00  0.00    +0.000 A 
ATOM     34  N   UNL     1      50.248   2.010  17.419  0.00  0.00    +0.000 N 
ATOM     35  C   UNL     1      50.222   3.372  17.233  0.00  0.00    +0.000 A 
ATOM     36  O   UNL     1      49.169   3.961  17.005  0.00  0.00    +0.000 OA
ATOM     37  C   UNL     1      51.510   4.027  17.374  0.00  0.00    +0.000 A 
ATOM     38  H   UNL     1      49.367   1.529  17.323  0.00  0.00    +0.000 HD
ENDBRANCH  25  28
ENDBRANCH  23  24
ENDBRANCH   4  23
TORSDOF 7
ENDMDL
MODEL 3
REMARK VINA RESULT:    -7.755      3.206      4.542
REMARK INTER + INTRA:         -12.345
REMARK INTER:                 -11.151
REMARK INTRA:                  -1.194
REMARK UNBOUND:                -1.416
REMARK  Name = 
REMARK  7 active torsions:
REMARK  status: ('A' for Active; 'I' for Inactive)
REMARK    1  A    between atoms: C_2  and  C_4
REMARK    2  A    between atoms: C_4  and  N_5
REMARK    3  A    between atoms: C_4  and  C_28
REMARK    4  A    between atoms: C_6  and  C_8
REMARK    5  A    between atoms: C_11  and  C_12
REMARK    6  A    between atoms: C_12  and  N_13
REMARK    7  A    between atoms: C_14  and  C_16
REMARK                            x       y       z     vdW  Elec       q    Type
REMARK                         _______ _______ _______ _____ _____    ______ ____
ROOT
ATOM      1  C   UNL     1      47.232   5.595  14.052  0.00  0.00    +0.000 A 
ATOM      2  C   UNL     1      48.149   6.485  14.623  0.00  0.00    +0.000 A 
ATOM      3  C   UNL     1      48.746   6.187  15.853  0.00  0.00    +0.000 A 
ATOM      4  C   UNL     1      48.432   4.997  16.523  0.00  0.00    +0.000 A 
ATOM      5  C   UNL     1      47.489   4.126  15.961  0.00  0.00    +0.000 A 
ATOM      6  C   UNL     1      46.892   4.421  14.733  0.00  0.00    +0.000 A 
ENDROOT
BRANCH   1   8
ATOM      7  N   UNL     1      45.381   5.424  12.486  0.00  0.00    +0.000 N 
ATOM      8  C   UNL     1      46.628   5.941  12.735  0.00  0.00    +0.000 C 
ATOM      9  O   UNL     1      47.247   6.622  11.924  0.00  0.00    +0.000 OA
ATOM     10  H   UNL     1      44.893   4.888  13.187  0.00  0.00    +0.000 HD
BRANCH   7  11
ATOM     11  C   UNL     1      44.632   5.772  11.289  0.00  0.00    +0.000 C 
BRANCH  11  12
ATOM     12  C   UNL     1      44.805   4.660  10.266  0.00  0.00    +0.000 A 
ATOM     13  C   UNL     1      45.523   4.926   9.088  0.00  0.00    +0.000 A 
ATOM     14  C   UNL     1      45.778   3.911   8.163  0.00  0.00    +0.000 A 
ATOM     15  C   UNL     1      45.319   2.618   8.401  0.00  0.00    +0.000 A 
ATOM     16  C   UNL     1      44.607   2.337   9.566  0.00  0.00    +0.000 A 
ATOM     17  C   UNL     1      44.357   3.348  10.495  0.00  0.00    +0.000 A 
ENDBRANCH  11  12
BRANCH  11  19
ATOM     18  N   UNL     1      42.507   6.983  10.906  0.00  0.00    +0.000 N 
ATOM     19  C   UNL     1      43.149   6.031  11.656  0.00  0.00    +0.000 C 
ATOM     20  O   UNL     1      42.524   5.396  12.505  0.00  0.00    +0.000 OA
ATOM     21  H   UNL     1      41.551   7.201  11.152  0.00  0.00    +0.000 HD
ATOM     22  H   UNL     1      43.008   7.624  10.307  0.00  0.00    +0.000 HD
ENDBRANCH  11  19
ENDBRANCH   7  11
ENDBRANCH   1   8
BRANCH   4  23
ATOM     23  C   UNL     1      49.055   4.671  17.856  0.00  0.00    +0.000 C 
BRANCH  23  24
ATOM     24  N   UNL     1      50.409   4.204  17.702  0.00  0.00    +0.000 N 
ATOM     25  C   UNL     1      51.306   4.180  18.738  0.00  0.00    +0.000 C 
ATOM     26  O   UNL     1      51.009   4.552  19.871  0.00  0.00    +0.000 OA
ATOM     27  H   UNL     1      50.742   4.086  16.752  0.00  0.00    +0.000 HD
BRANCH  25  28
ATOM     28  C   UNL     1      52.629   3.611  18.445  0.00  0.00    +0.000 A 
ATOM     29  C   UNL     1      53.766   4.373  18.680  0.00  0.00    +0.000 A 
ATOM     30  S   UNL     1      55.222   3.552  18.345  0.00  0.00    +0.000 S 
ATOM     31  C   UNL     1      54.385   2.165  17.826  0.00  0.00    +0.000 A 
ATOM     32  N   UNL     1      55.059   1.073  17.374  0.00  0.00    +0.000 NA
ATOM     33  C   UNL     1      54.301   0.110  16.969  0.00  0.00    +0.000 A 
ATOM     34  N   UNL     1      52.930   0.134  16.986  0.00  0.00    +0.000 N 
ATOM     35  C   UNL     1      52.209   1.188  17.497  0.00  0.00    +0.000 A 
ATOM     36  O   UNL     1      50.988   1.130  17.601  0.00  0.00    +0.000 OA
ATOM     37  C   UNL     1      53.013   2.318  17.926  0.00  0.00    +0.000 A 
ATOM     38  H   UNL     1      52.396  -0.663  16.676  0.00  0.00    +0.000 HD
ENDBRANCH  25  28
ENDBRANCH  23  24
ENDBRANCH   4  23
TORSDOF 7
ENDMDL
MODEL 4
REMARK VINA RESULT:    -7.324      2.875      4.288
REMARK INTER + INTRA:         -11.737
REMARK INTER:                 -10.568
REMARK INTRA:                  -1.169
REMARK UNBOUND:                -1.416
REMARK  Name = 
REMARK  7 active torsions:
REMARK  status: ('A' for Active; 'I' for Inactive)
REMARK    1  A    between atoms: C_2  and  C_4
REMARK    2  A    between atoms: C_4  and  N_5
REMARK    3  A    between atoms: C_4  and  C_28
REMARK    4  A    between atoms: C_6  and  C_8
REMARK    5  A    between atoms: C_11  and  C_12
REMARK    6  A    between atoms: C_12  and  N_13
REMARK    7  A    between atoms: C_14  and  C_16
REMARK                            x       y       z     vdW  Elec       q    Type
REMARK                         _______ _______ _______ _____ _____    ______ ____
ROOT
ATOM      1  C   UNL     1      47.113   5.232  14.054  0.00  0.00    +0.000 A 
ATOM      2  C   UNL     1      47.779   6.137  14.890  0.00  0.00    +0.000 A 
ATOM      3  C   UNL     1      48.250   5.723  16.140  0.00  0.00    +0.000 A 
ATOM      4  C   UNL     1      48.062   4.401  16.567  0.00  0.00    +0.000 A 
ATOM      5  C   UNL     1      47.366   3.510  15.738  0.00  0.00    +0.000 A 
ATOM      6  C   UNL     1      46.894   3.920  14.490  0.00  0.00    +0.000 A 
ENDROOT
BRANCH   1   8
ATOM      7  N   UNL     1      45.462   5.161  12.271  0.00  0.00    +0.000 N 
ATOM      8  C   UNL     1      46.637   5.708  12.725  0.00  0.00    +0.000 C 
ATOM      9  O   UNL     1      47.296   6.515  12.078  0.00  0.00    +0.000 OA
ATOM     10  H   UNL     1      44.935   4.518  12.843  0.00  0.00    +0.000 HD
BRANCH   7  11
ATOM     11  C   UNL     1      44.829   5.615  11.044  0.00  0.00    +0.000 C 
BRANCH  11  12
ATOM     12  C   UNL     1      45.093   4.590   9.952  0.00  0.00    +0.000 A 
ATOM     13  C   UNL     1      45.798   4.988   8.803  0.00  0.00    +0.000 A 
ATOM     14  C   UNL     1      46.136   4.058   7.816  0.00  0.00    +0.000 A 
ATOM     15  C   UNL     1      45.774   2.722   7.963  0.00  0.00    +0.000 A 
ATOM     16  C   UNL     1      45.076   2.311   9.097  0.00  0.00    +0.000 A 
ATOM     17  C   UNL     1      44.744   3.236  10.088  0.00  0.00    +0.000 A 
ENDBRANCH  11  12
BRANCH  11  19
ATOM     18  N   UNL     1      42.877   7.137  11.064  0.00  0.00    +0.000 N 
ATOM     19  C   UNL     1      43.320   5.860  11.292  0.00  0.00    +0.000 C 
ATOM     20  O   UNL     1      42.517   4.979  11.600  0.00  0.00    +0.000 OA
ATOM     21  H   UNL     1      41.904   7.333  11.259  0.00  0.00    +0.000 HD
ATOM     22  H   UNL     1      43.512   7.916  10.955  0.00  0.00    +0.000 HD
ENDBRANCH  11  19
ENDBRANCH   7  11
ENDBRANCH   1   8
BRANCH   4  23
ATOM     23  C   UNL     1      48.550   3.946  17.918  0.00  0.00    +0.000 C 
BRANCH  23  24
ATOM     24  N   UNL     1      49.951   4.233  18.092  0.00  0.00    +0.000 N 
ATOM     25  C   UNL     1      50.940   3.427  17.590  0.00  0.00    +0.000 C 
ATOM     26  O   UNL     1      50.692   2.407  16.951  0.00  0.00    +0.000 OA
ATOM     27  H   UNL     1      50.186   4.942  18.778  0.00  0.00    +0.000 HD
BRANCH  25  28
ATOM     28  C   UNL     1      52.322   3.887  17.788  0.00  0.00    +0.000 A 
ATOM     29  C   UNL     1      53.212   3.088  18.495  0.00  0.00    +0.000 A 
ATOM     30  S   UNL     1      54.787   3.732  18.587  0.00  0.00    +0.000 S 
ATOM     31  C   UNL     1      54.326   5.127  17.729  0.00  0.00    +0.000 A 
ATOM     32  N   UNL     1      55.222   6.119  17.478  0.00  0.00    +0.000 NA
ATOM     33  C   UNL     1      54.728   7.138  16.859  0.00  0.00    +0.000 A 
ATOM     34  N   UNL     1      53.423   7.251  16.455  0.00  0.00    +0.000 N 
ATOM     35  C   UNL     1      52.501   6.246  16.626  0.00  0.00    +0.000 A 
ATOM     36  O   UNL     1      51.371   6.333  16.153  0.00  0.00    +0.000 OA
ATOM     37  C   UNL     1      52.993   5.092  17.357  0.00  0.00    +0.000 A 
ATOM     38  H   UNL     1      53.106   8.067  15.954  0.00  0.00    +0.000 HD
ENDBRANCH  25  28
ENDBRANCH  23  24
ENDBRANCH   4  23
TORSDOF 7
ENDMDL
MODEL 5
REMARK VINA RESULT:    -7.260      3.940      4.788
REMARK INTER + INTRA:         -11.647
REMARK INTER:                 -10.644
REMARK INTRA:                  -1.003
REMARK UNBOUND:                -1.416
REMARK  Name = 
REMARK  7 active torsions:
REMARK  status: ('A' for Active; 'I' for Inactive)
REMARK    1  A    between atoms: C_2  and  C_4
REMARK    2  A    between atoms: C_4  and  N_5
REMARK    3  A    between atoms: C_4  and  C_28
REMARK    4  A    between atoms: C_6  and  C_8
REMARK    5  A    between atoms: C_11  and  C_12
REMARK    6  A    between atoms: C_12  and  N_13
REMARK    7  A    between atoms: C_14  and  C_16
REMARK                            x       y       z     vdW  Elec       q    Type
REMARK                         _______ _______ _______ _____ _____    ______ ____
ROOT
ATOM      1  C   UNL     1      45.655   7.141  11.725  0.00  0.00    +0.000 A 
ATOM      2  C   UNL     1      47.028   6.870  11.775  0.00  0.00    +0.000 A 
ATOM      3  C   UNL     1      47.910   7.806  12.325  0.00  0.00    +0.000 A 
ATOM      4  C   UNL     1      47.430   9.022  12.828  0.00  0.00    +0.000 A 
ATOM      5  C   UNL     1      46.059   9.300  12.745  0.00  0.00    +0.000 A 
ATOM      6  C   UNL     1      45.175   8.368  12.198  0.00  0.00    +0.000 A 
ENDROOT
BRANCH   1   8
ATOM      7  N   UNL     1      45.353   5.073  10.484  0.00  0.00    +0.000 N 
ATOM      8  C   UNL     1      44.747   6.113  11.145  0.00  0.00    +0.000 C 
ATOM      9  O   UNL     1      43.530   6.232  11.237  0.00  0.00    +0.000 OA
ATOM     10  H   UNL     1      46.358   4.996  10.450  0.00  0.00    +0.000 HD
BRANCH   7  11
ATOM     11  C   UNL     1      44.593   3.947   9.966  0.00  0.00    +0.000 C 
BRANCH  11  12
ATOM     12  C   UNL     1      45.423   3.248   8.901  0.00  0.00    +0.000 A 
ATOM     13  C   UNL     1      45.524   1.846   8.929  0.00  0.00    +0.000 A 
ATOM     14  C   UNL     1      46.206   1.160   7.921  0.00  0.00    +0.000 A 
ATOM     15  C   UNL     1      46.795   1.862   6.874  0.00  0.00    +0.000 A 
ATOM     16  C   UNL     1      46.702   3.252   6.830  0.00  0.00    +0.000 A 
ATOM     17  C   UNL     1      46.016   3.940   7.832  0.00  0.00    +0.000 A 
ENDBRANCH  11  12
BRANCH  11  19
ATOM     18  N   UNL     1      45.155   2.780  12.076  0.00  0.00    +0.000 N 
ATOM     19  C   UNL     1      44.188   3.008  11.130  0.00  0.00    +0.000 C 
ATOM     20  O   UNL     1      43.061   2.536  11.279  0.00  0.00    +0.000 OA
ATOM     21  H   UNL     1      44.929   2.137  12.824  0.00  0.00    +0.000 HD
ATOM     22  H   UNL     1      46.124   3.021  11.924  0.00  0.00    +0.000 HD
ENDBRANCH  11  19
ENDBRANCH   7  11
ENDBRANCH   1   8
BRANCH   4  23
ATOM     23  C   UNL     1      48.371  10.047  13.408  0.00  0.00    +0.000 C 
BRANCH  23  24
ATOM     24  N   UNL     1      49.732   9.788  13.018  0.00  0.00    +0.000 N 
ATOM     25  C   UNL     1      50.382  10.526  12.062  0.00  0.00    +0.000 C 
ATOM     26  O   UNL     1      49.841  11.463  11.478  0.00  0.00    +0.000 OA
ATOM     27  H   UNL     1      50.133   8.909  13.326  0.00  0.00    +0.000 HD
BRANCH  25  28
ATOM     28  C   UNL     1      51.792  10.189  11.822  0.00  0.00    +0.000 A 
ATOM     29  C   UNL     1      52.774  11.133  12.094  0.00  0.00    +0.000 A 
ATOM     30  S   UNL     1      54.360  10.571  11.820  0.00  0.00    +0.000 S 
ATOM     31  C   UNL     1      53.790   9.062  11.278  0.00  0.00    +0.000 A 
ATOM     32  N   UNL     1      54.655   8.100  10.858  0.00  0.00    +0.000 NA
ATOM     33  C   UNL     1      54.087   7.022  10.432  0.00  0.00    +0.000 A 
ATOM     34  N   UNL     1      52.732   6.814  10.397  0.00  0.00    +0.000 N 
ATOM     35  C   UNL     1      51.825   7.731  10.873  0.00  0.00    +0.000 A 
ATOM     36  O   UNL     1      50.627   7.467  10.932  0.00  0.00    +0.000 OA
ATOM     37  C   UNL     1      52.409   8.980  11.326  0.00  0.00    +0.000 A 
ATOM     38  H   UNL     1      52.353   5.938  10.072  0.00  0.00    +0.000 HD
ENDBRANCH  25  28
ENDBRANCH  23  24
ENDBRANCH   4  23
TORSDOF 7
ENDMDL
MODEL 6
REMARK VINA RESULT:    -7.173      2.242      2.708
REMARK INTER + INTRA:         -11.524
REMARK INTER:                 -11.027
REMARK INTRA:                  -0.498
REMARK UNBOUND:                -1.416
REMARK  Name = 
REMARK  7 active torsions:
REMARK  status: ('A' for Active; 'I' for Inactive)
REMARK    1  A    between atoms: C_2  and  C_4
REMARK    2  A    between atoms: C_4  and  N_5
REMARK    3  A    between atoms: C_4  and  C_28
REMARK    4  A    between atoms: C_6  and  C_8
REMARK    5  A    between atoms: C_11  and  C_12
REMARK    6  A    between atoms: C_12  and  N_13
REMARK    7  A    between atoms: C_14  and  C_16
REMARK                            x       y       z     vdW  Elec       q    Type
REMARK                         _______ _______ _______ _____ _____    ______ ____
ROOT
ATOM      1  C   UNL     1      46.329   7.033  12.598  0.00  0.00    +0.000 A 
ATOM      2  C   UNL     1      47.311   6.099  12.951  0.00  0.00    +0.000 A 
ATOM      3  C   UNL     1      48.312   6.442  13.865  0.00  0.00    +0.000 A 
ATOM      4  C   UNL     1      48.343   7.722  14.435  0.00  0.00    +0.000 A 
ATOM      5  C   UNL     1      47.377   8.663  14.052  0.00  0.00    +0.000 A 
ATOM      6  C   UNL     1      46.376   8.323  13.140  0.00  0.00    +0.000 A 
ENDROOT
BRANCH   1   8
ATOM      7  N   UNL     1      45.383   5.359  11.112  0.00  0.00    +0.000 N 
ATOM      8  C   UNL     1      45.272   6.625  11.631  0.00  0.00    +0.000 C 
ATOM      9  O   UNL     1      44.385   7.408  11.310  0.00  0.00    +0.000 OA
ATOM     10  H   UNL     1      46.114   4.735  11.419  0.00  0.00    +0.000 HD
BRANCH   7  11
ATOM     11  C   UNL     1      44.362   4.794  10.244  0.00  0.00    +0.000 C 
BRANCH  11  12
ATOM     12  C   UNL     1      45.031   3.856   9.252  0.00  0.00    +0.000 A 
ATOM     13  C   UNL     1      45.763   4.405   8.185  0.00  0.00    +0.000 A 
ATOM     14  C   UNL     1      46.463   3.581   7.301  0.00  0.00    +0.000 A 
ATOM     15  C   UNL     1      46.440   2.199   7.469  0.00  0.00    +0.000 A 
ATOM     16  C   UNL     1      45.721   1.639   8.523  0.00  0.00    +0.000 A 
ATOM     17  C   UNL     1      45.027   2.461   9.412  0.00  0.00    +0.000 A 
ENDBRANCH  11  12
BRANCH  11  19
ATOM     18  N   UNL     1      42.366   4.926  11.703  0.00  0.00    +0.000 N 
ATOM     19  C   UNL     1      43.276   4.096  11.099  0.00  0.00    +0.000 C 
ATOM     20  O   UNL     1      43.151   2.875  11.199  0.00  0.00    +0.000 OA
ATOM     21  H   UNL     1      41.672   4.497  12.300  0.00  0.00    +0.000 HD
ATOM     22  H   UNL     1      42.510   5.923  11.771  0.00  0.00    +0.000 HD
ENDBRANCH  11  19
ENDBRANCH   7  11
ENDBRANCH   1   8
BRANCH   4  23
ATOM     23  C   UNL     1      49.426   8.111  15.409  0.00  0.00    +0.000 C 
BRANCH  23  24
ATOM     24  N   UNL     1      50.159   6.959  15.865  0.00  0.00    +0.000 N 
ATOM     25  C   UNL     1      49.836   6.283  17.014  0.00  0.00    +0.000 C 
ATOM     26  O   UNL     1      48.893   6.617  17.727  0.00  0.00    +0.000 OA
ATOM     27  H   UNL     1      51.052   6.784  15.418  0.00  0.00    +0.000 HD
BRANCH  25  28
ATOM     28  C   UNL     1      50.632   5.084  17.312  0.00  0.00    +0.000 A 
ATOM     29  C   UNL     1      50.010   3.842  17.339  0.00  0.00    +0.000 A 
ATOM     30  S   UNL     1      51.076   2.547  17.641  0.00  0.00    +0.000 S 
ATOM     31  C   UNL     1      52.401   3.604  17.798  0.00  0.00    +0.000 A 
ATOM     32  N   UNL     1      53.642   3.127  18.087  0.00  0.00    +0.000 NA
ATOM     33  C   UNL     1      54.544   4.039  18.222  0.00  0.00    +0.000 A 
ATOM     34  N   UNL     1      54.322   5.385  18.082  0.00  0.00    +0.000 N 
ATOM     35  C   UNL     1      53.102   5.906  17.723  0.00  0.00    +0.000 A 
ATOM     36  O   UNL     1      52.965   7.104  17.496  0.00  0.00    +0.000 OA
ATOM     37  C   UNL     1      52.039   4.925  17.601  0.00  0.00    +0.000 A 
ATOM     38  H   UNL     1      55.079   6.045  18.179  0.00  0.00    +0.000 HD
ENDBRANCH  25  28
ENDBRANCH  23  24
ENDBRANCH   4  23
TORSDOF 7
ENDMDL
MODEL 7
REMARK VINA RESULT:    -6.908      1.986      2.668
REMARK INTER + INTRA:         -11.151
REMARK INTER:                 -10.518
REMARK INTRA:                  -0.633
REMARK UNBOUND:                -1.416
REMARK  Name = 
REMARK  7 active torsions:
REMARK  status: ('A' for Active; 'I' for Inactive)
REMARK    1  A    between atoms: C_2  and  C_4
REMARK    2  A    between atoms: C_4  and  N_5
REMARK    3  A    between atoms: C_4  and  C_28
REMARK    4  A    between atoms: C_6  and  C_8
REMARK    5  A    between atoms: C_11  and  C_12
REMARK    6  A    between atoms: C_12  and  N_13
REMARK    7  A    between atoms: C_14  and  C_16
REMARK                            x       y       z     vdW  Elec       q    Type
REMARK                         _______ _______ _______ _____ _____    ______ ____
ROOT
ATOM      1  C   UNL     1      46.128   5.885  11.991  0.00  0.00    +0.000 A 
ATOM      2  C   UNL     1      46.484   5.143  13.124  0.00  0.00    +0.000 A 
ATOM      3  C   UNL     1      47.354   5.685  14.075  0.00  0.00    +0.000 A 
ATOM      4  C   UNL     1      47.877   6.974  13.904  0.00  0.00    +0.000 A 
ATOM      5  C   UNL     1      47.542   7.698  12.752  0.00  0.00    +0.000 A 
ATOM      6  C   UNL     1      46.673   7.160  11.801  0.00  0.00    +0.000 A 
ENDROOT
BRANCH   1   8
ATOM      7  N   UNL     1      45.676   4.223  10.276  0.00  0.00    +0.000 N 
ATOM      8  C   UNL     1      45.188   5.278  11.008  0.00  0.00    +0.000 C 
ATOM      9  O   UNL     1      44.062   5.736  10.856  0.00  0.00    +0.000 OA
ATOM     10  H   UNL     1      46.601   3.858  10.446  0.00  0.00    +0.000 HD
BRANCH   7  11
ATOM     11  C   UNL     1      44.833   3.469   9.362  0.00  0.00    +0.000 C 
BRANCH  11  12
ATOM     12  C   UNL     1      45.703   2.909   8.248  0.00  0.00    +0.000 A 
ATOM     13  C   UNL     1      46.081   3.755   7.191  0.00  0.00    +0.000 A 
ATOM     14  C   UNL     1      46.948   3.304   6.192  0.00  0.00    +0.000 A 
ATOM     15  C   UNL     1      47.448   2.006   6.235  0.00  0.00    +0.000 A 
ATOM     16  C   UNL     1      47.085   1.156   7.278  0.00  0.00    +0.000 A 
ATOM     17  C   UNL     1      46.224   1.605   8.280  0.00  0.00    +0.000 A 
ENDBRANCH  11  12
BRANCH  11  19
ATOM     18  N   UNL     1      43.841   2.629  11.469  0.00  0.00    +0.000 N 
ATOM     19  C   UNL     1      44.066   2.372  10.141  0.00  0.00    +0.000 C 
ATOM     20  O   UNL     1      43.604   1.353   9.627  0.00  0.00    +0.000 OA
ATOM     21  H   UNL     1      43.379   1.910  12.009  0.00  0.00    +0.000 HD
ATOM     22  H   UNL     1      44.320   3.369  11.962  0.00  0.00    +0.000 HD
ENDBRANCH  11  19
ENDBRANCH   7  11
ENDBRANCH   1   8
BRANCH   4  23
ATOM     23  C   UNL     1      48.828   7.564  14.913  0.00  0.00    +0.000 C 
BRANCH  23  24
ATOM     24  N   UNL     1      48.547   7.086  16.242  0.00  0.00    +0.000 N 
ATOM     25  C   UNL     1      49.519   6.591  17.073  0.00  0.00    +0.000 C 
ATOM     26  O   UNL     1      50.699   6.529  16.735  0.00  0.00    +0.000 OA
ATOM     27  H   UNL     1      47.571   6.934  16.472  0.00  0.00    +0.000 HD
BRANCH  25  28
ATOM     28  C   UNL     1      49.090   6.207  18.425  0.00  0.00    +0.000 A 
ATOM     29  C   UNL     1      49.291   4.902  18.859  0.00  0.00    +0.000 A 
ATOM     30  S   UNL     1      48.795   4.631  20.467  0.00  0.00    +0.000 S 
ATOM     31  C   UNL     1      48.247   6.234  20.626  0.00  0.00    +0.000 A 
ATOM     32  N   UNL     1      47.675   6.662  21.783  0.00  0.00    +0.000 NA
ATOM     33  C   UNL     1      47.264   7.885  21.752  0.00  0.00    +0.000 A 
ATOM     34  N   UNL     1      47.384   8.723  20.674  0.00  0.00    +0.000 N 
ATOM     35  C   UNL     1      48.016   8.354  19.510  0.00  0.00    +0.000 A 
ATOM     36  O   UNL     1      48.207   9.164  18.607  0.00  0.00    +0.000 OA
ATOM     37  C   UNL     1      48.460   6.973  19.475  0.00  0.00    +0.000 A 
ATOM     38  H   UNL     1      47.062   9.678  20.724  0.00  0.00    +0.000 HD
ENDBRANCH  25  28
ENDBRANCH  23  24
ENDBRANCH   4  23
TORSDOF 7
ENDMDL
MODEL 8
REMARK VINA RESULT:    -6.694      2.662      3.976
REMARK INTER + INTRA:         -10.849
REMARK INTER:                  -9.668
REMARK INTRA:                  -1.181
REMARK UNBOUND:                -1.416
REMARK  Name = 
REMARK  7 active torsions:
REMARK  status: ('A' for Active; 'I' for Inactive)
REMARK    1  A    between atoms: C_2  and  C_4
REMARK    2  A    between atoms: C_4  and  N_5
REMARK    3  A    between atoms: C_4  and  C_28
REMARK    4  A    between atoms: C_6  and  C_8
REMARK    5  A    between atoms: C_11  and  C_12
REMARK    6  A    between atoms: C_12  and  N_13
REMARK    7  A    between atoms: C_14  and  C_16
REMARK                            x       y       z     vdW  Elec       q    Type
REMARK                         _______ _______ _______ _____ _____    ______ ____
ROOT
ATOM      1  C   UNL     1      47.169   5.025  14.129  0.00  0.00    +0.000 A 
ATOM      2  C   UNL     1      47.789   5.914  15.015  0.00  0.00    +0.000 A 
ATOM      3  C   UNL     1      48.279   5.456  16.242  0.00  0.00    +0.000 A 
ATOM      4  C   UNL     1      48.156   4.106  16.596  0.00  0.00    +0.000 A 
ATOM      5  C   UNL     1      47.506   3.228  15.718  0.00  0.00    +0.000 A 
ATOM      6  C   UNL     1      47.016   3.682  14.492  0.00  0.00    +0.000 A 
ENDROOT
BRANCH   1   8
ATOM      7  N   UNL     1      45.497   5.008  12.365  0.00  0.00    +0.000 N 
ATOM      8  C   UNL     1      46.672   5.548  12.826  0.00  0.00    +0.000 C 
ATOM      9  O   UNL     1      47.314   6.388  12.204  0.00  0.00    +0.000 OA
ATOM     10  H   UNL     1      44.984   4.336  12.916  0.00  0.00    +0.000 HD
BRANCH   7  11
ATOM     11  C   UNL     1      44.844   5.504  11.165  0.00  0.00    +0.000 C 
BRANCH  11  12
ATOM     12  C   UNL     1      45.059   4.499  10.043  0.00  0.00    +0.000 A 
ATOM     13  C   UNL     1      45.727   4.914   8.879  0.00  0.00    +0.000 A 
ATOM     14  C   UNL     1      46.020   4.002   7.861  0.00  0.00    +0.000 A 
ATOM     15  C   UNL     1      45.650   2.667   7.993  0.00  0.00    +0.000 A 
ATOM     16  C   UNL     1      44.988   2.239   9.142  0.00  0.00    +0.000 A 
ATOM     17  C   UNL     1      44.700   3.146  10.163  0.00  0.00    +0.000 A 
ENDBRANCH  11  12
BRANCH  11  19
ATOM     18  N   UNL     1      42.869   6.991  11.044  0.00  0.00    +0.000 N 
ATOM     19  C   UNL     1      43.347   5.773  11.456  0.00  0.00    +0.000 C 
ATOM     20  O   UNL     1      42.578   4.950  11.954  0.00  0.00    +0.000 OA
ATOM     21  H   UNL     1      41.905   7.208  11.259  0.00  0.00    +0.000 HD
ATOM     22  H   UNL     1      43.482   7.745  10.768  0.00  0.00    +0.000 HD
ENDBRANCH  11  19
ENDBRANCH   7  11
ENDBRANCH   1   8
BRANCH   4  23
ATOM     23  C   UNL     1      48.665   3.603  17.922  0.00  0.00    +0.000 C 
BRANCH  23  24
ATOM     24  N   UNL     1      49.627   4.510  18.493  0.00  0.00    +0.000 N 
ATOM     25  C   UNL     1      49.616   4.862  19.818  0.00  0.00    +0.000 C 
ATOM     26  O   UNL     1      48.784   4.420  20.607  0.00  0.00    +0.000 OA
ATOM     27  H   UNL     1      50.190   5.043  17.840  0.00  0.00    +0.000 HD
BRANCH  25  28
ATOM     28  C   UNL     1      50.703   5.742  20.270  0.00  0.00    +0.000 A 
ATOM     29  C   UNL     1      50.395   6.914  20.949  0.00  0.00    +0.000 A 
ATOM     30  S   UNL     1      51.764   7.793  21.456  0.00  0.00    +0.000 S 
ATOM     31  C   UNL     1      52.820   6.666  20.742  0.00  0.00    +0.000 A 
ATOM     32  N   UNL     1      54.168   6.844  20.794  0.00  0.00    +0.000 NA
ATOM     33  C   UNL     1      54.848   5.939  20.174  0.00  0.00    +0.000 A 
ATOM     34  N   UNL     1      54.305   4.866  19.517  0.00  0.00    +0.000 N 
ATOM     35  C   UNL     1      52.954   4.610  19.497  0.00  0.00    +0.000 A 
ATOM     36  O   UNL     1      52.510   3.580  18.997  0.00  0.00    +0.000 OA
ATOM     37  C   UNL     1      52.138   5.621  20.143  0.00  0.00    +0.000 A 
ATOM     38  H   UNL     1      54.896   4.181  19.071  0.00  0.00    +0.000 HD
ENDBRANCH  25  28
ENDBRANCH  23  24
ENDBRANCH   4  23
TORSDOF 7
ENDMDL
MODEL 9
REMARK VINA RESULT:    -6.437      2.262      2.888
REMARK INTER + INTRA:         -10.488
REMARK INTER:                 -10.796
REMARK INTRA:                   0.308
REMARK UNBOUND:                -1.416
REMARK  Name = 
REMARK  7 active torsions:
REMARK  status: ('A' for Active; 'I' for Inactive)
REMARK    1  A    between atoms: C_2  and  C_4
REMARK    2  A    between atoms: C_4  and  N_5
REMARK    3  A    between atoms: C_4  and  C_28
REMARK    4  A    between atoms: C_6  and  C_8
REMARK    5  A    between atoms: C_11  and  C_12
REMARK    6  A    between atoms: C_12  and  N_13
REMARK    7  A    between atoms: C_14  and  C_16
REMARK                            x       y       z     vdW  Elec       q    Type
REMARK                         _______ _______ _______ _____ _____    ______ ____
ROOT
ATOM      1  C   UNL     1      46.152   6.981  11.760  0.00  0.00    +0.000 A 
ATOM      2  C   UNL     1      47.550   7.044  11.727  0.00  0.00    +0.000 A 
ATOM      3  C   UNL     1      48.209   8.234  12.054  0.00  0.00    +0.000 A 
ATOM      4  C   UNL     1      47.476   9.373  12.417  0.00  0.00    +0.000 A 
ATOM      5  C   UNL     1      46.076   9.311  12.416  0.00  0.00    +0.000 A 
ATOM      6  C   UNL     1      45.416   8.125  12.091  0.00  0.00    +0.000 A 
ENDROOT
BRANCH   1   8
ATOM      7  N   UNL     1      44.532   5.745  10.435  0.00  0.00    +0.000 N 
ATOM      8  C   UNL     1      45.489   5.692  11.419  0.00  0.00    +0.000 C 
ATOM      9  O   UNL     1      45.774   4.664  12.022  0.00  0.00    +0.000 OA
ATOM     10  H   UNL     1      44.341   6.606   9.944  0.00  0.00    +0.000 HD
BRANCH   7  11
ATOM     11  C   UNL     1      43.886   4.546   9.928  0.00  0.00    +0.000 C 
BRANCH  11  12
ATOM     12  C   UNL     1      44.899   3.753   9.117  0.00  0.00    +0.000 A 
ATOM     13  C   UNL     1      44.948   2.357   9.269  0.00  0.00    +0.000 A 
ATOM     14  C   UNL     1      45.804   1.583   8.482  0.00  0.00    +0.000 A 
ATOM     15  C   UNL     1      46.622   2.192   7.534  0.00  0.00    +0.000 A 
ATOM     16  C   UNL     1      46.584   3.575   7.369  0.00  0.00    +0.000 A 
ATOM     17  C   UNL     1      45.724   4.350   8.149  0.00  0.00    +0.000 A 
ENDBRANCH  11  12
BRANCH  11  19
ATOM     18  N   UNL     1      42.620   4.468  12.054  0.00  0.00    +0.000 N 
ATOM     19  C   UNL     1      43.286   3.736  11.104  0.00  0.00    +0.000 C 
ATOM     20  O   UNL     1      43.315   2.508  11.186  0.00  0.00    +0.000 OA
ATOM     21  H   UNL     1      42.255   3.968  12.853  0.00  0.00    +0.000 HD
ATOM     22  H   UNL     1      42.694   5.474  12.108  0.00  0.00    +0.000 HD
ENDBRANCH  11  19
ENDBRANCH   7  11
ENDBRANCH   1   8
BRANCH   4  23
ATOM     23  C   UNL     1      48.172  10.666  12.756  0.00  0.00    +0.000 C 
BRANCH  23  24
ATOM     24  N   UNL     1      48.330  10.819  14.179  0.00  0.00    +0.000 N 
ATOM     25  C   UNL     1      49.542  11.074  14.766  0.00  0.00    +0.000 C 
ATOM     26  O   UNL     1      50.575  11.193  14.112  0.00  0.00    +0.000 OA
ATOM     27  H   UNL     1      47.548  10.528  14.755  0.00  0.00    +0.000 HD
BRANCH  25  28
ATOM     28  C   UNL     1      49.533  11.276  16.222  0.00  0.00    +0.000 A 
ATOM     29  C   UNL     1      49.956  12.492  16.744  0.00  0.00    +0.000 A 
ATOM     30  S   UNL     1      49.831  12.590  18.441  0.00  0.00    +0.000 S 
ATOM     31  C   UNL     1      49.255  10.993  18.546  0.00  0.00    +0.000 A 
ATOM     32  N   UNL     1      48.967  10.433  19.752  0.00  0.00    +0.000 NA
ATOM     33  C   UNL     1      48.583   9.203  19.690  0.00  0.00    +0.000 A 
ATOM     34  N   UNL     1      48.448   8.484  18.530  0.00  0.00    +0.000 N 
ATOM     35  C   UNL     1      48.662   9.028  17.286  0.00  0.00    +0.000 A 
ATOM     36  O   UNL     1      48.423   8.391  16.265  0.00  0.00    +0.000 OA
ATOM     37  C   UNL     1      49.139  10.399  17.301  0.00  0.00    +0.000 A 
ATOM     38  H   UNL     1      48.120   7.530  18.550  0.00  0.00    +0.000 HD
ENDBRANCH  25  28
ENDBRANCH  23  24
ENDBRANCH   4  23
TORSDOF 7
ENDMDL
