MODEL 1
REMARK VINA RESULT:    -8.047      0.000      0.000
REMARK INTER + INTRA:         -11.677
REMARK INTER:                 -11.340
REMARK INTRA:                  -0.336
REMARK UNBOUND:                -0.336
REMARK  Name = 
REMARK  8 active torsions:
REMARK  status: ('A' for Active; 'I' for Inactive)
REMARK    1  A    between atoms: C_1  and  O_2
REMARK    2  A    between atoms: O_2  and  C_3
REMARK    3  A    between atoms: C_7  and  C_8
REMARK    4  A    between atoms: N_10  and  C_11
REMARK    5  A    between atoms: C_11  and  C_12
REMARK    6  A    between atoms: C_15  and  C_16
REMARK    7  A    between atoms: C_16  and  N_17
REMARK    8  A    between atoms: C_18  and  C_20
REMARK                            x       y       z     vdW  Elec       q    Type
REMARK                         _______ _______ _______ _____ _____    ______ ____
ROOT
ATOM      1  C   UNL     1      44.606   5.434  11.388  0.00  0.00    +0.000 A 
ATOM      2  C   UNL     1      44.418   6.821  11.438  0.00  0.00    +0.000 A 
ATOM      3  C   UNL     1      45.324   7.641  12.124  0.00  0.00    +0.000 A 
ATOM      4  C   UNL     1      46.446   7.090  12.759  0.00  0.00    +0.000 A 
ATOM      5  C   UNL     1      46.633   5.703  12.704  0.00  0.00    +0.000 A 
ATOM      6  C   UNL     1      45.732   4.884  12.015  0.00  0.00    +0.000 A 
ENDROOT
BRANCH   1   7
ATOM      7  C   UNL     1      43.629   4.544  10.661  0.00  0.00    +0.000 C 
BRANCH   7  10
ATOM      8  C   UNL     1      45.190   4.249   8.793  0.00  0.00    +0.000 C 
ATOM      9  O   UNL     1      45.411   5.453   8.705  0.00  0.00    +0.000 OA
ATOM     10  N   UNL     1      44.294   3.706   9.693  0.00  0.00    +0.000 N 
ATOM     11  H   UNL     1      44.288   2.707   9.849  0.00  0.00    +0.000 HD
BRANCH   8  16
ATOM     12  C   UNL     1      46.673   0.983   7.608  0.00  0.00    +0.000 A 
ATOM     13  C   UNL     1      47.241   1.359   6.391  0.00  0.00    +0.000 A 
ATOM     14  C   UNL     1      47.178   2.690   5.964  0.00  0.00    +0.000 A 
ATOM     15  C   UNL     1      46.532   3.648   6.745  0.00  0.00    +0.000 A 
ATOM     16  C   UNL     1      45.943   3.276   7.959  0.00  0.00    +0.000 A 
ATOM     17  C   UNL     1      46.046   1.950   8.400  0.00  0.00    +0.000 A 
BRANCH  12  19
ATOM     18  C   UNL     1      46.629  -1.362   7.197  0.00  0.00    +0.000 C 
ATOM     19  O   UNL     1      46.650  -0.283   8.125  0.00  0.00    +0.000 OA
ENDBRANCH  12  19
ENDBRANCH   8  16
ENDBRANCH   7  10
ENDBRANCH   1   7
BRANCH   4  20
ATOM     20  C   UNL     1      47.417   7.955  13.524  0.00  0.00    +0.000 C 
BRANCH  20  21
ATOM     21  N   UNL     1      47.766   7.362  14.791  0.00  0.00    +0.000 N 
ATOM     22  C   UNL     1      49.049   6.950  15.056  0.00  0.00    +0.000 C 
ATOM     23  O   UNL     1      49.963   7.109  14.250  0.00  0.00    +0.000 OA
ATOM     24  H   UNL     1      47.004   7.003  15.356  0.00  0.00    +0.000 HD
BRANCH  22  25
ATOM     25  C   UNL     1      49.290   6.363  16.380  0.00  0.00    +0.000 A 
ATOM     26  C   UNL     1      50.139   7.000  17.275  0.00  0.00    +0.000 A 
ATOM     27  S   UNL     1      50.270   6.206  18.779  0.00  0.00    +0.000 S 
ATOM     28  C   UNL     1      49.236   4.955  18.271  0.00  0.00    +0.000 A 
ATOM     29  N   UNL     1      48.944   3.912  19.092  0.00  0.00    +0.000 NA
ATOM     30  C   UNL     1      48.171   3.019  18.567  0.00  0.00    +0.000 A 
ATOM     31  N   UNL     1      47.659   3.081  17.297  0.00  0.00    +0.000 N 
ATOM     32  C   UNL     1      47.903   4.129  16.443  0.00  0.00    +0.000 A 
ATOM     33  O   UNL     1      47.394   4.174  15.328  0.00  0.00    +0.000 OA
ATOM     34  C   UNL     1      48.779   5.151  16.979  0.00  0.00    +0.000 A 
ATOM     35  H   UNL     1      47.047   2.356  16.951  0.00  0.00    +0.000 HD
ENDBRANCH  22  25
ENDBRANCH  20  21
ENDBRANCH   4  20
TORSDOF 7
ENDMDL
MODEL 2
REMARK VINA RESULT:    -7.761      1.457      1.811
REMARK INTER + INTRA:         -11.273
REMARK INTER:                 -10.220
REMARK INTRA:                  -1.054
REMARK UNBOUND:                -0.336
REMARK  Name = 
REMARK  8 active torsions:
REMARK  status: ('A' for Active; 'I' for Inactive)
REMARK    1  A    between atoms: C_1  and  O_2
REMARK    2  A    between atoms: O_2  and  C_3
REMARK    3  A    between atoms: C_7  and  C_8
REMARK    4  A    between atoms: N_10  and  C_11
REMARK    5  A    between atoms: C_11  and  C_12
REMARK    6  A    between atoms: C_15  and  C_16
REMARK    7  A    between atoms: C_16  and  N_17
REMARK    8  A    between atoms: C_18  and  C_20
REMARK                            x       y       z     vdW  Elec       q    Type
REMARK                         _______ _______ _______ _____ _____    ______ ____
ROOT
ATOM      1  C   UNL     1      45.202   6.661  11.492  0.00  0.00    +0.000 A 
ATOM      2  C   UNL     1      46.322   6.097  12.117  0.00  0.00    +0.000 A 
ATOM      3  C   UNL     1      47.109   6.854  12.996  0.00  0.00    +0.000 A 
ATOM      4  C   UNL     1      46.779   8.187  13.281  0.00  0.00    +0.000 A 
ATOM      5  C   UNL     1      45.656   8.746  12.658  0.00  0.00    +0.000 A 
ATOM      6  C   UNL     1      44.868   7.990  11.784  0.00  0.00    +0.000 A 
ENDROOT
BRANCH   1   7
ATOM      7  C   UNL     1      44.358   5.856  10.537  0.00  0.00    +0.000 C 
BRANCH   7  10
ATOM      8  C   UNL     1      44.836   3.726   9.419  0.00  0.00    +0.000 C 
ATOM      9  O   UNL     1      43.901   3.153   9.970  0.00  0.00    +0.000 OA
ATOM     10  N   UNL     1      45.172   5.043   9.666  0.00  0.00    +0.000 N 
ATOM     11  H   UNL     1      45.826   5.514   9.055  0.00  0.00    +0.000 HD
BRANCH   8  16
ATOM     12  C   UNL     1      46.705   0.988   7.605  0.00  0.00    +0.000 A 
ATOM     13  C   UNL     1      47.054   1.629   6.415  0.00  0.00    +0.000 A 
ATOM     14  C   UNL     1      46.715   2.971   6.211  0.00  0.00    +0.000 A 
ATOM     15  C   UNL     1      46.011   3.674   7.189  0.00  0.00    +0.000 A 
ATOM     16  C   UNL     1      45.641   3.035   8.377  0.00  0.00    +0.000 A 
ATOM     17  C   UNL     1      46.020   1.702   8.592  0.00  0.00    +0.000 A 
BRANCH  12  19
ATOM     18  C   UNL     1      46.437  -1.308   7.034  0.00  0.00    +0.000 C 
ATOM     19  O   UNL     1      46.958  -0.319   7.915  0.00  0.00    +0.000 OA
ENDBRANCH  12  19
ENDBRANCH   8  16
ENDBRANCH   7  10
ENDBRANCH   1   7
BRANCH   4  20
ATOM     20  C   UNL     1      47.629   9.024  14.203  0.00  0.00    +0.000 C 
BRANCH  20  21
ATOM     21  N   UNL     1      47.753   8.416  15.504  0.00  0.00    +0.000 N 
ATOM     22  C   UNL     1      48.823   8.689  16.320  0.00  0.00    +0.000 C 
ATOM     23  O   UNL     1      49.694   9.495  16.003  0.00  0.00    +0.000 OA
ATOM     24  H   UNL     1      47.197   7.584  15.677  0.00  0.00    +0.000 HD
BRANCH  22  25
ATOM     25  C   UNL     1      48.844   8.014  17.624  0.00  0.00    +0.000 A 
ATOM     26  C   UNL     1      48.905   8.765  18.790  0.00  0.00    +0.000 A 
ATOM     27  S   UNL     1      48.877   7.823  20.213  0.00  0.00    +0.000 S 
ATOM     28  C   UNL     1      48.833   6.376  19.320  0.00  0.00    +0.000 A 
ATOM     29  N   UNL     1      48.825   5.169  19.945  0.00  0.00    +0.000 NA
ATOM     30  C   UNL     1      48.822   4.154  19.146  0.00  0.00    +0.000 A 
ATOM     31  N   UNL     1      48.819   4.239  17.777  0.00  0.00    +0.000 N 
ATOM     32  C   UNL     1      48.800   5.436  17.103  0.00  0.00    +0.000 A 
ATOM     33  O   UNL     1      48.756   5.476  15.878  0.00  0.00    +0.000 OA
ATOM     34  C   UNL     1      48.819   6.608  17.956  0.00  0.00    +0.000 A 
ATOM     35  H   UNL     1      48.803   3.406  17.208  0.00  0.00    +0.000 HD
ENDBRANCH  22  25
ENDBRANCH  20  21
ENDBRANCH   4  20
TORSDOF 7
ENDMDL
MODEL 3
REMARK VINA RESULT:    -7.660      4.224      7.359
REMARK INTER + INTRA:         -11.131
REMARK INTER:                 -10.012
REMARK INTRA:                  -1.119
REMARK UNBOUND:                -0.336
REMARK  Name = 
REMARK  8 active torsions:
REMARK  status: ('A' for Active; 'I' for Inactive)
REMARK    1  A    between atoms: C_1  and  O_2
REMARK    2  A    between atoms: O_2  and  C_3
REMARK    3  A    between atoms: C_7  and  C_8
REMARK    4  A    between atoms: N_10  and  C_11
REMARK    5  A    between atoms: C_11  and  C_12
REMARK    6  A    between atoms: C_15  and  C_16
REMARK    7  A    between atoms: C_16  and  N_17
REMARK    8  A    between atoms: C_18  and  C_20
REMARK                            x       y       z     vdW  Elec       q    Type
REMARK                         _______ _______ _______ _____ _____    ______ ____
ROOT
ATOM      1  C   UNL     1      44.985   8.948  11.883  0.00  0.00    +0.000 A 
ATOM      2  C   UNL     1      44.327   7.805  11.412  0.00  0.00    +0.000 A 
ATOM      3  C   UNL     1      44.690   6.531  11.869  0.00  0.00    +0.000 A 
ATOM      4  C   UNL     1      45.709   6.378  12.820  0.00  0.00    +0.000 A 
ATOM      5  C   UNL     1      46.362   7.523  13.292  0.00  0.00    +0.000 A 
ATOM      6  C   UNL     1      45.997   8.796  12.840  0.00  0.00    +0.000 A 
ENDROOT
BRANCH   1   7
ATOM      7  C   UNL     1      44.607  10.321  11.387  0.00  0.00    +0.000 C 
BRANCH   7  10
ATOM      8  C   UNL     1      42.234  10.801  10.994  0.00  0.00    +0.000 C 
ATOM      9  O   UNL     1      42.334  10.631   9.783  0.00  0.00    +0.000 OA
ATOM     10  N   UNL     1      43.304  10.717  11.864  0.00  0.00    +0.000 N 
ATOM     11  H   UNL     1      43.135  10.681  12.860  0.00  0.00    +0.000 HD
BRANCH   8  16
ATOM     12  C   UNL     1      38.571  10.409  11.832  0.00  0.00    +0.000 A 
ATOM     13  C   UNL     1      38.407  11.371  12.828  0.00  0.00    +0.000 A 
ATOM     14  C   UNL     1      39.481  12.183  13.209  0.00  0.00    +0.000 A 
ATOM     15  C   UNL     1      40.729  12.024  12.606  0.00  0.00    +0.000 A 
ATOM     16  C   UNL     1      40.907  11.049  11.619  0.00  0.00    +0.000 A 
ATOM     17  C   UNL     1      39.817  10.267  11.213  0.00  0.00    +0.000 A 
BRANCH  12  19
ATOM     18  C   UNL     1      37.067   9.785  10.094  0.00  0.00    +0.000 C 
ATOM     19  O   UNL     1      37.609   9.544  11.387  0.00  0.00    +0.000 OA
ENDBRANCH  12  19
ENDBRANCH   8  16
ENDBRANCH   7  10
ENDBRANCH   1   7
BRANCH   4  20
ATOM     20  C   UNL     1      46.131   5.012  13.304  0.00  0.00    +0.000 C 
BRANCH  20  21
ATOM     21  N   UNL     1      46.745   5.081  14.606  0.00  0.00    +0.000 N 
ATOM     22  C   UNL     1      47.384   3.994  15.151  0.00  0.00    +0.000 C 
ATOM     23  O   UNL     1      47.504   2.935  14.539  0.00  0.00    +0.000 OA
ATOM     24  H   UNL     1      46.451   5.838  15.214  0.00  0.00    +0.000 HD
BRANCH  22  25
ATOM     25  C   UNL     1      47.974   4.178  16.483  0.00  0.00    +0.000 A 
ATOM     26  C   UNL     1      47.655   3.298  17.508  0.00  0.00    +0.000 A 
ATOM     27  S   UNL     1      48.462   3.633  18.973  0.00  0.00    +0.000 S 
ATOM     28  C   UNL     1      49.228   4.996  18.305  0.00  0.00    +0.000 A 
ATOM     29  N   UNL     1      50.056   5.771  19.054  0.00  0.00    +0.000 NA
ATOM     30  C   UNL     1      50.545   6.790  18.428  0.00  0.00    +0.000 A 
ATOM     31  N   UNL     1      50.286   7.098  17.118  0.00  0.00    +0.000 N 
ATOM     32  C   UNL     1      49.478   6.330  16.315  0.00  0.00    +0.000 A 
ATOM     33  O   UNL     1      49.300   6.612  15.135  0.00  0.00    +0.000 OA
ATOM     34  C   UNL     1      48.890   5.181  16.976  0.00  0.00    +0.000 A 
ATOM     35  H   UNL     1      50.712   7.903  16.683  0.00  0.00    +0.000 HD
ENDBRANCH  22  25
ENDBRANCH  20  21
ENDBRANCH   4  20
TORSDOF 7
ENDMDL
MODEL 4
REMARK VINA RESULT:    -7.545      4.374      7.043
REMARK INTER + INTRA:         -10.969
REMARK INTER:                 -10.122
REMARK INTRA:                  -0.846
REMARK UNBOUND:                -0.336
REMARK  Name = 
REMARK  8 active torsions:
REMARK  status: ('A' for Active; 'I' for Inactive)
REMARK    1  A    between atoms: C_1  and  O_2
REMARK    2  A    between atoms: O_2  and  C_3
REMARK    3  A    between atoms: C_7  and  C_8
REMARK    4  A    between atoms: N_10  and  C_11
REMARK    5  A    between atoms: C_11  and  C_12
REMARK    6  A    between atoms: C_15  and  C_16
REMARK    7  A    between atoms: C_16  and  N_17
REMARK    8  A    between atoms: C_18  and  C_20
REMARK                            x       y       z     vdW  Elec       q    Type
REMARK                         _______ _______ _______ _____ _____    ______ ____
ROOT
ATOM      1  C   UNL     1      45.167   7.983  11.849  0.00  0.00    +0.000 A 
ATOM      2  C   UNL     1      44.327   6.862  11.852  0.00  0.00    +0.000 A 
ATOM      3  C   UNL     1      44.677   5.707  12.565  0.00  0.00    +0.000 A 
ATOM      4  C   UNL     1      45.868   5.659  13.304  0.00  0.00    +0.000 A 
ATOM      5  C   UNL     1      46.703   6.783  13.302  0.00  0.00    +0.000 A 
ATOM      6  C   UNL     1      46.352   7.938  12.595  0.00  0.00    +0.000 A 
ENDROOT
BRANCH   1   7
ATOM      7  C   UNL     1      44.801   9.225  11.075  0.00  0.00    +0.000 C 
BRANCH   7  10
ATOM      8  C   UNL     1      42.642  10.329  10.711  0.00  0.00    +0.000 C 
ATOM      9  O   UNL     1      42.794  10.367   9.494  0.00  0.00    +0.000 OA
ATOM     10  N   UNL     1      43.592   9.828  11.580  0.00  0.00    +0.000 N 
ATOM     11  H   UNL     1      43.342   9.650  12.544  0.00  0.00    +0.000 HD
BRANCH   8  16
ATOM     12  C   UNL     1      39.026  10.298  11.806  0.00  0.00    +0.000 A 
ATOM     13  C   UNL     1      38.953  11.468  12.563  0.00  0.00    +0.000 A 
ATOM     14  C   UNL     1      40.073  12.296  12.691  0.00  0.00    +0.000 A 
ATOM     15  C   UNL     1      41.277  11.950  12.077  0.00  0.00    +0.000 A 
ATOM     16  C   UNL     1      41.364  10.769  11.331  0.00  0.00    +0.000 A 
ATOM     17  C   UNL     1      40.227   9.965  11.172  0.00  0.00    +0.000 A 
BRANCH  12  19
ATOM     18  C   UNL     1      37.191   9.572  10.473  0.00  0.00    +0.000 C 
ATOM     19  O   UNL     1      38.013   9.398  11.621  0.00  0.00    +0.000 OA
ENDBRANCH  12  19
ENDBRANCH   8  16
ENDBRANCH   7  10
ENDBRANCH   1   7
BRANCH   4  20
ATOM     20  C   UNL     1      46.273   4.416  14.056  0.00  0.00    +0.000 C 
BRANCH  20  21
ATOM     21  N   UNL     1      47.404   4.664  14.914  0.00  0.00    +0.000 N 
ATOM     22  C   UNL     1      47.446   4.175  16.198  0.00  0.00    +0.000 C 
ATOM     23  O   UNL     1      46.550   3.469  16.654  0.00  0.00    +0.000 OA
ATOM     24  H   UNL     1      48.019   5.428  14.655  0.00  0.00    +0.000 HD
BRANCH  22  25
ATOM     25  C   UNL     1      48.648   4.488  16.981  0.00  0.00    +0.000 A 
ATOM     26  C   UNL     1      48.780   5.736  17.574  0.00  0.00    +0.000 A 
ATOM     27  S   UNL     1      50.214   5.915  18.481  0.00  0.00    +0.000 S 
ATOM     28  C   UNL     1      50.734   4.348  18.071  0.00  0.00    +0.000 A 
ATOM     29  N   UNL     1      51.929   3.871  18.509  0.00  0.00    +0.000 NA
ATOM     30  C   UNL     1      52.211   2.679  18.097  0.00  0.00    +0.000 A 
ATOM     31  N   UNL     1      51.401   1.920  17.293  0.00  0.00    +0.000 N 
ATOM     32  C   UNL     1      50.174   2.350  16.850  0.00  0.00    +0.000 A 
ATOM     33  O   UNL     1      49.456   1.628  16.166  0.00  0.00    +0.000 OA
ATOM     34  C   UNL     1      49.817   3.690  17.272  0.00  0.00    +0.000 A 
ATOM     35  H   UNL     1      51.674   0.988  17.018  0.00  0.00    +0.000 HD
ENDBRANCH  22  25
ENDBRANCH  20  21
ENDBRANCH   4  20
TORSDOF 7
ENDMDL
MODEL 5
REMARK VINA RESULT:    -7.543      2.216      3.289
REMARK INTER + INTRA:         -10.966
REMARK INTER:                  -9.971
REMARK INTRA:                  -0.995
REMARK UNBOUND:                -0.336
REMARK  Name = 
REMARK  8 active torsions:
REMARK  status: ('A' for Active; 'I' for Inactive)
REMARK    1  A    between atoms: C_1  and  O_2
REMARK    2  A    between atoms: O_2  and  C_3
REMARK    3  A    between atoms: C_7  and  C_8
REMARK    4  A    between atoms: N_10  and  C_11
REMARK    5  A    between atoms: C_11  and  C_12
REMARK    6  A    between atoms: C_15  and  C_16
REMARK    7  A    between atoms: C_16  and  N_17
REMARK    8  A    between atoms: C_18  and  C_20
REMARK                            x       y       z     vdW  Elec       q    Type
REMARK                         _______ _______ _______ _____ _____    ______ ____
ROOT
ATOM      1  C   UNL     1      46.719   7.415  12.872  0.00  0.00    +0.000 A 
ATOM      2  C   UNL     1      47.839   6.574  12.865  0.00  0.00    +0.000 A 
ATOM      3  C   UNL     1      48.981   6.897  13.610  0.00  0.00    +0.000 A 
ATOM      4  C   UNL     1      49.018   8.061  14.391  0.00  0.00    +0.000 A 
ATOM      5  C   UNL     1      47.895   8.898  14.399  0.00  0.00    +0.000 A 
ATOM      6  C   UNL     1      46.752   8.574  13.659  0.00  0.00    +0.000 A 
ENDROOT
BRANCH   1   7
ATOM      7  C   UNL     1      45.491   7.079  12.064  0.00  0.00    +0.000 C 
BRANCH   7  10
ATOM      8  C   UNL     1      44.625   5.226  10.711  0.00  0.00    +0.000 C 
ATOM      9  O   UNL     1      43.456   5.504  10.963  0.00  0.00    +0.000 OA
ATOM     10  N   UNL     1      45.700   5.913  11.241  0.00  0.00    +0.000 N 
ATOM     11  H   UNL     1      46.624   5.764  10.859  0.00  0.00    +0.000 HD
BRANCH   8  16
ATOM     12  C   UNL     1      45.972   3.511   7.626  0.00  0.00    +0.000 A 
ATOM     13  C   UNL     1      45.720   2.170   7.919  0.00  0.00    +0.000 A 
ATOM     14  C   UNL     1      45.074   1.817   9.108  0.00  0.00    +0.000 A 
ATOM     15  C   UNL     1      44.692   2.803  10.019  0.00  0.00    +0.000 A 
ATOM     16  C   UNL     1      44.957   4.148   9.742  0.00  0.00    +0.000 A 
ATOM     17  C   UNL     1      45.567   4.498   8.529  0.00  0.00    +0.000 A 
BRANCH  12  19
ATOM     18  C   UNL     1      47.033   3.020   5.551  0.00  0.00    +0.000 C 
ATOM     19  O   UNL     1      46.610   3.982   6.512  0.00  0.00    +0.000 OA
ENDBRANCH  12  19
ENDBRANCH   8  16
ENDBRANCH   7  10
ENDBRANCH   1   7
BRANCH   4  20
ATOM     20  C   UNL     1      50.248   8.438  15.178  0.00  0.00    +0.000 C 
BRANCH  20  21
ATOM     21  N   UNL     1      50.957   7.271  15.641  0.00  0.00    +0.000 N 
ATOM     22  C   UNL     1      50.793   6.799  16.921  0.00  0.00    +0.000 C 
ATOM     23  O   UNL     1      50.007   7.317  17.710  0.00  0.00    +0.000 OA
ATOM     24  H   UNL     1      51.772   6.987  15.108  0.00  0.00    +0.000 HD
BRANCH  22  25
ATOM     25  C   UNL     1      51.564   5.602  17.282  0.00  0.00    +0.000 A 
ATOM     26  C   UNL     1      52.898   5.724  17.648  0.00  0.00    +0.000 A 
ATOM     27  S   UNL     1      53.627   4.243  18.078  0.00  0.00    +0.000 S 
ATOM     28  C   UNL     1      52.201   3.379  17.742  0.00  0.00    +0.000 A 
ATOM     29  N   UNL     1      52.153   2.028  17.879  0.00  0.00    +0.000 NA
ATOM     30  C   UNL     1      51.018   1.499  17.562  0.00  0.00    +0.000 A 
ATOM     31  N   UNL     1      49.925   2.203  17.126  0.00  0.00    +0.000 N 
ATOM     32  C   UNL     1      49.919   3.570  16.999  0.00  0.00    +0.000 A 
ATOM     33  O   UNL     1      48.910   4.172  16.646  0.00  0.00    +0.000 OA
ATOM     34  C   UNL     1      51.176   4.212  17.329  0.00  0.00    +0.000 A 
ATOM     35  H   UNL     1      49.061   1.730  16.907  0.00  0.00    +0.000 HD
ENDBRANCH  22  25
ENDBRANCH  20  21
ENDBRANCH   4  20
TORSDOF 7
ENDMDL
MODEL 6
REMARK VINA RESULT:    -7.290      2.159      3.313
REMARK INTER + INTRA:         -10.609
REMARK INTER:                  -9.612
REMARK INTRA:                  -0.998
REMARK UNBOUND:                -0.336
REMARK  Name = 
REMARK  8 active torsions:
REMARK  status: ('A' for Active; 'I' for Inactive)
REMARK    1  A    between atoms: C_1  and  O_2
REMARK    2  A    between atoms: O_2  and  C_3
REMARK    3  A    between atoms: C_7  and  C_8
REMARK    4  A    between atoms: N_10  and  C_11
REMARK    5  A    between atoms: C_11  and  C_12
REMARK    6  A    between atoms: C_15  and  C_16
REMARK    7  A    between atoms: C_16  and  N_17
REMARK    8  A    between atoms: C_18  and  C_20
REMARK                            x       y       z     vdW  Elec       q    Type
REMARK                         _______ _______ _______ _____ _____    ______ ____
ROOT
ATOM      1  C   UNL     1      46.904   7.695  12.553  0.00  0.00    +0.000 A 
ATOM      2  C   UNL     1      48.084   7.036  12.183  0.00  0.00    +0.000 A 
ATOM      3  C   UNL     1      49.279   7.265  12.878  0.00  0.00    +0.000 A 
ATOM      4  C   UNL     1      49.314   8.145  13.969  0.00  0.00    +0.000 A 
ATOM      5  C   UNL     1      48.132   8.799  14.338  0.00  0.00    +0.000 A 
ATOM      6  C   UNL     1      46.937   8.568  13.649  0.00  0.00    +0.000 A 
ENDROOT
BRANCH   1   7
ATOM      7  C   UNL     1      45.617   7.462  11.803  0.00  0.00    +0.000 C 
BRANCH   7  10
ATOM      8  C   UNL     1      44.781   5.285  11.045  0.00  0.00    +0.000 C 
ATOM      9  O   UNL     1      43.901   5.254  11.899  0.00  0.00    +0.000 OA
ATOM     10  N   UNL     1      45.705   6.307  10.944  0.00  0.00    +0.000 N 
ATOM     11  H   UNL     1      46.284   6.376  10.118  0.00  0.00    +0.000 HD
BRANCH   8  16
ATOM     12  C   UNL     1      45.683   3.541   7.817  0.00  0.00    +0.000 A 
ATOM     13  C   UNL     1      45.164   2.264   8.034  0.00  0.00    +0.000 A 
ATOM     14  C   UNL     1      44.481   1.973   9.221  0.00  0.00    +0.000 A 
ATOM     15  C   UNL     1      44.330   2.952  10.202  0.00  0.00    +0.000 A 
ATOM     16  C   UNL     1      44.863   4.230  10.001  0.00  0.00    +0.000 A 
ATOM     17  C   UNL     1      45.510   4.527   8.793  0.00  0.00    +0.000 A 
BRANCH  12  19
ATOM     18  C   UNL     1      46.827   2.929   5.821  0.00  0.00    +0.000 C 
ATOM     19  O   UNL     1      46.385   3.944   6.715  0.00  0.00    +0.000 OA
ENDBRANCH  12  19
ENDBRANCH   8  16
ENDBRANCH   7  10
ENDBRANCH   1   7
BRANCH   4  20
ATOM     20  C   UNL     1      50.597   8.423  14.711  0.00  0.00    +0.000 C 
BRANCH  20  21
ATOM     21  N   UNL     1      50.406   8.356  16.138  0.00  0.00    +0.000 N 
ATOM     22  C   UNL     1      50.438   7.156  16.806  0.00  0.00    +0.000 C 
ATOM     23  O   UNL     1      50.676   6.097  16.230  0.00  0.00    +0.000 OA
ATOM     24  H   UNL     1      49.973   9.159  16.582  0.00  0.00    +0.000 HD
BRANCH  22  25
ATOM     25  C   UNL     1      50.233   7.207  18.259  0.00  0.00    +0.000 A 
ATOM     26  C   UNL     1      51.142   7.884  19.061  0.00  0.00    +0.000 A 
ATOM     27  S   UNL     1      50.728   7.883  20.716  0.00  0.00    +0.000 S 
ATOM     28  C   UNL     1      49.347   6.934  20.427  0.00  0.00    +0.000 A 
ATOM     29  N   UNL     1      48.542   6.541  21.449  0.00  0.00    +0.000 NA
ATOM     30  C   UNL     1      47.546   5.800  21.090  0.00  0.00    +0.000 A 
ATOM     31  N   UNL     1      47.281   5.423  19.798  0.00  0.00    +0.000 N 
ATOM     32  C   UNL     1      48.050   5.819  18.731  0.00  0.00    +0.000 A 
ATOM     33  O   UNL     1      47.760   5.498  17.584  0.00  0.00    +0.000 OA
ATOM     34  C   UNL     1      49.191   6.641  19.084  0.00  0.00    +0.000 A 
ATOM     35  H   UNL     1      46.476   4.853  19.582  0.00  0.00    +0.000 HD
ENDBRANCH  22  25
ENDBRANCH  20  21
ENDBRANCH   4  20
TORSDOF 7
ENDMDL
MODEL 7
REMARK VINA RESULT:    -7.083      4.428     11.035
REMARK INTER + INTRA:         -10.319
REMARK INTER:                  -9.456
REMARK INTRA:                  -0.863
REMARK UNBOUND:                -0.336
REMARK  Name = 
REMARK  8 active torsions:
REMARK  status: ('A' for Active; 'I' for Inactive)
REMARK    1  A    between atoms: C_1  and  O_2
REMARK    2  A    between atoms: O_2  and  C_3
REMARK    3  A    between atoms: C_7  and  C_8
REMARK    4  A    between atoms: N_10  and  C_11
REMARK    5  A    between atoms: C_11  and  C_12
REMARK    6  A    between atoms: C_15  and  C_16
REMARK    7  A    between atoms: C_16  and  N_17
REMARK    8  A    between atoms: C_18  and  C_20
REMARK                            x       y       z     vdW  Elec       q    Type
REMARK                         _______ _______ _______ _____ _____    ______ ____
ROOT
ATOM      1  C   UNL     1      48.355   5.448  20.170  0.00  0.00    +0.000 A 
ATOM      2  C   UNL     1      47.225   5.819  19.430  0.00  0.00    +0.000 A 
ATOM      3  C   UNL     1      46.967   5.240  18.180  0.00  0.00    +0.000 A 
ATOM      4  C   UNL     1      47.827   4.265  17.654  0.00  0.00    +0.000 A 
ATOM      5  C   UNL     1      48.953   3.894  18.399  0.00  0.00    +0.000 A 
ATOM      6  C   UNL     1      49.209   4.467  19.649  0.00  0.00    +0.000 A 
ENDROOT
BRANCH   1   7
ATOM      7  C   UNL     1      48.645   6.076  21.511  0.00  0.00    +0.000 C 
BRANCH   7  10
ATOM      8  C   UNL     1      48.387   8.497  21.219  0.00  0.00    +0.000 C 
ATOM      9  O   UNL     1      49.489   8.615  20.693  0.00  0.00    +0.000 OA
ATOM     10  N   UNL     1      47.899   7.297  21.698  0.00  0.00    +0.000 N 
ATOM     11  H   UNL     1      46.922   7.220  21.949  0.00  0.00    +0.000 HD
BRANCH   8  16
ATOM     12  C   UNL     1      46.842  11.876  20.531  0.00  0.00    +0.000 A 
ATOM     13  C   UNL     1      45.708  11.835  21.343  0.00  0.00    +0.000 A 
ATOM     14  C   UNL     1      45.458  10.720  22.150  0.00  0.00    +0.000 A 
ATOM     15  C   UNL     1      46.332   9.633  22.137  0.00  0.00    +0.000 A 
ATOM     16  C   UNL     1      47.462   9.657  21.313  0.00  0.00    +0.000 A 
ATOM     17  C   UNL     1      47.729  10.795  20.538  0.00  0.00    +0.000 A 
BRANCH  12  19
ATOM     18  C   UNL     1      47.053  12.650  18.290  0.00  0.00    +0.000 C 
ATOM     19  O   UNL     1      47.187  12.893  19.685  0.00  0.00    +0.000 OA
ENDBRANCH  12  19
ENDBRANCH   8  16
ENDBRANCH   7  10
ENDBRANCH   1   7
BRANCH   4  20
ATOM     20  C   UNL     1      47.579   3.650  16.299  0.00  0.00    +0.000 C 
BRANCH  20  21
ATOM     21  N   UNL     1      46.845   4.545  15.440  0.00  0.00    +0.000 N 
ATOM     22  C   UNL     1      46.951   4.467  14.073  0.00  0.00    +0.000 C 
ATOM     23  O   UNL     1      47.634   3.608  13.521  0.00  0.00    +0.000 OA
ATOM     24  H   UNL     1      46.485   5.395  15.862  0.00  0.00    +0.000 HD
BRANCH  22  25
ATOM     25  C   UNL     1      46.157   5.429  13.297  0.00  0.00    +0.000 A 
ATOM     26  C   UNL     1      46.631   6.719  13.102  0.00  0.00    +0.000 A 
ATOM     27  S   UNL     1      45.606   7.688  12.143  0.00  0.00    +0.000 S 
ATOM     28  C   UNL     1      44.466   6.434  11.997  0.00  0.00    +0.000 A 
ATOM     29  N   UNL     1      43.309   6.617  11.308  0.00  0.00    +0.000 NA
ATOM     30  C   UNL     1      42.522   5.592  11.303  0.00  0.00    +0.000 A 
ATOM     31  N   UNL     1      42.794   4.398  11.920  0.00  0.00    +0.000 N 
ATOM     32  C   UNL     1      43.961   4.159  12.603  0.00  0.00    +0.000 A 
ATOM     33  O   UNL     1      44.190   3.065  13.108  0.00  0.00    +0.000 OA
ATOM     34  C   UNL     1      44.872   5.285  12.652  0.00  0.00    +0.000 A 
ATOM     35  H   UNL     1      42.142   3.630  11.866  0.00  0.00    +0.000 HD
ENDBRANCH  22  25
ENDBRANCH  20  21
ENDBRANCH   4  20
TORSDOF 7
ENDMDL
MODEL 8
REMARK VINA RESULT:    -6.978      4.619      7.526
REMARK INTER + INTRA:         -10.171
REMARK INTER:                  -9.262
REMARK INTRA:                  -0.909
REMARK UNBOUND:                -0.336
REMARK  Name = 
REMARK  8 active torsions:
REMARK  status: ('A' for Active; 'I' for Inactive)
REMARK    1  A    between atoms: C_1  and  O_2
REMARK    2  A    between atoms: O_2  and  C_3
REMARK    3  A    between atoms: C_7  and  C_8
REMARK    4  A    between atoms: N_10  and  C_11
REMARK    5  A    between atoms: C_11  and  C_12
REMARK    6  A    between atoms: C_15  and  C_16
REMARK    7  A    between atoms: C_16  and  N_17
REMARK    8  A    between atoms: C_18  and  C_20
REMARK                            x       y       z     vdW  Elec       q    Type
REMARK                         _______ _______ _______ _____ _____    ______ ____
ROOT
ATOM      1  C   UNL     1      43.920   8.490  11.186  0.00  0.00    +0.000 A 
ATOM      2  C   UNL     1      43.362   7.210  11.079  0.00  0.00    +0.000 A 
ATOM      3  C   UNL     1      43.981   6.107  11.682  0.00  0.00    +0.000 A 
ATOM      4  C   UNL     1      45.163   6.266  12.420  0.00  0.00    +0.000 A 
ATOM      5  C   UNL     1      45.716   7.549  12.529  0.00  0.00    +0.000 A 
ATOM      6  C   UNL     1      45.096   8.651  11.931  0.00  0.00    +0.000 A 
ENDROOT
BRANCH   1   7
ATOM      7  C   UNL     1      43.265   9.680  10.530  0.00  0.00    +0.000 C 
BRANCH   7  10
ATOM      8  C   UNL     1      41.799  11.159  11.825  0.00  0.00    +0.000 C 
ATOM      9  O   UNL     1      42.698  11.966  12.041  0.00  0.00    +0.000 OA
ATOM     10  N   UNL     1      41.988   9.980  11.131  0.00  0.00    +0.000 N 
ATOM     11  H   UNL     1      41.185   9.448  10.824  0.00  0.00    +0.000 HD
BRANCH   8  16
ATOM     12  C   UNL     1      38.022  11.083  11.913  0.00  0.00    +0.000 A 
ATOM     13  C   UNL     1      37.754  11.836  13.056  0.00  0.00    +0.000 A 
ATOM     14  C   UNL     1      38.802  12.407  13.787  0.00  0.00    +0.000 A 
ATOM     15  C   UNL     1      40.124  12.214  13.387  0.00  0.00    +0.000 A 
ATOM     16  C   UNL     1      40.404  11.444  12.252  0.00  0.00    +0.000 A 
ATOM     17  C   UNL     1      39.347  10.910  11.501  0.00  0.00    +0.000 A 
BRANCH  12  19
ATOM     18  C   UNL     1      36.522   9.256  11.631  0.00  0.00    +0.000 C 
ATOM     19  O   UNL     1      37.093  10.458  11.128  0.00  0.00    +0.000 OA
ENDBRANCH  12  19
ENDBRANCH   8  16
ENDBRANCH   7  10
ENDBRANCH   1   7
BRANCH   4  20
ATOM     20  C   UNL     1      45.856   5.086  13.054  0.00  0.00    +0.000 C 
BRANCH  20  21
ATOM     21  N   UNL     1      46.523   5.460  14.276  0.00  0.00    +0.000 N 
ATOM     22  C   UNL     1      47.871   5.726  14.300  0.00  0.00    +0.000 C 
ATOM     23  O   UNL     1      48.557   5.704  13.281  0.00  0.00    +0.000 OA
ATOM     24  H   UNL     1      46.044   5.247  15.144  0.00  0.00    +0.000 HD
BRANCH  22  25
ATOM     25  C   UNL     1      48.443   6.099  15.600  0.00  0.00    +0.000 A 
ATOM     26  C   UNL     1      49.247   7.227  15.703  0.00  0.00    +0.000 A 
ATOM     27  S   UNL     1      49.789   7.538  17.290  0.00  0.00    +0.000 S 
ATOM     28  C   UNL     1      49.011   6.149  17.888  0.00  0.00    +0.000 A 
ATOM     29  N   UNL     1      49.102   5.806  19.200  0.00  0.00    +0.000 NA
ATOM     30  C   UNL     1      48.488   4.713  19.510  0.00  0.00    +0.000 A 
ATOM     31  N   UNL     1      47.786   3.935  18.626  0.00  0.00    +0.000 N 
ATOM     32  C   UNL     1      47.644   4.257  17.298  0.00  0.00    +0.000 A 
ATOM     33  O   UNL     1      46.973   3.560  16.543  0.00  0.00    +0.000 OA
ATOM     34  C   UNL     1      48.329   5.469  16.895  0.00  0.00    +0.000 A 
ATOM     35  H   UNL     1      47.316   3.098  18.936  0.00  0.00    +0.000 HD
ENDBRANCH  22  25
ENDBRANCH  20  21
ENDBRANCH   4  20
TORSDOF 7
ENDMDL
MODEL 9
REMARK VINA RESULT:    -6.591      5.733      8.101
REMARK INTER + INTRA:          -9.625
REMARK INTER:                  -8.624
REMARK INTRA:                  -1.001
REMARK UNBOUND:                -0.336
REMARK  Name = 
REMARK  8 active torsions:
REMARK  status: ('A' for Active; 'I' for Inactive)
REMARK    1  A    between atoms: C_1  and  O_2
REMARK    2  A    between atoms: O_2  and  C_3
REMARK    3  A    between atoms: C_7  and  C_8
REMARK    4  A    between atoms: N_10  and  C_11
REMARK    5  A    between atoms: C_11  and  C_12
REMARK    6  A    between atoms: C_15  and  C_16
REMARK    7  A    between atoms: C_16  and  N_17
REMARK    8  A    between atoms: C_18  and  C_20
REMARK                            x       y       z     vdW  Elec       q    Type
REMARK                         _______ _______ _______ _____ _____    ______ ____
ROOT
ATOM      1  C   UNL     1      48.843   8.366  13.189  0.00  0.00    +0.000 A 
ATOM      2  C   UNL     1      48.405   9.261  12.204  0.00  0.00    +0.000 A 
ATOM      3  C   UNL     1      49.325   9.929  11.385  0.00  0.00    +0.000 A 
ATOM      4  C   UNL     1      50.701   9.702  11.523  0.00  0.00    +0.000 A 
ATOM      5  C   UNL     1      51.136   8.804  12.506  0.00  0.00    +0.000 A 
ATOM      6  C   UNL     1      50.219   8.132  13.321  0.00  0.00    +0.000 A 
ENDROOT
BRANCH   1   7
ATOM      7  C   UNL     1      47.860   7.651  14.081  0.00  0.00    +0.000 C 
BRANCH   7  10
ATOM      8  C   UNL     1      46.588   5.844  13.018  0.00  0.00    +0.000 C 
ATOM      9  O   UNL     1      47.451   5.006  13.262  0.00  0.00    +0.000 OA
ATOM     10  N   UNL     1      46.715   7.181  13.339  0.00  0.00    +0.000 N 
ATOM     11  H   UNL     1      45.907   7.786  13.285  0.00  0.00    +0.000 HD
BRANCH   8  16
ATOM     12  C   UNL     1      44.121   4.235  10.651  0.00  0.00    +0.000 A 
ATOM     13  C   UNL     1      42.905   4.551  11.257  0.00  0.00    +0.000 A 
ATOM     14  C   UNL     1      42.877   5.325  12.423  0.00  0.00    +0.000 A 
ATOM     15  C   UNL     1      44.068   5.772  12.997  0.00  0.00    +0.000 A 
ATOM     16  C   UNL     1      45.293   5.444  12.407  0.00  0.00    +0.000 A 
ATOM     17  C   UNL     1      45.311   4.703  11.217  0.00  0.00    +0.000 A 
BRANCH  12  19
ATOM     18  C   UNL     1      44.923   4.085   8.414  0.00  0.00    +0.000 C 
ATOM     19  O   UNL     1      44.283   3.472   9.528  0.00  0.00    +0.000 OA
ENDBRANCH  12  19
ENDBRANCH   8  16
ENDBRANCH   7  10
ENDBRANCH   1   7
BRANCH   4  20
ATOM     20  C   UNL     1      51.706  10.433  10.668  0.00  0.00    +0.000 C 
BRANCH  20  21
ATOM     21  N   UNL     1      52.006   9.700   9.464  0.00  0.00    +0.000 N 
ATOM     22  C   UNL     1      53.212   9.061   9.300  0.00  0.00    +0.000 C 
ATOM     23  O   UNL     1      54.065   9.046  10.183  0.00  0.00    +0.000 OA
ATOM     24  H   UNL     1      51.438   9.903   8.648  0.00  0.00    +0.000 HD
BRANCH  22  25
ATOM     25  C   UNL     1      53.407   8.343   8.033  0.00  0.00    +0.000 A 
ATOM     26  C   UNL     1      53.434   9.048   6.837  0.00  0.00    +0.000 A 
ATOM     27  S   UNL     1      53.714   8.066   5.471  0.00  0.00    +0.000 S 
ATOM     28  C   UNL     1      53.758   6.657   6.423  0.00  0.00    +0.000 A 
ATOM     29  N   UNL     1      53.939   5.435   5.857  0.00  0.00    +0.000 NA
ATOM     30  C   UNL     1      53.922   4.451   6.693  0.00  0.00    +0.000 A 
ATOM     31  N   UNL     1      53.746   4.581   8.047  0.00  0.00    +0.000 N 
ATOM     32  C   UNL     1      53.587   5.797   8.666  0.00  0.00    +0.000 A 
ATOM     33  O   UNL     1      53.474   5.881   9.884  0.00  0.00    +0.000 OA
ATOM     34  C   UNL     1      53.584   6.935   7.767  0.00  0.00    +0.000 A 
ATOM     35  H   UNL     1      53.756   3.771   8.649  0.00  0.00    +0.000 HD
ENDBRANCH  22  25
ENDBRANCH  20  21
ENDBRANCH   4  20
TORSDOF 7
ENDMDL
