MODEL 1
REMARK VINA RESULT:    -8.234      0.000      0.000
REMARK INTER + INTRA:          -9.793
REMARK INTER:                  -9.197
REMARK INTRA:                  -0.596
REMARK UNBOUND:                -0.596
REMARK  Name = 
REMARK  2 active torsions:
REMARK  status: ('A' for Active; 'I' for Inactive)
REMARK    1  A    between atoms: N_6  and  C_7
REMARK    2  A    between atoms: C_7  and  C_8
REMARK                            x       y       z     vdW  Elec       q    Type
REMARK                         _______ _______ _______ _____ _____    ______ ____
ROOT
ATOM      1  C   UNL     1      45.396   4.414  12.056  0.00  0.00    +0.000 A 
ATOM      2  C   UNL     1      45.895   3.517  12.997  0.00  0.00    +0.000 A 
ATOM      3  C   UNL     1      47.020   3.873  13.718  0.00  0.00    +0.000 A 
ATOM      4  N   UNL     1      47.679   5.041  13.561  0.00  0.00    +0.000 NA
ATOM      5  C   UNL     1      47.182   5.951  12.700  0.00  0.00    +0.000 A 
ATOM      6  N   UNL     1      47.852   7.139  12.531  0.00  0.00    +0.000 N 
ATOM      7  C   UNL     1      49.309   7.174  12.673  0.00  0.00    +0.000 C 
ATOM      8  C   UNL     1      49.732   8.353  13.573  0.00  0.00    +0.000 C 
ATOM      9  N   UNL     1      49.171   9.657  13.143  0.00  0.00    +0.000 NA
ATOM     10  C   UNL     1      47.701   9.538  13.090  0.00  0.00    +0.000 C 
ATOM     11  C   UNL     1      47.194   8.395  12.179  0.00  0.00    +0.000 C 
ATOM     12  C   UNL     1      46.031   5.664  11.973  0.00  0.00    +0.000 A 
ATOM     13  H   UNL     1      49.507   9.840  12.198  0.00  0.00    +0.000 HD
ENDROOT
BRANCH   1  14
ATOM     14  C   UNL     1      44.262   4.056  11.103  0.00  0.00    +0.000 C 
ATOM     15  C   UNL     1      42.848   4.142  11.686  0.00  0.00    +0.000 C 
ATOM     16  C   UNL     1      43.298   5.154  10.690  0.00  0.00    +0.000 C 
BRANCH  14  22
ATOM     17 CL   UNL     1      47.820   2.243   5.448  0.00  0.00    +0.000 Cl
ATOM     18  C   UNL     1      46.907   2.508   6.875  0.00  0.00    +0.000 A 
ATOM     19  C   UNL     1      46.462   3.778   7.210  0.00  0.00    +0.000 A 
ATOM     20  C   UNL     1      45.696   3.949   8.365  0.00  0.00    +0.000 A 
ATOM     21  C   UNL     1      45.385   2.846   9.152  0.00  0.00    +0.000 A 
ATOM     22  N   UNL     1      44.529   2.893  10.256  0.00  0.00    +0.000 N 
ATOM     23  N   UNL     1      45.828   1.610   8.840  0.00  0.00    +0.000 NA
ATOM     24  C   UNL     1      46.579   1.465   7.720  0.00  0.00    +0.000 A 
ATOM     25  H   UNL     1      44.560   1.977  10.698  0.00  0.00    +0.000 HD
ENDBRANCH  14  22
ENDBRANCH   1  14
TORSDOF 2
ENDMDL
MODEL 2
REMARK VINA RESULT:    -7.983      2.083      3.365
REMARK INTER + INTRA:          -9.512
REMARK INTER:                  -9.188
REMARK INTRA:                  -0.324
REMARK UNBOUND:                -0.596
REMARK  Name = 
REMARK  2 active torsions:
REMARK  status: ('A' for Active; 'I' for Inactive)
REMARK    1  A    between atoms: N_6  and  C_7
REMARK    2  A    between atoms: C_7  and  C_8
REMARK                            x       y       z     vdW  Elec       q    Type
REMARK                         _______ _______ _______ _____ _____    ______ ____
ROOT
ATOM      1  C   UNL     1      45.781   5.358  12.471  0.00  0.00    +0.000 A 
ATOM      2  C   UNL     1      46.665   6.247  11.864  0.00  0.00    +0.000 A 
ATOM      3  C   UNL     1      47.817   6.599  12.542  0.00  0.00    +0.000 A 
ATOM      4  N   UNL     1      48.141   6.140  13.771  0.00  0.00    +0.000 NA
ATOM      5  C   UNL     1      47.332   5.233  14.354  0.00  0.00    +0.000 A 
ATOM      6  N   UNL     1      47.653   4.768  15.606  0.00  0.00    +0.000 N 
ATOM      7  C   UNL     1      48.354   5.645  16.546  0.00  0.00    +0.000 C 
ATOM      8  C   UNL     1      49.543   4.902  17.189  0.00  0.00    +0.000 C 
ATOM      9  N   UNL     1      49.170   3.602  17.796  0.00  0.00    +0.000 NA
ATOM     10  C   UNL     1      48.528   2.769  16.759  0.00  0.00    +0.000 C 
ATOM     11  C   UNL     1      47.303   3.433  16.086  0.00  0.00    +0.000 C 
ATOM     12  C   UNL     1      46.177   4.812  13.704  0.00  0.00    +0.000 A 
ATOM     13  H   UNL     1      48.479   3.788  18.522  0.00  0.00    +0.000 HD
ENDROOT
BRANCH   1  14
ATOM     14  C   UNL     1      44.414   5.030  11.882  0.00  0.00    +0.000 C 
ATOM     15  C   UNL     1      43.216   5.260  12.808  0.00  0.00    +0.000 C 
ATOM     16  C   UNL     1      43.440   6.171  11.651  0.00  0.00    +0.000 C 
BRANCH  14  22
ATOM     17 CL   UNL     1      46.846   2.383   5.965  0.00  0.00    +0.000 Cl
ATOM     18  C   UNL     1      46.187   2.865   7.473  0.00  0.00    +0.000 A 
ATOM     19  C   UNL     1      45.998   4.205   7.773  0.00  0.00    +0.000 A 
ATOM     20  C   UNL     1      45.431   4.556   9.000  0.00  0.00    +0.000 A 
ATOM     21  C   UNL     1      45.058   3.559   9.894  0.00  0.00    +0.000 A 
ATOM     22  N   UNL     1      44.377   3.800  11.090  0.00  0.00    +0.000 N 
ATOM     23  N   UNL     1      45.254   2.252   9.616  0.00  0.00    +0.000 NA
ATOM     24  C   UNL     1      45.814   1.932   8.423  0.00  0.00    +0.000 A 
ATOM     25  H   UNL     1      44.322   2.913  11.587  0.00  0.00    +0.000 HD
ENDBRANCH  14  22
ENDBRANCH   1  14
TORSDOF 2
ENDMDL
MODEL 3
REMARK VINA RESULT:    -6.365      2.661      4.540
REMARK INTER + INTRA:          -7.706
REMARK INTER:                  -7.136
REMARK INTRA:                  -0.570
REMARK UNBOUND:                -0.596
REMARK  Name = 
REMARK  2 active torsions:
REMARK  status: ('A' for Active; 'I' for Inactive)
REMARK    1  A    between atoms: N_6  and  C_7
REMARK    2  A    between atoms: C_7  and  C_8
REMARK                            x       y       z     vdW  Elec       q    Type
REMARK                         _______ _______ _______ _____ _____    ______ ____
ROOT
ATOM      1  C   UNL     1      47.013   7.254  12.956  0.00  0.00    +0.000 A 
ATOM      2  C   UNL     1      48.227   7.755  12.493  0.00  0.00    +0.000 A 
ATOM      3  C   UNL     1      49.377   7.457  13.199  0.00  0.00    +0.000 A 
ATOM      4  N   UNL     1      49.401   6.713  14.326  0.00  0.00    +0.000 NA
ATOM      5  C   UNL     1      48.248   6.166  14.762  0.00  0.00    +0.000 A 
ATOM      6  N   UNL     1      48.265   5.414  15.911  0.00  0.00    +0.000 N 
ATOM      7  C   UNL     1      49.220   5.736  16.973  0.00  0.00    +0.000 C 
ATOM      8  C   UNL     1      49.934   4.458  17.458  0.00  0.00    +0.000 C 
ATOM      9  N   UNL     1      49.003   3.369  17.842  0.00  0.00    +0.000 NA
ATOM     10  C   UNL     1      48.126   3.077  16.691  0.00  0.00    +0.000 C 
ATOM     11  C   UNL     1      47.347   4.306  16.164  0.00  0.00    +0.000 C 
ATOM     12  C   UNL     1      47.064   6.400  14.071  0.00  0.00    +0.000 A 
ATOM     13  H   UNL     1      48.419   3.718  18.603  0.00  0.00    +0.000 HD
ENDROOT
BRANCH   1  14
ATOM     14  C   UNL     1      45.675   7.652  12.345  0.00  0.00    +0.000 C 
ATOM     15  C   UNL     1      45.121   9.012  12.781  0.00  0.00    +0.000 C 
ATOM     16  C   UNL     1      45.643   8.837  11.396  0.00  0.00    +0.000 C 
BRANCH  14  22
ATOM     17 CL   UNL     1      44.450   1.774   8.899  0.00  0.00    +0.000 Cl
ATOM     18  C   UNL     1      44.613   3.180   9.868  0.00  0.00    +0.000 A 
ATOM     19  C   UNL     1      45.371   4.257   9.437  0.00  0.00    +0.000 A 
ATOM     20  C   UNL     1      45.456   5.396  10.242  0.00  0.00    +0.000 A 
ATOM     21  C   UNL     1      44.774   5.433  11.452  0.00  0.00    +0.000 A 
ATOM     22  N   UNL     1      44.698   6.564  12.270  0.00  0.00    +0.000 N 
ATOM     23  N   UNL     1      44.048   4.381  11.886  0.00  0.00    +0.000 NA
ATOM     24  C   UNL     1      43.985   3.281  11.095  0.00  0.00    +0.000 A 
ATOM     25  H   UNL     1      44.228   6.283  13.127  0.00  0.00    +0.000 HD
ENDBRANCH  14  22
ENDBRANCH   1  14
TORSDOF 2
ENDMDL
MODEL 4
REMARK VINA RESULT:    -6.179      4.113      7.956
REMARK INTER + INTRA:          -7.497
REMARK INTER:                  -6.922
REMARK INTRA:                  -0.576
REMARK UNBOUND:                -0.596
REMARK  Name = 
REMARK  2 active torsions:
REMARK  status: ('A' for Active; 'I' for Inactive)
REMARK    1  A    between atoms: N_6  and  C_7
REMARK    2  A    between atoms: C_7  and  C_8
REMARK                            x       y       z     vdW  Elec       q    Type
REMARK                         _______ _______ _______ _____ _____    ______ ____
ROOT
ATOM      1  C   UNL     1      47.616   7.733  12.727  0.00  0.00    +0.000 A 
ATOM      2  C   UNL     1      46.848   8.896  12.726  0.00  0.00    +0.000 A 
ATOM      3  C   UNL     1      45.512   8.804  12.386  0.00  0.00    +0.000 A 
ATOM      4  N   UNL     1      44.897   7.652  12.041  0.00  0.00    +0.000 NA
ATOM      5  C   UNL     1      45.602   6.505  12.093  0.00  0.00    +0.000 A 
ATOM      6  N   UNL     1      44.983   5.331  11.737  0.00  0.00    +0.000 N 
ATOM      7  C   UNL     1      43.930   5.347  10.721  0.00  0.00    +0.000 C 
ATOM      8  C   UNL     1      42.706   4.541  11.204  0.00  0.00    +0.000 C 
ATOM      9  N   UNL     1      43.042   3.167  11.652  0.00  0.00    +0.000 NA
ATOM     10  C   UNL     1      44.063   3.259  12.715  0.00  0.00    +0.000 C 
ATOM     11  C   UNL     1      45.339   4.029  12.297  0.00  0.00    +0.000 C 
ATOM     12  C   UNL     1      46.942   6.529  12.464  0.00  0.00    +0.000 A 
ATOM     13  H   UNL     1      43.456   2.677  10.859  0.00  0.00    +0.000 HD
ENDROOT
BRANCH   1  14
ATOM     14  C   UNL     1      49.126   7.748  12.932  0.00  0.00    +0.000 C 
ATOM     15  C   UNL     1      49.972   7.737  11.655  0.00  0.00    +0.000 C 
ATOM     16  C   UNL     1      49.900   8.974  12.481  0.00  0.00    +0.000 C 
BRANCH  14  22
ATOM     17 CL   UNL     1      48.592   6.954  19.788  0.00  0.00    +0.000 Cl
ATOM     18  C   UNL     1      48.809   6.983  18.087  0.00  0.00    +0.000 A 
ATOM     19  C   UNL     1      48.627   8.153  17.366  0.00  0.00    +0.000 A 
ATOM     20  C   UNL     1      48.842   8.143  15.985  0.00  0.00    +0.000 A 
ATOM     21  C   UNL     1      49.243   6.967  15.362  0.00  0.00    +0.000 A 
ATOM     22  N   UNL     1      49.598   6.882  14.013  0.00  0.00    +0.000 N 
ATOM     23  N   UNL     1      49.406   5.820  16.056  0.00  0.00    +0.000 NA
ATOM     24  C   UNL     1      49.184   5.848  17.394  0.00  0.00    +0.000 A 
ATOM     25  H   UNL     1      49.750   5.898  13.805  0.00  0.00    +0.000 HD
ENDBRANCH  14  22
ENDBRANCH   1  14
TORSDOF 2
ENDMDL
MODEL 5
REMARK VINA RESULT:    -5.828      3.107      5.504
REMARK INTER + INTRA:          -7.106
REMARK INTER:                  -7.478
REMARK INTRA:                   0.372
REMARK UNBOUND:                -0.596
REMARK  Name = 
REMARK  2 active torsions:
REMARK  status: ('A' for Active; 'I' for Inactive)
REMARK    1  A    between atoms: N_6  and  C_7
REMARK    2  A    between atoms: C_7  and  C_8
REMARK                            x       y       z     vdW  Elec       q    Type
REMARK                         _______ _______ _______ _____ _____    ______ ____
ROOT
ATOM      1  C   UNL     1      48.347   7.384  13.569  0.00  0.00    +0.000 A 
ATOM      2  C   UNL     1      49.657   7.850  13.654  0.00  0.00    +0.000 A 
ATOM      3  C   UNL     1      50.424   7.473  14.740  0.00  0.00    +0.000 A 
ATOM      4  N   UNL     1      49.979   6.682  15.741  0.00  0.00    +0.000 NA
ATOM      5  C   UNL     1      48.735   6.169  15.653  0.00  0.00    +0.000 A 
ATOM      6  N   UNL     1      48.275   5.370  16.671  0.00  0.00    +0.000 N 
ATOM      7  C   UNL     1      48.736   5.605  18.040  0.00  0.00    +0.000 C 
ATOM      8  C   UNL     1      49.167   4.277  18.697  0.00  0.00    +0.000 C 
ATOM      9  N   UNL     1      48.133   3.216  18.619  0.00  0.00    +0.000 NA
ATOM     10  C   UNL     1      47.780   3.010  17.200  0.00  0.00    +0.000 C 
ATOM     11  C   UNL     1      47.306   4.294  16.477  0.00  0.00    +0.000 C 
ATOM     12  C   UNL     1      47.929   6.484  14.563  0.00  0.00    +0.000 A 
ATOM     13  H   UNL     1      47.304   3.558  19.104  0.00  0.00    +0.000 HD
ENDROOT
BRANCH   1  14
ATOM     14  C   UNL     1      47.373   7.866  12.501  0.00  0.00    +0.000 C 
ATOM     15  C   UNL     1      46.216   8.738  12.999  0.00  0.00    +0.000 C 
ATOM     16  C   UNL     1      47.314   9.353  12.201  0.00  0.00    +0.000 C 
BRANCH  14  22
ATOM     17 CL   UNL     1      43.167   2.439  11.618  0.00  0.00    +0.000 Cl
ATOM     18  C   UNL     1      44.247   3.770  11.653  0.00  0.00    +0.000 A 
ATOM     19  C   UNL     1      44.709   4.281  12.856  0.00  0.00    +0.000 A 
ATOM     20  C   UNL     1      45.611   5.348  12.842  0.00  0.00    +0.000 A 
ATOM     21  C   UNL     1      46.036   5.872  11.627  0.00  0.00    +0.000 A 
ATOM     22  N   UNL     1      47.022   6.854  11.504  0.00  0.00    +0.000 N 
ATOM     23  N   UNL     1      45.578   5.389  10.452  0.00  0.00    +0.000 NA
ATOM     24  C   UNL     1      44.696   4.359  10.486  0.00  0.00    +0.000 A 
ATOM     25  H   UNL     1      47.062   7.117  10.521  0.00  0.00    +0.000 HD
ENDBRANCH  14  22
ENDBRANCH   1  14
TORSDOF 2
ENDMDL
MODEL 6
REMARK VINA RESULT:    -5.536      5.128      8.852
REMARK INTER + INTRA:          -6.779
REMARK INTER:                  -6.464
REMARK INTRA:                  -0.315
REMARK UNBOUND:                -0.596
REMARK  Name = 
REMARK  2 active torsions:
REMARK  status: ('A' for Active; 'I' for Inactive)
REMARK    1  A    between atoms: N_6  and  C_7
REMARK    2  A    between atoms: C_7  and  C_8
REMARK                            x       y       z     vdW  Elec       q    Type
REMARK                         _______ _______ _______ _____ _____    ______ ____
ROOT
ATOM      1  C   UNL     1      48.251   6.167  15.104  0.00  0.00    +0.000 A 
ATOM      2  C   UNL     1      48.096   5.004  15.854  0.00  0.00    +0.000 A 
ATOM      3  C   UNL     1      47.117   4.103  15.481  0.00  0.00    +0.000 A 
ATOM      4  N   UNL     1      46.285   4.282  14.431  0.00  0.00    +0.000 NA
ATOM      5  C   UNL     1      46.454   5.370  13.654  0.00  0.00    +0.000 A 
ATOM      6  N   UNL     1      45.606   5.561  12.590  0.00  0.00    +0.000 N 
ATOM      7  C   UNL     1      44.225   5.085  12.670  0.00  0.00    +0.000 C 
ATOM      8  C   UNL     1      43.849   4.309  11.391  0.00  0.00    +0.000 C 
ATOM      9  N   UNL     1      44.119   5.062  10.142  0.00  0.00    +0.000 NA
ATOM     10  C   UNL     1      45.545   5.444  10.125  0.00  0.00    +0.000 C 
ATOM     11  C   UNL     1      45.994   6.256  11.363  0.00  0.00    +0.000 C 
ATOM     12  C   UNL     1      47.448   6.295  13.958  0.00  0.00    +0.000 A 
ATOM     13  H   UNL     1      43.564   5.917  10.172  0.00  0.00    +0.000 HD
ENDROOT
BRANCH   1  14
ATOM     14  C   UNL     1      49.189   7.294  15.522  0.00  0.00    +0.000 C 
ATOM     15  C   UNL     1      50.262   7.681  14.499  0.00  0.00    +0.000 C 
ATOM     16  C   UNL     1      49.121   8.604  14.758  0.00  0.00    +0.000 C 
BRANCH  14  22
ATOM     17 CL   UNL     1      47.027   8.780  21.928  0.00  0.00    +0.000 Cl
ATOM     18  C   UNL     1      47.707   8.321  20.422  0.00  0.00    +0.000 A 
ATOM     19  C   UNL     1      47.275   8.902  19.239  0.00  0.00    +0.000 A 
ATOM     20  C   UNL     1      47.874   8.523  18.035  0.00  0.00    +0.000 A 
ATOM     21  C   UNL     1      48.895   7.580  18.043  0.00  0.00    +0.000 A 
ATOM     22  N   UNL     1      49.635   7.223  16.913  0.00  0.00    +0.000 N 
ATOM     23  N   UNL     1      49.309   6.998  19.190  0.00  0.00    +0.000 NA
ATOM     24  C   UNL     1      48.709   7.373  20.347  0.00  0.00    +0.000 A 
ATOM     25  H   UNL     1      50.240   6.451  17.183  0.00  0.00    +0.000 HD
ENDBRANCH  14  22
ENDBRANCH   1  14
TORSDOF 2
ENDMDL
MODEL 7
REMARK VINA RESULT:    -5.412      2.929      7.102
REMARK INTER + INTRA:          -6.641
REMARK INTER:                  -6.026
REMARK INTRA:                  -0.615
REMARK UNBOUND:                -0.596
REMARK  Name = 
REMARK  2 active torsions:
REMARK  status: ('A' for Active; 'I' for Inactive)
REMARK    1  A    between atoms: N_6  and  C_7
REMARK    2  A    between atoms: C_7  and  C_8
REMARK                            x       y       z     vdW  Elec       q    Type
REMARK                         _______ _______ _______ _____ _____    ______ ____
ROOT
ATOM      1  C   UNL     1      47.093   8.256  13.214  0.00  0.00    +0.000 A 
ATOM      2  C   UNL     1      46.284   9.249  12.666  0.00  0.00    +0.000 A 
ATOM      3  C   UNL     1      45.280   8.876  11.793  0.00  0.00    +0.000 A 
ATOM      4  N   UNL     1      45.033   7.600  11.425  0.00  0.00    +0.000 NA
ATOM      5  C   UNL     1      45.761   6.615  11.988  0.00  0.00    +0.000 A 
ATOM      6  N   UNL     1      45.519   5.316  11.612  0.00  0.00    +0.000 N 
ATOM      7  C   UNL     1      45.064   5.029  10.251  0.00  0.00    +0.000 C 
ATOM      8  C   UNL     1      43.860   4.066  10.280  0.00  0.00    +0.000 C 
ATOM      9  N   UNL     1      44.105   2.834  11.068  0.00  0.00    +0.000 NA
ATOM     10  C   UNL     1      44.498   3.226  12.437  0.00  0.00    +0.000 C 
ATOM     11  C   UNL     1      45.723   4.169  12.495  0.00  0.00    +0.000 C 
ATOM     12  C   UNL     1      46.763   6.926  12.902  0.00  0.00    +0.000 A 
ATOM     13  H   UNL     1      44.894   2.347  10.642  0.00  0.00    +0.000 HD
ENDROOT
BRANCH   1  14
ATOM     14  C   UNL     1      48.322   8.572  14.058  0.00  0.00    +0.000 C 
ATOM     15  C   UNL     1      48.068   8.771  15.556  0.00  0.00    +0.000 C 
ATOM     16  C   UNL     1      48.771   7.545  15.083  0.00  0.00    +0.000 C 
BRANCH  14  22
ATOM     17 CL   UNL     1      53.077   8.914   9.039  0.00  0.00    +0.000 Cl
ATOM     18  C   UNL     1      51.913   9.016  10.294  0.00  0.00    +0.000 A 
ATOM     19  C   UNL     1      51.498   7.882  10.974  0.00  0.00    +0.000 A 
ATOM     20  C   UNL     1      50.570   8.010  12.011  0.00  0.00    +0.000 A 
ATOM     21  C   UNL     1      50.087   9.269  12.348  0.00  0.00    +0.000 A 
ATOM     22  N   UNL     1      49.252   9.517  13.441  0.00  0.00    +0.000 N 
ATOM     23  N   UNL     1      50.475  10.376  11.678  0.00  0.00    +0.000 NA
ATOM     24  C   UNL     1      51.369  10.230  10.670  0.00  0.00    +0.000 A 
ATOM     25  H   UNL     1      48.977  10.496  13.392  0.00  0.00    +0.000 HD
ENDBRANCH  14  22
ENDBRANCH   1  14
TORSDOF 2
ENDMDL
