MODEL 1
REMARK VINA RESULT:    -8.649      0.000      0.000
REMARK INTER + INTRA:         -12.713
REMARK INTER:                 -11.683
REMARK INTRA:                  -1.030
REMARK UNBOUND:                -1.030
REMARK  Name = 
REMARK  6 active torsions:
REMARK  status: ('A' for Active; 'I' for Inactive)
REMARK    1  A    between atoms: C_2  and  C_4
REMARK    2  A    between atoms: C_7  and  C_8
REMARK    3  A    between atoms: C_8  and  C_9
REMARK    4  A    between atoms: C_9  and  S_10
REMARK    5  A    between atoms: S_10  and  C_11
REMARK    6  A    between atoms: C_15  and  C_16
REMARK                            x       y       z     vdW  Elec       q    Type
REMARK                         _______ _______ _______ _____ _____    ______ ____
ROOT
ATOM      1  C   UNL     1      43.183   3.818  11.435  0.00  0.00    +0.000 C 
ENDROOT
BRANCH   1   2
ATOM      2  C   UNL     1      43.654   4.642  10.235  0.00  0.00    +0.000 C 
BRANCH   2   6
ATOM      3  C   UNL     1      46.480   2.485   7.777  0.00  0.00    +0.000 A 
ATOM      4  C   UNL     1      46.400   3.879   7.695  0.00  0.00    +0.000 A 
ATOM      5  C   UNL     1      45.479   4.574   8.484  0.00  0.00    +0.000 A 
ATOM      6  C   UNL     1      44.631   3.890   9.364  0.00  0.00    +0.000 A 
ATOM      7  C   UNL     1      44.697   2.488   9.417  0.00  0.00    +0.000 A 
ATOM      8  C   UNL     1      45.612   1.791   8.625  0.00  0.00    +0.000 A 
BRANCH   3  10
ATOM      9  N   UNL     1      48.515   2.385   6.439  0.00  0.00    +0.000 N 
ATOM     10  C   UNL     1      47.454   1.705   6.969  0.00  0.00    +0.000 C 
ATOM     11  O   UNL     1      47.343   0.495   6.815  0.00  0.00    +0.000 OA
ATOM     12  H   UNL     1      49.230   1.819   5.996  0.00  0.00    +0.000 HD
ATOM     13  H   UNL     1      48.781   3.303   6.763  0.00  0.00    +0.000 HD
ENDBRANCH   3  10
ENDBRANCH   2   6
ENDBRANCH   1   2
BRANCH   1  14
ATOM     14  S   UNL     1      43.205   4.871  12.930  0.00  0.00    +0.000 S 
BRANCH  14  15
ATOM     15  C   UNL     1      44.895   5.451  13.003  0.00  0.00    +0.000 A 
ATOM     16  C   UNL     1      45.846   4.576  13.534  0.00  0.00    +0.000 A 
ATOM     17  C   UNL     1      47.173   4.972  13.676  0.00  0.00    +0.000 A 
ATOM     18  C   UNL     1      47.563   6.252  13.278  0.00  0.00    +0.000 A 
ATOM     19  C   UNL     1      46.646   7.155  12.712  0.00  0.00    +0.000 A 
ATOM     20  C   UNL     1      45.304   6.731  12.605  0.00  0.00    +0.000 A 
BRANCH  19  21
ATOM     21  C   UNL     1      47.084   8.481  12.205  0.00  0.00    +0.000 A 
ATOM     22  C   UNL     1      46.172   9.547  12.094  0.00  0.00    +0.000 A 
ATOM     23  C   UNL     1      46.574  10.817  11.668  0.00  0.00    +0.000 A 
ATOM     24  C   UNL     1      47.906  11.053  11.350  0.00  0.00    +0.000 A 
ATOM     25  C   UNL     1      48.830  10.017  11.442  0.00  0.00    +0.000 A 
ATOM     26  C   UNL     1      48.421   8.743  11.856  0.00  0.00    +0.000 A 
ENDBRANCH  19  21
ENDBRANCH  14  15
ENDBRANCH   1  14
TORSDOF 6
ENDMDL
MODEL 2
REMARK VINA RESULT:    -7.752      3.633      7.132
REMARK INTER + INTRA:         -11.501
REMARK INTER:                 -10.081
REMARK INTRA:                  -1.419
REMARK UNBOUND:                -1.030
REMARK  Name = 
REMARK  6 active torsions:
REMARK  status: ('A' for Active; 'I' for Inactive)
REMARK    1  A    between atoms: C_2  and  C_4
REMARK    2  A    between atoms: C_7  and  C_8
REMARK    3  A    between atoms: C_8  and  C_9
REMARK    4  A    between atoms: C_9  and  S_10
REMARK    5  A    between atoms: S_10  and  C_11
REMARK    6  A    between atoms: C_15  and  C_16
REMARK                            x       y       z     vdW  Elec       q    Type
REMARK                         _______ _______ _______ _____ _____    ______ ____
ROOT
ATOM      1  C   UNL     1      45.486   7.656  12.738  0.00  0.00    +0.000 C 
ENDROOT
BRANCH   1   2
ATOM      2  C   UNL     1      46.767   6.863  12.465  0.00  0.00    +0.000 C 
BRANCH   2   6
ATOM      3  C   UNL     1      47.661   3.967  15.546  0.00  0.00    +0.000 A 
ATOM      4  C   UNL     1      46.948   3.580  14.406  0.00  0.00    +0.000 A 
ATOM      5  C   UNL     1      46.652   4.521  13.415  0.00  0.00    +0.000 A 
ATOM      6  C   UNL     1      47.064   5.853  13.547  0.00  0.00    +0.000 A 
ATOM      7  C   UNL     1      47.753   6.238  14.709  0.00  0.00    +0.000 A 
ATOM      8  C   UNL     1      48.044   5.301  15.703  0.00  0.00    +0.000 A 
BRANCH   3  10
ATOM      9  N   UNL     1      47.112   2.839  17.636  0.00  0.00    +0.000 N 
ATOM     10  C   UNL     1      48.012   2.999  16.619  0.00  0.00    +0.000 C 
ATOM     11  O   UNL     1      49.039   2.334  16.579  0.00  0.00    +0.000 OA
ATOM     12  H   UNL     1      47.309   2.091  18.291  0.00  0.00    +0.000 HD
ATOM     13  H   UNL     1      46.157   3.157  17.565  0.00  0.00    +0.000 HD
ENDBRANCH   3  10
ENDBRANCH   2   6
ENDBRANCH   1   2
BRANCH   1  14
ATOM     14  S   UNL     1      44.400   7.562  11.270  0.00  0.00    +0.000 S 
BRANCH  14  15
ATOM     15  C   UNL     1      44.297   5.806  10.943  0.00  0.00    +0.000 A 
ATOM     16  C   UNL     1      43.433   5.058  11.749  0.00  0.00    +0.000 A 
ATOM     17  C   UNL     1      43.337   3.679  11.594  0.00  0.00    +0.000 A 
ATOM     18  C   UNL     1      44.101   3.032  10.621  0.00  0.00    +0.000 A 
ATOM     19  C   UNL     1      44.961   3.748   9.770  0.00  0.00    +0.000 A 
ATOM     20  C   UNL     1      45.054   5.142   9.969  0.00  0.00    +0.000 A 
BRANCH  19  21
ATOM     21  C   UNL     1      45.702   3.070   8.676  0.00  0.00    +0.000 A 
ATOM     22  C   UNL     1      45.951   1.685   8.724  0.00  0.00    +0.000 A 
ATOM     23  C   UNL     1      46.602   1.019   7.682  0.00  0.00    +0.000 A 
ATOM     24  C   UNL     1      47.012   1.723   6.555  0.00  0.00    +0.000 A 
ATOM     25  C   UNL     1      46.787   3.094   6.482  0.00  0.00    +0.000 A 
ATOM     26  C   UNL     1      46.148   3.760   7.535  0.00  0.00    +0.000 A 
ENDBRANCH  19  21
ENDBRANCH  14  15
ENDBRANCH   1  14
TORSDOF 6
ENDMDL
MODEL 3
REMARK VINA RESULT:    -7.612      2.100      4.139
REMARK INTER + INTRA:         -11.312
REMARK INTER:                 -10.640
REMARK INTRA:                  -0.672
REMARK UNBOUND:                -1.030
REMARK  Name = 
REMARK  6 active torsions:
REMARK  status: ('A' for Active; 'I' for Inactive)
REMARK    1  A    between atoms: C_2  and  C_4
REMARK    2  A    between atoms: C_7  and  C_8
REMARK    3  A    between atoms: C_8  and  C_9
REMARK    4  A    between atoms: C_9  and  S_10
REMARK    5  A    between atoms: S_10  and  C_11
REMARK    6  A    between atoms: C_15  and  C_16
REMARK                            x       y       z     vdW  Elec       q    Type
REMARK                         _______ _______ _______ _____ _____    ______ ____
ROOT
ATOM      1  C   UNL     1      44.274   4.140  11.791  0.00  0.00    +0.000 C 
ENDROOT
BRANCH   1   2
ATOM      2  C   UNL     1      43.629   3.711  10.470  0.00  0.00    +0.000 C 
BRANCH   2   6
ATOM      3  C   UNL     1      46.584   2.640   7.503  0.00  0.00    +0.000 A 
ATOM      4  C   UNL     1      46.204   3.976   7.664  0.00  0.00    +0.000 A 
ATOM      5  C   UNL     1      45.241   4.320   8.618  0.00  0.00    +0.000 A 
ATOM      6  C   UNL     1      44.650   3.338   9.422  0.00  0.00    +0.000 A 
ATOM      7  C   UNL     1      45.015   1.995   9.233  0.00  0.00    +0.000 A 
ATOM      8  C   UNL     1      45.972   1.649   8.277  0.00  0.00    +0.000 A 
BRANCH   3  10
ATOM      9  N   UNL     1      47.821   3.059   5.445  0.00  0.00    +0.000 N 
ATOM     10  C   UNL     1      47.613   2.229   6.513  0.00  0.00    +0.000 C 
ATOM     11  O   UNL     1      48.284   1.215   6.660  0.00  0.00    +0.000 OA
ATOM     12  H   UNL     1      48.607   2.827   4.849  0.00  0.00    +0.000 HD
ATOM     13  H   UNL     1      47.491   4.012   5.433  0.00  0.00    +0.000 HD
ENDBRANCH   3  10
ENDBRANCH   2   6
ENDBRANCH   1   2
BRANCH   1  14
ATOM     14  S   UNL     1      44.486   5.956  11.791  0.00  0.00    +0.000 S 
BRANCH  14  15
ATOM     15  C   UNL     1      46.020   6.194  12.679  0.00  0.00    +0.000 A 
ATOM     16  C   UNL     1      46.945   7.085  12.126  0.00  0.00    +0.000 A 
ATOM     17  C   UNL     1      48.184   7.283  12.727  0.00  0.00    +0.000 A 
ATOM     18  C   UNL     1      48.508   6.595  13.898  0.00  0.00    +0.000 A 
ATOM     19  C   UNL     1      47.598   5.712  14.504  0.00  0.00    +0.000 A 
ATOM     20  C   UNL     1      46.360   5.514  13.856  0.00  0.00    +0.000 A 
BRANCH  19  21
ATOM     21  C   UNL     1      47.911   5.053  15.798  0.00  0.00    +0.000 A 
ATOM     22  C   UNL     1      47.218   3.898  16.206  0.00  0.00    +0.000 A 
ATOM     23  C   UNL     1      47.531   3.234  17.395  0.00  0.00    +0.000 A 
ATOM     24  C   UNL     1      48.558   3.705  18.205  0.00  0.00    +0.000 A 
ATOM     25  C   UNL     1      49.257   4.849  17.833  0.00  0.00    +0.000 A 
ATOM     26  C   UNL     1      48.930   5.520  16.648  0.00  0.00    +0.000 A 
ENDBRANCH  19  21
ENDBRANCH  14  15
ENDBRANCH   1  14
TORSDOF 6
ENDMDL
MODEL 4
REMARK VINA RESULT:    -7.605      1.489      2.661
REMARK INTER + INTRA:         -11.302
REMARK INTER:                 -10.614
REMARK INTRA:                  -0.688
REMARK UNBOUND:                -1.030
REMARK  Name = 
REMARK  6 active torsions:
REMARK  status: ('A' for Active; 'I' for Inactive)
REMARK    1  A    between atoms: C_2  and  C_4
REMARK    2  A    between atoms: C_7  and  C_8
REMARK    3  A    between atoms: C_8  and  C_9
REMARK    4  A    between atoms: C_9  and  S_10
REMARK    5  A    between atoms: S_10  and  C_11
REMARK    6  A    between atoms: C_15  and  C_16
REMARK                            x       y       z     vdW  Elec       q    Type
REMARK                         _______ _______ _______ _____ _____    ______ ____
ROOT
ATOM      1  C   UNL     1      43.886   4.873  11.407  0.00  0.00    +0.000 C 
ENDROOT
BRANCH   1   2
ATOM      2  C   UNL     1      43.579   3.579  10.649  0.00  0.00    +0.000 C 
BRANCH   2   6
ATOM      3  C   UNL     1      46.479   2.715   7.563  0.00  0.00    +0.000 A 
ATOM      4  C   UNL     1      45.950   1.678   8.339  0.00  0.00    +0.000 A 
ATOM      5  C   UNL     1      45.019   1.960   9.342  0.00  0.00    +0.000 A 
ATOM      6  C   UNL     1      44.603   3.276   9.582  0.00  0.00    +0.000 A 
ATOM      7  C   UNL     1      45.162   4.314   8.819  0.00  0.00    +0.000 A 
ATOM      8  C   UNL     1      46.097   4.035   7.820  0.00  0.00    +0.000 A 
BRANCH   3  10
ATOM      9  N   UNL     1      47.307   3.172   5.316  0.00  0.00    +0.000 N 
ATOM     10  C   UNL     1      47.460   2.461   6.475  0.00  0.00    +0.000 C 
ATOM     11  O   UNL     1      48.395   1.684   6.617  0.00  0.00    +0.000 OA
ATOM     12  H   UNL     1      48.052   3.076   4.635  0.00  0.00    +0.000 HD
ATOM     13  H   UNL     1      46.729   3.997   5.263  0.00  0.00    +0.000 HD
ENDBRANCH   3  10
ENDBRANCH   2   6
ENDBRANCH   1   2
BRANCH   1  14
ATOM     14  S   UNL     1      45.509   4.712  12.233  0.00  0.00    +0.000 S 
BRANCH  14  15
ATOM     15  C   UNL     1      46.111   6.395  12.296  0.00  0.00    +0.000 A 
ATOM     16  C   UNL     1      45.221   7.373  12.750  0.00  0.00    +0.000 A 
ATOM     17  C   UNL     1      45.596   8.713  12.777  0.00  0.00    +0.000 A 
ATOM     18  C   UNL     1      46.872   9.088  12.355  0.00  0.00    +0.000 A 
ATOM     19  C   UNL     1      47.809   8.135  11.918  0.00  0.00    +0.000 A 
ATOM     20  C   UNL     1      47.390   6.788  11.879  0.00  0.00    +0.000 A 
BRANCH  19  21
ATOM     21  C   UNL     1      49.195   8.527  11.558  0.00  0.00    +0.000 A 
ATOM     22  C   UNL     1      50.175   7.552  11.291  0.00  0.00    +0.000 A 
ATOM     23  C   UNL     1      51.471   7.900  10.901  0.00  0.00    +0.000 A 
ATOM     24  C   UNL     1      51.819   9.238  10.759  0.00  0.00    +0.000 A 
ATOM     25  C   UNL     1      50.876  10.226  11.025  0.00  0.00    +0.000 A 
ATOM     26  C   UNL     1      49.582   9.874  11.429  0.00  0.00    +0.000 A 
ENDBRANCH  19  21
ENDBRANCH  14  15
ENDBRANCH   1  14
TORSDOF 6
ENDMDL
MODEL 5
REMARK VINA RESULT:    -7.474      1.117      2.054
REMARK INTER + INTRA:         -11.125
REMARK INTER:                 -10.302
REMARK INTRA:                  -0.824
REMARK UNBOUND:                -1.030
REMARK  Name = 
REMARK  6 active torsions:
REMARK  status: ('A' for Active; 'I' for Inactive)
REMARK    1  A    between atoms: C_2  and  C_4
REMARK    2  A    between atoms: C_7  and  C_8
REMARK    3  A    between atoms: C_8  and  C_9
REMARK    4  A    between atoms: C_9  and  S_10
REMARK    5  A    between atoms: S_10  and  C_11
REMARK    6  A    between atoms: C_15  and  C_16
REMARK                            x       y       z     vdW  Elec       q    Type
REMARK                         _______ _______ _______ _____ _____    ______ ____
ROOT
ATOM      1  C   UNL     1      43.773   4.938  11.353  0.00  0.00    +0.000 C 
ENDROOT
BRANCH   1   2
ATOM      2  C   UNL     1      43.562   3.563  10.715  0.00  0.00    +0.000 C 
BRANCH   2   6
ATOM      3  C   UNL     1      46.428   2.709   7.595  0.00  0.00    +0.000 A 
ATOM      4  C   UNL     1      45.873   1.665   8.342  0.00  0.00    +0.000 A 
ATOM      5  C   UNL     1      44.953   1.943   9.357  0.00  0.00    +0.000 A 
ATOM      6  C   UNL     1      44.575   3.263   9.637  0.00  0.00    +0.000 A 
ATOM      7  C   UNL     1      45.160   4.307   8.902  0.00  0.00    +0.000 A 
ATOM      8  C   UNL     1      46.084   4.031   7.892  0.00  0.00    +0.000 A 
BRANCH   3  10
ATOM      9  N   UNL     1      47.245   3.187   5.348  0.00  0.00    +0.000 N 
ATOM     10  C   UNL     1      47.399   2.460   6.497  0.00  0.00    +0.000 C 
ATOM     11  O   UNL     1      48.328   1.672   6.622  0.00  0.00    +0.000 OA
ATOM     12  H   UNL     1      47.984   3.093   4.661  0.00  0.00    +0.000 HD
ATOM     13  H   UNL     1      46.675   4.018   5.310  0.00  0.00    +0.000 HD
ENDBRANCH   3  10
ENDBRANCH   2   6
ENDBRANCH   1   2
BRANCH   1  14
ATOM     14  S   UNL     1      44.809   4.751  12.848  0.00  0.00    +0.000 S 
BRANCH  14  15
ATOM     15  C   UNL     1      46.008   6.069  12.689  0.00  0.00    +0.000 A 
ATOM     16  C   UNL     1      47.354   5.727  12.845  0.00  0.00    +0.000 A 
ATOM     17  C   UNL     1      48.344   6.704  12.790  0.00  0.00    +0.000 A 
ATOM     18  C   UNL     1      47.995   8.037  12.569  0.00  0.00    +0.000 A 
ATOM     19  C   UNL     1      46.656   8.422  12.379  0.00  0.00    +0.000 A 
ATOM     20  C   UNL     1      45.674   7.412  12.465  0.00  0.00    +0.000 A 
BRANCH  19  21
ATOM     21  C   UNL     1      46.298   9.826  12.053  0.00  0.00    +0.000 A 
ATOM     22  C   UNL     1      47.293  10.812  11.917  0.00  0.00    +0.000 A 
ATOM     23  C   UNL     1      46.981  12.127  11.561  0.00  0.00    +0.000 A 
ATOM     24  C   UNL     1      45.660  12.488  11.322  0.00  0.00    +0.000 A 
ATOM     25  C   UNL     1      44.653  11.538  11.456  0.00  0.00    +0.000 A 
ATOM     26  C   UNL     1      44.968  10.225  11.827  0.00  0.00    +0.000 A 
ENDBRANCH  19  21
ENDBRANCH  14  15
ENDBRANCH   1  14
TORSDOF 6
ENDMDL
MODEL 6
REMARK VINA RESULT:    -7.153      2.996      6.994
REMARK INTER + INTRA:         -10.692
REMARK INTER:                  -9.897
REMARK INTRA:                  -0.795
REMARK UNBOUND:                -1.030
REMARK  Name = 
REMARK  6 active torsions:
REMARK  status: ('A' for Active; 'I' for Inactive)
REMARK    1  A    between atoms: C_2  and  C_4
REMARK    2  A    between atoms: C_7  and  C_8
REMARK    3  A    between atoms: C_8  and  C_9
REMARK    4  A    between atoms: C_9  and  S_10
REMARK    5  A    between atoms: S_10  and  C_11
REMARK    6  A    between atoms: C_15  and  C_16
REMARK                            x       y       z     vdW  Elec       q    Type
REMARK                         _______ _______ _______ _____ _____    ______ ____
ROOT
ATOM      1  C   UNL     1      45.283   7.193  12.843  0.00  0.00    +0.000 C 
ENDROOT
BRANCH   1   2
ATOM      2  C   UNL     1      45.991   8.550  12.862  0.00  0.00    +0.000 C 
BRANCH   2   6
ATOM      3  C   UNL     1      50.082   8.308  11.490  0.00  0.00    +0.000 A 
ATOM      4  C   UNL     1      49.455   9.553  11.610  0.00  0.00    +0.000 A 
ATOM      5  C   UNL     1      48.129   9.629  12.045  0.00  0.00    +0.000 A 
ATOM      6  C   UNL     1      47.415   8.468  12.367  0.00  0.00    +0.000 A 
ATOM      7  C   UNL     1      48.042   7.221  12.215  0.00  0.00    +0.000 A 
ATOM      8  C   UNL     1      49.365   7.142  11.774  0.00  0.00    +0.000 A 
BRANCH   3  10
ATOM      9  N   UNL     1      51.868   6.990  10.483  0.00  0.00    +0.000 N 
ATOM     10  C   UNL     1      51.495   8.180  11.045  0.00  0.00    +0.000 C 
ATOM     11  O   UNL     1      52.287   9.109  11.132  0.00  0.00    +0.000 OA
ATOM     12  H   UNL     1      52.797   6.962  10.077  0.00  0.00    +0.000 HD
ATOM     13  H   UNL     1      51.194   6.315  10.153  0.00  0.00    +0.000 HD
ENDBRANCH   3  10
ENDBRANCH   2   6
ENDBRANCH   1   2
BRANCH   1  14
ATOM     14  S   UNL     1      44.160   7.124  11.401  0.00  0.00    +0.000 S 
BRANCH  14  15
ATOM     15  C   UNL     1      44.168   5.392  10.953  0.00  0.00    +0.000 A 
ATOM     16  C   UNL     1      43.357   4.537  11.705  0.00  0.00    +0.000 A 
ATOM     17  C   UNL     1      43.348   3.167  11.454  0.00  0.00    +0.000 A 
ATOM     18  C   UNL     1      44.148   2.640  10.439  0.00  0.00    +0.000 A 
ATOM     19  C   UNL     1      44.957   3.467   9.640  0.00  0.00    +0.000 A 
ATOM     20  C   UNL     1      44.963   4.847   9.936  0.00  0.00    +0.000 A 
BRANCH  19  21
ATOM     21  C   UNL     1      45.736   2.915   8.502  0.00  0.00    +0.000 A 
ATOM     22  C   UNL     1      46.087   1.552   8.462  0.00  0.00    +0.000 A 
ATOM     23  C   UNL     1      46.776   1.002   7.377  0.00  0.00    +0.000 A 
ATOM     24  C   UNL     1      47.122   1.803   6.295  0.00  0.00    +0.000 A 
ATOM     25  C   UNL     1      46.796   3.155   6.309  0.00  0.00    +0.000 A 
ATOM     26  C   UNL     1      46.119   3.706   7.404  0.00  0.00    +0.000 A 
ENDBRANCH  19  21
ENDBRANCH  14  15
ENDBRANCH   1  14
TORSDOF 6
ENDMDL
MODEL 7
REMARK VINA RESULT:    -6.692      2.292      3.149
REMARK INTER + INTRA:         -10.069
REMARK INTER:                  -9.435
REMARK INTRA:                  -0.634
REMARK UNBOUND:                -1.030
REMARK  Name = 
REMARK  6 active torsions:
REMARK  status: ('A' for Active; 'I' for Inactive)
REMARK    1  A    between atoms: C_2  and  C_4
REMARK    2  A    between atoms: C_7  and  C_8
REMARK    3  A    between atoms: C_8  and  C_9
REMARK    4  A    between atoms: C_9  and  S_10
REMARK    5  A    between atoms: S_10  and  C_11
REMARK    6  A    between atoms: C_15  and  C_16
REMARK                            x       y       z     vdW  Elec       q    Type
REMARK                         _______ _______ _______ _____ _____    ______ ____
ROOT
ATOM      1  C   UNL     1      44.221   5.775  10.972  0.00  0.00    +0.000 C 
ENDROOT
BRANCH   1   2
ATOM      2  C   UNL     1      43.655   4.466  10.415  0.00  0.00    +0.000 C 
BRANCH   2   6
ATOM      3  C   UNL     1      46.442   2.461   7.791  0.00  0.00    +0.000 A 
ATOM      4  C   UNL     1      46.314   3.853   7.746  0.00  0.00    +0.000 A 
ATOM      5  C   UNL     1      45.406   4.499   8.589  0.00  0.00    +0.000 A 
ATOM      6  C   UNL     1      44.617   3.767   9.486  0.00  0.00    +0.000 A 
ATOM      7  C   UNL     1      44.731   2.367   9.503  0.00  0.00    +0.000 A 
ATOM      8  C   UNL     1      45.634   1.719   8.657  0.00  0.00    +0.000 A 
BRANCH   3  10
ATOM      9  N   UNL     1      48.441   2.452   6.395  0.00  0.00    +0.000 N 
ATOM     10  C   UNL     1      47.405   1.732   6.924  0.00  0.00    +0.000 C 
ATOM     11  O   UNL     1      47.310   0.528   6.722  0.00  0.00    +0.000 OA
ATOM     12  H   UNL     1      49.152   1.917   5.910  0.00  0.00    +0.000 HD
ATOM     13  H   UNL     1      48.701   3.360   6.750  0.00  0.00    +0.000 HD
ENDBRANCH   3  10
ENDBRANCH   2   6
ENDBRANCH   1   2
BRANCH   1  14
ATOM     14  S   UNL     1      45.086   5.431  12.546  0.00  0.00    +0.000 S 
BRANCH  14  15
ATOM     15  C   UNL     1      45.987   6.943  12.862  0.00  0.00    +0.000 A 
ATOM     16  C   UNL     1      45.519   8.105  12.241  0.00  0.00    +0.000 A 
ATOM     17  C   UNL     1      46.197   9.311  12.393  0.00  0.00    +0.000 A 
ATOM     18  C   UNL     1      47.349   9.368  13.179  0.00  0.00    +0.000 A 
ATOM     19  C   UNL     1      47.839   8.231  13.845  0.00  0.00    +0.000 A 
ATOM     20  C   UNL     1      47.144   7.019  13.650  0.00  0.00    +0.000 A 
BRANCH  19  21
ATOM     21  C   UNL     1      49.011   8.316  14.753  0.00  0.00    +0.000 A 
ATOM     22  C   UNL     1      50.173   7.563  14.504  0.00  0.00    +0.000 A 
ATOM     23  C   UNL     1      51.305   7.667  15.317  0.00  0.00    +0.000 A 
ATOM     24  C   UNL     1      51.306   8.538  16.400  0.00  0.00    +0.000 A 
ATOM     25  C   UNL     1      50.169   9.290  16.677  0.00  0.00    +0.000 A 
ATOM     26  C   UNL     1      49.032   9.173  15.869  0.00  0.00    +0.000 A 
ENDBRANCH  19  21
ENDBRANCH  14  15
ENDBRANCH   1  14
TORSDOF 6
ENDMDL
MODEL 8
REMARK VINA RESULT:    -6.531      4.292      7.632
REMARK INTER + INTRA:          -9.851
REMARK INTER:                  -8.501
REMARK INTRA:                  -1.350
REMARK UNBOUND:                -1.030
REMARK  Name = 
REMARK  6 active torsions:
REMARK  status: ('A' for Active; 'I' for Inactive)
REMARK    1  A    between atoms: C_2  and  C_4
REMARK    2  A    between atoms: C_7  and  C_8
REMARK    3  A    between atoms: C_8  and  C_9
REMARK    4  A    between atoms: C_9  and  S_10
REMARK    5  A    between atoms: S_10  and  C_11
REMARK    6  A    between atoms: C_15  and  C_16
REMARK                            x       y       z     vdW  Elec       q    Type
REMARK                         _______ _______ _______ _____ _____    ______ ____
ROOT
ATOM      1  C   UNL     1      50.124   7.801  13.606  0.00  0.00    +0.000 C 
ENDROOT
BRANCH   1   2
ATOM      2  C   UNL     1      49.262   8.165  14.817  0.00  0.00    +0.000 C 
BRANCH   2   6
ATOM      3  C   UNL     1      47.939   4.666  16.982  0.00  0.00    +0.000 A 
ATOM      4  C   UNL     1      47.635   4.806  15.624  0.00  0.00    +0.000 A 
ATOM      5  C   UNL     1      48.056   5.943  14.928  0.00  0.00    +0.000 A 
ATOM      6  C   UNL     1      48.785   6.949  15.575  0.00  0.00    +0.000 A 
ATOM      7  C   UNL     1      49.060   6.813  16.945  0.00  0.00    +0.000 A 
ATOM      8  C   UNL     1      48.635   5.682  17.644  0.00  0.00    +0.000 A 
BRANCH   3  10
ATOM      9  N   UNL     1      48.286   3.134  18.847  0.00  0.00    +0.000 N 
ATOM     10  C   UNL     1      47.526   3.468  17.760  0.00  0.00    +0.000 C 
ATOM     11  O   UNL     1      46.522   2.827  17.475  0.00  0.00    +0.000 OA
ATOM     12  H   UNL     1      47.922   2.392  19.433  0.00  0.00    +0.000 HD
ATOM     13  H   UNL     1      48.943   3.778  19.262  0.00  0.00    +0.000 HD
ENDBRANCH   3  10
ENDBRANCH   2   6
ENDBRANCH   1   2
BRANCH   1  14
ATOM     14  S   UNL     1      49.510   8.707  12.141  0.00  0.00    +0.000 S 
BRANCH  14  15
ATOM     15  C   UNL     1      47.781   8.256  12.069  0.00  0.00    +0.000 A 
ATOM     16  C   UNL     1      46.858   9.195  12.540  0.00  0.00    +0.000 A 
ATOM     17  C   UNL     1      45.498   8.899  12.569  0.00  0.00    +0.000 A 
ATOM     18  C   UNL     1      45.046   7.658  12.117  0.00  0.00    +0.000 A 
ATOM     19  C   UNL     1      45.936   6.695  11.609  0.00  0.00    +0.000 A 
ATOM     20  C   UNL     1      47.310   7.016  11.616  0.00  0.00    +0.000 A 
BRANCH  19  21
ATOM     21  C   UNL     1      45.442   5.413  11.044  0.00  0.00    +0.000 A 
ATOM     22  C   UNL     1      44.915   4.411  11.880  0.00  0.00    +0.000 A 
ATOM     23  C   UNL     1      44.398   3.219  11.365  0.00  0.00    +0.000 A 
ATOM     24  C   UNL     1      44.387   3.003   9.991  0.00  0.00    +0.000 A 
ATOM     25  C   UNL     1      44.908   3.971   9.139  0.00  0.00    +0.000 A 
ATOM     26  C   UNL     1      45.438   5.158   9.660  0.00  0.00    +0.000 A 
ENDBRANCH  19  21
ENDBRANCH  14  15
ENDBRANCH   1  14
TORSDOF 6
ENDMDL
MODEL 9
REMARK VINA RESULT:    -6.319      3.867      6.432
REMARK INTER + INTRA:          -9.566
REMARK INTER:                  -8.165
REMARK INTRA:                  -1.400
REMARK UNBOUND:                -1.030
REMARK  Name = 
REMARK  6 active torsions:
REMARK  status: ('A' for Active; 'I' for Inactive)
REMARK    1  A    between atoms: C_2  and  C_4
REMARK    2  A    between atoms: C_7  and  C_8
REMARK    3  A    between atoms: C_8  and  C_9
REMARK    4  A    between atoms: C_9  and  S_10
REMARK    5  A    between atoms: S_10  and  C_11
REMARK    6  A    between atoms: C_15  and  C_16
REMARK                            x       y       z     vdW  Elec       q    Type
REMARK                         _______ _______ _______ _____ _____    ______ ____
ROOT
ATOM      1  C   UNL     1      49.053   7.634  11.804  0.00  0.00    +0.000 C 
ENDROOT
BRANCH   1   2
ATOM      2  C   UNL     1      47.561   7.909  12.006  0.00  0.00    +0.000 C 
BRANCH   2   6
ATOM      3  C   UNL     1      45.149   4.323  11.952  0.00  0.00    +0.000 A 
ATOM      4  C   UNL     1      45.944   4.616  13.066  0.00  0.00    +0.000 A 
ATOM      5  C   UNL     1      46.730   5.773  13.078  0.00  0.00    +0.000 A 
ATOM      6  C   UNL     1      46.732   6.647  11.984  0.00  0.00    +0.000 A 
ATOM      7  C   UNL     1      45.955   6.329  10.859  0.00  0.00    +0.000 A 
ATOM      8  C   UNL     1      45.173   5.171  10.842  0.00  0.00    +0.000 A 
BRANCH   3  10
ATOM      9  N   UNL     1      44.253   2.418  10.723  0.00  0.00    +0.000 N 
ATOM     10  C   UNL     1      44.286   3.114  11.900  0.00  0.00    +0.000 C 
ATOM     11  O   UNL     1      43.661   2.723  12.879  0.00  0.00    +0.000 OA
ATOM     12  H   UNL     1      43.758   1.534  10.743  0.00  0.00    +0.000 HD
ATOM     13  H   UNL     1      44.945   2.549  10.002  0.00  0.00    +0.000 HD
ENDBRANCH   3  10
ENDBRANCH   2   6
ENDBRANCH   1   2
BRANCH   1  14
ATOM     14  S   UNL     1      50.018   8.717  12.918  0.00  0.00    +0.000 S 
BRANCH  14  15
ATOM     15  C   UNL     1      49.394   8.300  14.542  0.00  0.00    +0.000 A 
ATOM     16  C   UNL     1      48.980   9.359  15.355  0.00  0.00    +0.000 A 
ATOM     17  C   UNL     1      48.534   9.123  16.653  0.00  0.00    +0.000 A 
ATOM     18  C   UNL     1      48.490   7.819  17.147  0.00  0.00    +0.000 A 
ATOM     19  C   UNL     1      48.870   6.722  16.355  0.00  0.00    +0.000 A 
ATOM     20  C   UNL     1      49.341   6.996  15.053  0.00  0.00    +0.000 A 
BRANCH  19  21
ATOM     21  C   UNL     1      48.734   5.329  16.852  0.00  0.00    +0.000 A 
ATOM     22  C   UNL     1      49.835   4.651  17.410  0.00  0.00    +0.000 A 
ATOM     23  C   UNL     1      49.716   3.359  17.930  0.00  0.00    +0.000 A 
ATOM     24  C   UNL     1      48.486   2.714  17.914  0.00  0.00    +0.000 A 
ATOM     25  C   UNL     1      47.381   3.354  17.363  0.00  0.00    +0.000 A 
ATOM     26  C   UNL     1      47.506   4.642  16.829  0.00  0.00    +0.000 A 
ENDBRANCH  19  21
ENDBRANCH  14  15
ENDBRANCH   1  14
TORSDOF 6
ENDMDL
