MODEL 1
REMARK VINA RESULT:    -8.360      0.000      0.000
REMARK INTER + INTRA:         -12.245
REMARK INTER:                 -11.292
REMARK INTRA:                  -0.953
REMARK UNBOUND:                -0.953
REMARK  Name = 
REMARK  6 active torsions:
REMARK  status: ('A' for Active; 'I' for Inactive)
REMARK    1  A    between atoms: C_2  and  C_4
REMARK    2  A    between atoms: C_7  and  N_8
REMARK    3  A    between atoms: N_8  and  C_9
REMARK    4  A    between atoms: C_9  and  C_10
REMARK    5  A    between atoms: C_10  and  C_11
REMARK    6  A    between atoms: C_15  and  C_16
REMARK                            x       y       z     vdW  Elec       q    Type
REMARK                         _______ _______ _______ _____ _____    ______ ____
ROOT
ATOM      1  C   UNL     1      45.448   7.054  12.754  0.00  0.00    +0.000 C 
ENDROOT
BRANCH   1   2
ATOM      2  N   UNL     1      46.812   6.530  12.662  0.00  0.00    +0.000 N 
ATOM      3  H   UNL     1      47.503   7.275  12.611  0.00  0.00    +0.000 HD
BRANCH   2   7
ATOM      4  C   UNL     1      47.783   3.766  15.553  0.00  0.00    +0.000 A 
ATOM      5  C   UNL     1      48.028   5.114  15.759  0.00  0.00    +0.000 A 
ATOM      6  N   UNL     1      47.730   6.065  14.829  0.00  0.00    +0.000 NA
ATOM      7  C   UNL     1      47.181   5.631  13.675  0.00  0.00    +0.000 A 
ATOM      8  C   UNL     1      46.937   4.263  13.490  0.00  0.00    +0.000 A 
ATOM      9  N   UNL     1      47.234   3.295  14.400  0.00  0.00    +0.000 NA
BRANCH   4  11
ATOM     10  N   UNL     1      47.361   2.838  17.753  0.00  0.00    +0.000 N 
ATOM     11  C   UNL     1      48.124   2.777  16.614  0.00  0.00    +0.000 C 
ATOM     12  O   UNL     1      49.015   1.954  16.480  0.00  0.00    +0.000 OA
ATOM     13  H   UNL     1      47.533   2.180  18.498  0.00  0.00    +0.000 HD
ATOM     14  H   UNL     1      46.606   3.508  17.824  0.00  0.00    +0.000 HD
ENDBRANCH   4  11
ENDBRANCH   2   7
ENDBRANCH   1   2
BRANCH   1  15
ATOM     15  C   UNL     1      44.744   6.873  11.399  0.00  0.00    +0.000 C 
BRANCH  15  16
ATOM     16  C   UNL     1      44.510   5.423  11.066  0.00  0.00    +0.000 A 
ATOM     17  C   UNL     1      43.498   4.698  11.701  0.00  0.00    +0.000 A 
ATOM     18  C   UNL     1      43.266   3.372  11.351  0.00  0.00    +0.000 A 
ATOM     19  C   UNL     1      44.022   2.769  10.340  0.00  0.00    +0.000 A 
ATOM     20  C   UNL     1      45.013   3.483   9.642  0.00  0.00    +0.000 A 
ATOM     21  C   UNL     1      45.263   4.805  10.056  0.00  0.00    +0.000 A 
BRANCH  20  22
ATOM     22  C   UNL     1      45.678   2.926   8.440  0.00  0.00    +0.000 A 
ATOM     23  C   UNL     1      46.026   3.765   7.363  0.00  0.00    +0.000 A 
ATOM     24  C   UNL     1      46.788   3.300   6.289  0.00  0.00    +0.000 A 
ATOM     25  C   UNL     1      47.223   1.980   6.265  0.00  0.00    +0.000 A 
ATOM     26  C   UNL     1      46.866   1.118   7.298  0.00  0.00    +0.000 A 
ATOM     27  C   UNL     1      46.092   1.583   8.366  0.00  0.00    +0.000 A 
ENDBRANCH  20  22
ENDBRANCH  15  16
ENDBRANCH   1  15
TORSDOF 6
ENDMDL
MODEL 2
REMARK VINA RESULT:    -8.335      3.774      6.972
REMARK INTER + INTRA:         -12.211
REMARK INTER:                 -11.272
REMARK INTRA:                  -0.939
REMARK UNBOUND:                -0.953
REMARK  Name = 
REMARK  6 active torsions:
REMARK  status: ('A' for Active; 'I' for Inactive)
REMARK    1  A    between atoms: C_2  and  C_4
REMARK    2  A    between atoms: C_7  and  N_8
REMARK    3  A    between atoms: N_8  and  C_9
REMARK    4  A    between atoms: C_9  and  C_10
REMARK    5  A    between atoms: C_10  and  C_11
REMARK    6  A    between atoms: C_15  and  C_16
REMARK                            x       y       z     vdW  Elec       q    Type
REMARK                         _______ _______ _______ _____ _____    ______ ____
ROOT
ATOM      1  C   UNL     1      43.317   4.210  11.168  0.00  0.00    +0.000 C 
ENDROOT
BRANCH   1   2
ATOM      2  N   UNL     1      43.675   4.780   9.867  0.00  0.00    +0.000 N 
ATOM      3  H   UNL     1      43.990   5.744   9.948  0.00  0.00    +0.000 HD
BRANCH   2   7
ATOM      4  C   UNL     1      46.420   2.496   7.821  0.00  0.00    +0.000 A 
ATOM      5  C   UNL     1      46.374   3.870   7.641  0.00  0.00    +0.000 A 
ATOM      6  N   UNL     1      45.479   4.666   8.291  0.00  0.00    +0.000 NA
ATOM      7  C   UNL     1      44.619   4.049   9.129  0.00  0.00    +0.000 A 
ATOM      8  C   UNL     1      44.686   2.660   9.300  0.00  0.00    +0.000 A 
ATOM      9  N   UNL     1      45.565   1.843   8.655  0.00  0.00    +0.000 NA
BRANCH   4  11
ATOM     10  N   UNL     1      48.434   2.388   6.475  0.00  0.00    +0.000 N 
ATOM     11  C   UNL     1      47.430   1.683   7.087  0.00  0.00    +0.000 C 
ATOM     12  O   UNL     1      47.380   0.464   7.040  0.00  0.00    +0.000 OA
ATOM     13  H   UNL     1      49.158   1.890   5.980  0.00  0.00    +0.000 HD
ATOM     14  H   UNL     1      48.471   3.397   6.558  0.00  0.00    +0.000 HD
ENDBRANCH   4  11
ENDBRANCH   2   7
ENDBRANCH   1   2
BRANCH   1  15
ATOM     15  C   UNL     1      43.421   5.303  12.244  0.00  0.00    +0.000 C 
BRANCH  15  16
ATOM     16  C   UNL     1      44.840   5.526  12.697  0.00  0.00    +0.000 A 
ATOM     17  C   UNL     1      45.543   4.520  13.365  0.00  0.00    +0.000 A 
ATOM     18  C   UNL     1      46.868   4.725  13.737  0.00  0.00    +0.000 A 
ATOM     19  C   UNL     1      47.510   5.925  13.417  0.00  0.00    +0.000 A 
ATOM     20  C   UNL     1      46.851   6.939  12.699  0.00  0.00    +0.000 A 
ATOM     21  C   UNL     1      45.496   6.726  12.384  0.00  0.00    +0.000 A 
BRANCH  20  22
ATOM     22  C   UNL     1      47.573   8.124  12.178  0.00  0.00    +0.000 A 
ATOM     23  C   UNL     1      46.956   9.390  12.169  0.00  0.00    +0.000 A 
ATOM     24  C   UNL     1      47.661  10.547  11.828  0.00  0.00    +0.000 A 
ATOM     25  C   UNL     1      49.006  10.466  11.488  0.00  0.00    +0.000 A 
ATOM     26  C   UNL     1      49.635   9.225  11.454  0.00  0.00    +0.000 A 
ATOM     27  C   UNL     1      48.923   8.067  11.782  0.00  0.00    +0.000 A 
ENDBRANCH  20  22
ENDBRANCH  15  16
ENDBRANCH   1  15
TORSDOF 6
ENDMDL
MODEL 3
REMARK VINA RESULT:    -7.964      3.681      7.294
REMARK INTER + INTRA:         -11.711
REMARK INTER:                 -10.832
REMARK INTRA:                  -0.879
REMARK UNBOUND:                -0.953
REMARK  Name = 
REMARK  6 active torsions:
REMARK  status: ('A' for Active; 'I' for Inactive)
REMARK    1  A    between atoms: C_2  and  C_4
REMARK    2  A    between atoms: C_7  and  N_8
REMARK    3  A    between atoms: N_8  and  C_9
REMARK    4  A    between atoms: C_9  and  C_10
REMARK    5  A    between atoms: C_10  and  C_11
REMARK    6  A    between atoms: C_15  and  C_16
REMARK                            x       y       z     vdW  Elec       q    Type
REMARK                         _______ _______ _______ _____ _____    ______ ____
ROOT
ATOM      1  C   UNL     1      43.699   3.060  11.764  0.00  0.00    +0.000 C 
ENDROOT
BRANCH   1   2
ATOM      2  N   UNL     1      43.622   3.746  10.473  0.00  0.00    +0.000 N 
ATOM      3  H   UNL     1      43.659   4.758  10.577  0.00  0.00    +0.000 HD
BRANCH   2   7
ATOM      4  C   UNL     1      46.380   2.740   7.589  0.00  0.00    +0.000 A 
ATOM      5  C   UNL     1      45.866   1.773   8.437  0.00  0.00    +0.000 A 
ATOM      6  N   UNL     1      44.956   2.059   9.410  0.00  0.00    +0.000 NA
ATOM      7  C   UNL     1      44.574   3.349   9.521  0.00  0.00    +0.000 A 
ATOM      8  C   UNL     1      45.103   4.310   8.649  0.00  0.00    +0.000 A 
ATOM      9  N   UNL     1      46.019   4.050   7.674  0.00  0.00    +0.000 NA
BRANCH   4  11
ATOM     10  N   UNL     1      47.365   3.140   5.409  0.00  0.00    +0.000 N 
ATOM     11  C   UNL     1      47.366   2.360   6.537  0.00  0.00    +0.000 C 
ATOM     12  O   UNL     1      48.137   1.423   6.670  0.00  0.00    +0.000 OA
ATOM     13  H   UNL     1      48.024   2.943   4.671  0.00  0.00    +0.000 HD
ATOM     14  H   UNL     1      46.738   3.932   5.338  0.00  0.00    +0.000 HD
ENDBRANCH   4  11
ENDBRANCH   2   7
ENDBRANCH   1   2
BRANCH   1  15
ATOM     15  C   UNL     1      43.532   4.088  12.894  0.00  0.00    +0.000 C 
BRANCH  15  16
ATOM     16  C   UNL     1      44.698   5.038  12.979  0.00  0.00    +0.000 A 
ATOM     17  C   UNL     1      45.963   4.583  13.359  0.00  0.00    +0.000 A 
ATOM     18  C   UNL     1      47.040   5.464  13.390  0.00  0.00    +0.000 A 
ATOM     19  C   UNL     1      46.867   6.798  13.011  0.00  0.00    +0.000 A 
ATOM     20  C   UNL     1      45.621   7.279  12.571  0.00  0.00    +0.000 A 
ATOM     21  C   UNL     1      44.538   6.380  12.603  0.00  0.00    +0.000 A 
BRANCH  20  22
ATOM     22  C   UNL     1      45.468   8.628  11.976  0.00  0.00    +0.000 A 
ATOM     23  C   UNL     1      44.320   8.953  11.226  0.00  0.00    +0.000 A 
ATOM     24  C   UNL     1      44.077  10.255  10.784  0.00  0.00    +0.000 A 
ATOM     25  C   UNL     1      44.978  11.270  11.085  0.00  0.00    +0.000 A 
ATOM     26  C   UNL     1      46.138  10.974  11.795  0.00  0.00    +0.000 A 
ATOM     27  C   UNL     1      46.385   9.666  12.224  0.00  0.00    +0.000 A 
ENDBRANCH  20  22
ENDBRANCH  15  16
ENDBRANCH   1  15
TORSDOF 6
ENDMDL
MODEL 4
REMARK VINA RESULT:    -7.753      3.504      7.648
REMARK INTER + INTRA:         -11.426
REMARK INTER:                 -10.568
REMARK INTRA:                  -0.857
REMARK UNBOUND:                -0.953
REMARK  Name = 
REMARK  6 active torsions:
REMARK  status: ('A' for Active; 'I' for Inactive)
REMARK    1  A    between atoms: C_2  and  C_4
REMARK    2  A    between atoms: C_7  and  N_8
REMARK    3  A    between atoms: N_8  and  C_9
REMARK    4  A    between atoms: C_9  and  C_10
REMARK    5  A    between atoms: C_10  and  C_11
REMARK    6  A    between atoms: C_15  and  C_16
REMARK                            x       y       z     vdW  Elec       q    Type
REMARK                         _______ _______ _______ _____ _____    ______ ____
ROOT
ATOM      1  C   UNL     1      43.606   4.983  10.704  0.00  0.00    +0.000 C 
ENDROOT
BRANCH   1   2
ATOM      2  N   UNL     1      43.613   3.615  10.182  0.00  0.00    +0.000 N 
ATOM      3  H   UNL     1      42.707   3.347   9.805  0.00  0.00    +0.000 HD
BRANCH   2   7
ATOM      4  C   UNL     1      46.562   2.649   7.478  0.00  0.00    +0.000 A 
ATOM      5  C   UNL     1      46.085   3.947   7.564  0.00  0.00    +0.000 A 
ATOM      6  N   UNL     1      45.106   4.313   8.439  0.00  0.00    +0.000 NA
ATOM      7  C   UNL     1      44.606   3.339   9.229  0.00  0.00    +0.000 A 
ATOM      8  C   UNL     1      45.107   2.034   9.129  0.00  0.00    +0.000 A 
ATOM      9  N   UNL     1      46.079   1.643   8.257  0.00  0.00    +0.000 NA
BRANCH   4  11
ATOM     10  N   UNL     1      47.715   3.118   5.398  0.00  0.00    +0.000 N 
ATOM     11  C   UNL     1      47.642   2.316   6.507  0.00  0.00    +0.000 C 
ATOM     12  O   UNL     1      48.424   1.396   6.688  0.00  0.00    +0.000 OA
ATOM     13  H   UNL     1      48.439   2.953   4.714  0.00  0.00    +0.000 HD
ATOM     14  H   UNL     1      47.075   3.896   5.289  0.00  0.00    +0.000 HD
ENDBRANCH   4  11
ENDBRANCH   2   7
ENDBRANCH   1   2
BRANCH   1  15
ATOM     15  C   UNL     1      43.868   4.947  12.219  0.00  0.00    +0.000 C 
BRANCH  15  16
ATOM     16  C   UNL     1      45.278   5.349  12.564  0.00  0.00    +0.000 A 
ATOM     17  C   UNL     1      45.967   6.279  11.782  0.00  0.00    +0.000 A 
ATOM     18  C   UNL     1      47.253   6.673  12.139  0.00  0.00    +0.000 A 
ATOM     19  C   UNL     1      47.847   6.164  13.298  0.00  0.00    +0.000 A 
ATOM     20  C   UNL     1      47.164   5.267  14.138  0.00  0.00    +0.000 A 
ATOM     21  C   UNL     1      45.887   4.844  13.723  0.00  0.00    +0.000 A 
BRANCH  20  22
ATOM     22  C   UNL     1      47.695   4.879  15.467  0.00  0.00    +0.000 A 
ATOM     23  C   UNL     1      48.478   5.781  16.214  0.00  0.00    +0.000 A 
ATOM     24  C   UNL     1      48.863   5.502  17.528  0.00  0.00    +0.000 A 
ATOM     25  C   UNL     1      48.472   4.312  18.129  0.00  0.00    +0.000 A 
ATOM     26  C   UNL     1      47.728   3.385  17.404  0.00  0.00    +0.000 A 
ATOM     27  C   UNL     1      47.355   3.662  16.085  0.00  0.00    +0.000 A 
ENDBRANCH  20  22
ENDBRANCH  15  16
ENDBRANCH   1  15
TORSDOF 6
ENDMDL
MODEL 5
REMARK VINA RESULT:    -7.434      4.108      7.562
REMARK INTER + INTRA:         -10.995
REMARK INTER:                 -10.347
REMARK INTRA:                  -0.648
REMARK UNBOUND:                -0.953
REMARK  Name = 
REMARK  6 active torsions:
REMARK  status: ('A' for Active; 'I' for Inactive)
REMARK    1  A    between atoms: C_2  and  C_4
REMARK    2  A    between atoms: C_7  and  N_8
REMARK    3  A    between atoms: N_8  and  C_9
REMARK    4  A    between atoms: C_9  and  C_10
REMARK    5  A    between atoms: C_10  and  C_11
REMARK    6  A    between atoms: C_15  and  C_16
REMARK                            x       y       z     vdW  Elec       q    Type
REMARK                         _______ _______ _______ _____ _____    ______ ____
ROOT
ATOM      1  C   UNL     1      44.079   4.945  11.298  0.00  0.00    +0.000 C 
ENDROOT
BRANCH   1   2
ATOM      2  N   UNL     1      43.788   4.836   9.867  0.00  0.00    +0.000 N 
ATOM      3  H   UNL     1      43.732   5.749   9.421  0.00  0.00    +0.000 HD
BRANCH   2   7
ATOM      4  C   UNL     1      46.340   2.314   7.852  0.00  0.00    +0.000 A 
ATOM      5  C   UNL     1      46.283   3.661   7.529  0.00  0.00    +0.000 A 
ATOM      6  N   UNL     1      45.449   4.533   8.164  0.00  0.00    +0.000 NA
ATOM      7  C   UNL     1      44.662   4.020   9.134  0.00  0.00    +0.000 A 
ATOM      8  C   UNL     1      44.741   2.656   9.447  0.00  0.00    +0.000 A 
ATOM      9  N   UNL     1      45.559   1.765   8.822  0.00  0.00    +0.000 NA
BRANCH   4  11
ATOM     10  N   UNL     1      48.396   2.016   6.601  0.00  0.00    +0.000 N 
ATOM     11  C   UNL     1      47.281   1.415   7.126  0.00  0.00    +0.000 C 
ATOM     12  O   UNL     1      47.084   0.215   7.014  0.00  0.00    +0.000 OA
ATOM     13  H   UNL     1      49.079   1.454   6.116  0.00  0.00    +0.000 HD
ATOM     14  H   UNL     1      48.552   3.007   6.738  0.00  0.00    +0.000 HD
ENDBRANCH   4  11
ENDBRANCH   2   7
ENDBRANCH   1   2
BRANCH   1  15
ATOM     15  C   UNL     1      45.505   5.488  11.484  0.00  0.00    +0.000 C 
BRANCH  15  16
ATOM     16  C   UNL     1      45.515   6.938  11.892  0.00  0.00    +0.000 A 
ATOM     17  C   UNL     1      46.493   7.429  12.760  0.00  0.00    +0.000 A 
ATOM     18  C   UNL     1      46.515   8.781  13.092  0.00  0.00    +0.000 A 
ATOM     19  C   UNL     1      45.579   9.657  12.533  0.00  0.00    +0.000 A 
ATOM     20  C   UNL     1      44.614   9.208  11.614  0.00  0.00    +0.000 A 
ATOM     21  C   UNL     1      44.581   7.828  11.340  0.00  0.00    +0.000 A 
BRANCH  20  22
ATOM     22  C   UNL     1      43.752  10.151  10.862  0.00  0.00    +0.000 A 
ATOM     23  C   UNL     1      43.813  10.209   9.456  0.00  0.00    +0.000 A 
ATOM     24  C   UNL     1      42.910  10.973   8.713  0.00  0.00    +0.000 A 
ATOM     25  C   UNL     1      41.918  11.699   9.361  0.00  0.00    +0.000 A 
ATOM     26  C   UNL     1      41.852  11.689  10.752  0.00  0.00    +0.000 A 
ATOM     27  C   UNL     1      42.767  10.934  11.492  0.00  0.00    +0.000 A 
ENDBRANCH  20  22
ENDBRANCH  15  16
ENDBRANCH   1  15
TORSDOF 6
ENDMDL
MODEL 6
REMARK VINA RESULT:    -7.279      1.663      2.169
REMARK INTER + INTRA:         -10.785
REMARK INTER:                 -10.085
REMARK INTRA:                  -0.701
REMARK UNBOUND:                -0.953
REMARK  Name = 
REMARK  6 active torsions:
REMARK  status: ('A' for Active; 'I' for Inactive)
REMARK    1  A    between atoms: C_2  and  C_4
REMARK    2  A    between atoms: C_7  and  N_8
REMARK    3  A    between atoms: N_8  and  C_9
REMARK    4  A    between atoms: C_9  and  C_10
REMARK    5  A    between atoms: C_10  and  C_11
REMARK    6  A    between atoms: C_15  and  C_16
REMARK                            x       y       z     vdW  Elec       q    Type
REMARK                         _______ _______ _______ _____ _____    ______ ____
ROOT
ATOM      1  C   UNL     1      47.394   5.935  13.382  0.00  0.00    +0.000 C 
ENDROOT
BRANCH   1   2
ATOM      2  N   UNL     1      46.778   5.053  14.375  0.00  0.00    +0.000 N 
ATOM      3  H   UNL     1      46.582   4.130  13.994  0.00  0.00    +0.000 HD
BRANCH   2   7
ATOM      4  C   UNL     1      48.707   4.551  17.975  0.00  0.00    +0.000 A 
ATOM      5  C   UNL     1      49.156   5.492  17.063  0.00  0.00    +0.000 A 
ATOM      6  N   UNL     1      48.554   5.689  15.856  0.00  0.00    +0.000 NA
ATOM      7  C   UNL     1      47.486   4.912  15.578  0.00  0.00    +0.000 A 
ATOM      8  C   UNL     1      47.045   3.970  16.518  0.00  0.00    +0.000 A 
ATOM      9  N   UNL     1      47.635   3.749  17.726  0.00  0.00    +0.000 NA
BRANCH   4  11
ATOM     10  N   UNL     1      48.645   3.877  20.304  0.00  0.00    +0.000 N 
ATOM     11  C   UNL     1      49.403   4.390  19.283  0.00  0.00    +0.000 C 
ATOM     12  O   UNL     1      50.578   4.683  19.439  0.00  0.00    +0.000 OA
ATOM     13  H   UNL     1      49.069   3.728  21.207  0.00  0.00    +0.000 HD
ATOM     14  H   UNL     1      47.682   3.611  20.139  0.00  0.00    +0.000 HD
ENDBRANCH   4  11
ENDBRANCH   2   7
ENDBRANCH   1   2
BRANCH   1  15
ATOM     15  C   UNL     1      46.312   6.835  12.764  0.00  0.00    +0.000 C 
BRANCH  15  16
ATOM     16  C   UNL     1      45.325   6.056  11.936  0.00  0.00    +0.000 A 
ATOM     17  C   UNL     1      43.955   6.315  12.026  0.00  0.00    +0.000 A 
ATOM     18  C   UNL     1      43.059   5.617  11.221  0.00  0.00    +0.000 A 
ATOM     19  C   UNL     1      43.529   4.678  10.298  0.00  0.00    +0.000 A 
ATOM     20  C   UNL     1      44.904   4.429  10.142  0.00  0.00    +0.000 A 
ATOM     21  C   UNL     1      45.782   5.109  11.007  0.00  0.00    +0.000 A 
BRANCH  20  22
ATOM     22  C   UNL     1      45.427   3.592   9.035  0.00  0.00    +0.000 A 
ATOM     23  C   UNL     1      46.029   4.190   7.910  0.00  0.00    +0.000 A 
ATOM     24  C   UNL     1      46.665   3.428   6.928  0.00  0.00    +0.000 A 
ATOM     25  C   UNL     1      46.717   2.045   7.047  0.00  0.00    +0.000 A 
ATOM     26  C   UNL     1      46.101   1.422   8.129  0.00  0.00    +0.000 A 
ATOM     27  C   UNL     1      45.454   2.187   9.104  0.00  0.00    +0.000 A 
ENDBRANCH  20  22
ENDBRANCH  15  16
ENDBRANCH   1  15
TORSDOF 6
ENDMDL
MODEL 7
REMARK VINA RESULT:    -7.162      4.474      7.406
REMARK INTER + INTRA:         -10.627
REMARK INTER:                  -9.933
REMARK INTRA:                  -0.694
REMARK UNBOUND:                -0.953
REMARK  Name = 
REMARK  6 active torsions:
REMARK  status: ('A' for Active; 'I' for Inactive)
REMARK    1  A    between atoms: C_2  and  C_4
REMARK    2  A    between atoms: C_7  and  N_8
REMARK    3  A    between atoms: N_8  and  C_9
REMARK    4  A    between atoms: C_9  and  C_10
REMARK    5  A    between atoms: C_10  and  C_11
REMARK    6  A    between atoms: C_15  and  C_16
REMARK                            x       y       z     vdW  Elec       q    Type
REMARK                         _______ _______ _______ _____ _____    ______ ____
ROOT
ATOM      1  C   UNL     1      44.235   4.904  11.167  0.00  0.00    +0.000 C 
ENDROOT
BRANCH   1   2
ATOM      2  N   UNL     1      44.156   3.542  10.635  0.00  0.00    +0.000 N 
ATOM      3  H   UNL     1      43.200   3.280  10.402  0.00  0.00    +0.000 HD
BRANCH   2   7
ATOM      4  C   UNL     1      46.534   2.922   7.334  0.00  0.00    +0.000 A 
ATOM      5  C   UNL     1      46.187   1.864   8.159  0.00  0.00    +0.000 A 
ATOM      6  N   UNL     1      45.408   2.022   9.266  0.00  0.00    +0.000 NA
ATOM      7  C   UNL     1      44.985   3.275   9.535  0.00  0.00    +0.000 A 
ATOM      8  C   UNL     1      45.343   4.330   8.684  0.00  0.00    +0.000 A 
ATOM      9  N   UNL     1      46.127   4.198   7.577  0.00  0.00    +0.000 NA
BRANCH   4  11
ATOM     10  N   UNL     1      48.613   2.127   6.372  0.00  0.00    +0.000 N 
ATOM     11  C   UNL     1      47.382   2.682   6.133  0.00  0.00    +0.000 C 
ATOM     12  O   UNL     1      47.005   2.947   5.002  0.00  0.00    +0.000 OA
ATOM     13  H   UNL     1      49.223   1.923   5.595  0.00  0.00    +0.000 HD
ATOM     14  H   UNL     1      48.887   1.885   7.316  0.00  0.00    +0.000 HD
ENDBRANCH   4  11
ENDBRANCH   2   7
ENDBRANCH   1   2
BRANCH   1  15
ATOM     15  C   UNL     1      45.516   5.046  12.005  0.00  0.00    +0.000 C 
BRANCH  15  16
ATOM     16  C   UNL     1      45.958   6.481  12.134  0.00  0.00    +0.000 A 
ATOM     17  C   UNL     1      45.125   7.433  12.726  0.00  0.00    +0.000 A 
ATOM     18  C   UNL     1      45.565   8.745  12.879  0.00  0.00    +0.000 A 
ATOM     19  C   UNL     1      46.853   9.106  12.470  0.00  0.00    +0.000 A 
ATOM     20  C   UNL     1      47.738   8.162  11.920  0.00  0.00    +0.000 A 
ATOM     21  C   UNL     1      47.246   6.857  11.727  0.00  0.00    +0.000 A 
BRANCH  20  22
ATOM     22  C   UNL     1      49.165   8.479  11.671  0.00  0.00    +0.000 A 
ATOM     23  C   UNL     1      50.065   7.466  11.286  0.00  0.00    +0.000 A 
ATOM     24  C   UNL     1      51.375   7.758  10.898  0.00  0.00    +0.000 A 
ATOM     25  C   UNL     1      51.817   9.076  10.885  0.00  0.00    +0.000 A 
ATOM     26  C   UNL     1      50.962  10.095  11.294  0.00  0.00    +0.000 A 
ATOM     27  C   UNL     1      49.656   9.797  11.694  0.00  0.00    +0.000 A 
ENDBRANCH  20  22
ENDBRANCH  15  16
ENDBRANCH   1  15
TORSDOF 6
ENDMDL
MODEL 8
REMARK VINA RESULT:    -7.108      1.793      3.415
REMARK INTER + INTRA:         -10.554
REMARK INTER:                  -9.588
REMARK INTRA:                  -0.966
REMARK UNBOUND:                -0.953
REMARK  Name = 
REMARK  6 active torsions:
REMARK  status: ('A' for Active; 'I' for Inactive)
REMARK    1  A    between atoms: C_2  and  C_4
REMARK    2  A    between atoms: C_7  and  N_8
REMARK    3  A    between atoms: N_8  and  C_9
REMARK    4  A    between atoms: C_9  and  C_10
REMARK    5  A    between atoms: C_10  and  C_11
REMARK    6  A    between atoms: C_15  and  C_16
REMARK                            x       y       z     vdW  Elec       q    Type
REMARK                         _______ _______ _______ _____ _____    ______ ____
ROOT
ATOM      1  C   UNL     1      49.588   7.301  13.172  0.00  0.00    +0.000 C 
ENDROOT
BRANCH   1   2
ATOM      2  N   UNL     1      49.007   7.660  14.467  0.00  0.00    +0.000 N 
ATOM      3  H   UNL     1      48.237   8.319  14.369  0.00  0.00    +0.000 HD
BRANCH   2   7
ATOM      4  C   UNL     1      47.913   4.542  16.919  0.00  0.00    +0.000 A 
ATOM      5  C   UNL     1      47.530   4.556  15.588  0.00  0.00    +0.000 A 
ATOM      6  N   UNL     1      47.862   5.570  14.739  0.00  0.00    +0.000 NA
ATOM      7  C   UNL     1      48.589   6.581  15.261  0.00  0.00    +0.000 A 
ATOM      8  C   UNL     1      48.971   6.543  16.609  0.00  0.00    +0.000 A 
ATOM      9  N   UNL     1      48.643   5.546  17.477  0.00  0.00    +0.000 NA
BRANCH   4  11
ATOM     10  N   UNL     1      48.343   3.166  18.869  0.00  0.00    +0.000 N 
ATOM     11  C   UNL     1      47.525   3.398  17.793  0.00  0.00    +0.000 C 
ATOM     12  O   UNL     1      46.536   2.716  17.577  0.00  0.00    +0.000 OA
ATOM     13  H   UNL     1      48.119   2.417  19.507  0.00  0.00    +0.000 HD
ATOM     14  H   UNL     1      49.138   3.768  19.044  0.00  0.00    +0.000 HD
ENDBRANCH   4  11
ENDBRANCH   2   7
ENDBRANCH   1   2
BRANCH   1  15
ATOM     15  C   UNL     1      48.902   8.119  12.066  0.00  0.00    +0.000 C 
BRANCH  15  16
ATOM     16  C   UNL     1      47.433   7.805  11.951  0.00  0.00    +0.000 A 
ATOM     17  C   UNL     1      46.471   8.740  12.339  0.00  0.00    +0.000 A 
ATOM     18  C   UNL     1      45.118   8.453  12.186  0.00  0.00    +0.000 A 
ATOM     19  C   UNL     1      44.717   7.242  11.613  0.00  0.00    +0.000 A 
ATOM     20  C   UNL     1      45.658   6.299  11.161  0.00  0.00    +0.000 A 
ATOM     21  C   UNL     1      47.017   6.593  11.380  0.00  0.00    +0.000 A 
BRANCH  20  22
ATOM     22  C   UNL     1      45.257   5.109  10.373  0.00  0.00    +0.000 A 
ATOM     23  C   UNL     1      45.676   4.964   9.035  0.00  0.00    +0.000 A 
ATOM     24  C   UNL     1      45.444   3.788   8.318  0.00  0.00    +0.000 A 
ATOM     25  C   UNL     1      44.786   2.724   8.924  0.00  0.00    +0.000 A 
ATOM     26  C   UNL     1      44.330   2.849  10.232  0.00  0.00    +0.000 A 
ATOM     27  C   UNL     1      44.552   4.033  10.943  0.00  0.00    +0.000 A 
ENDBRANCH  20  22
ENDBRANCH  15  16
ENDBRANCH   1  15
TORSDOF 6
ENDMDL
MODEL 9
REMARK VINA RESULT:    -7.037      2.400      2.576
REMARK INTER + INTRA:         -10.458
REMARK INTER:                  -9.692
REMARK INTRA:                  -0.766
REMARK UNBOUND:                -0.953
REMARK  Name = 
REMARK  6 active torsions:
REMARK  status: ('A' for Active; 'I' for Inactive)
REMARK    1  A    between atoms: C_2  and  C_4
REMARK    2  A    between atoms: C_7  and  N_8
REMARK    3  A    between atoms: N_8  and  C_9
REMARK    4  A    between atoms: C_9  and  C_10
REMARK    5  A    between atoms: C_10  and  C_11
REMARK    6  A    between atoms: C_15  and  C_16
REMARK                            x       y       z     vdW  Elec       q    Type
REMARK                         _______ _______ _______ _____ _____    ______ ____
ROOT
ATOM      1  C   UNL     1      45.686   7.264  11.147  0.00  0.00    +0.000 C 
ENDROOT
BRANCH   1   2
ATOM      2  N   UNL     1      45.993   8.274  12.161  0.00  0.00    +0.000 N 
ATOM      3  H   UNL     1      45.185   8.490  12.740  0.00  0.00    +0.000 HD
BRANCH   2   7
ATOM      4  C   UNL     1      49.210   7.251  14.516  0.00  0.00    +0.000 A 
ATOM      5  C   UNL     1      48.393   8.314  14.865  0.00  0.00    +0.000 A 
ATOM      6  N   UNL     1      47.321   8.695  14.114  0.00  0.00    +0.000 NA
ATOM      7  C   UNL     1      47.087   7.983  12.991  0.00  0.00    +0.000 A 
ATOM      8  C   UNL     1      47.923   6.908  12.659  0.00  0.00    +0.000 A 
ATOM      9  N   UNL     1      49.004   6.515  13.390  0.00  0.00    +0.000 NA
BRANCH   4  11
ATOM     10  N   UNL     1      51.568   7.436  15.049  0.00  0.00    +0.000 N 
ATOM     11  C   UNL     1      50.361   6.880  15.386  0.00  0.00    +0.000 C 
ATOM     12  O   UNL     1      50.241   6.138  16.348  0.00  0.00    +0.000 OA
ATOM     13  H   UNL     1      52.380   7.237  15.614  0.00  0.00    +0.000 HD
ATOM     14  H   UNL     1      51.632   8.076  14.266  0.00  0.00    +0.000 HD
ENDBRANCH   4  11
ENDBRANCH   2   7
ENDBRANCH   1   2
BRANCH   1  15
ATOM     15  C   UNL     1      44.307   6.653  11.443  0.00  0.00    +0.000 C 
BRANCH  15  16
ATOM     16  C   UNL     1      44.251   5.184  11.114  0.00  0.00    +0.000 A 
ATOM     17  C   UNL     1      43.362   4.336  11.779  0.00  0.00    +0.000 A 
ATOM     18  C   UNL     1      43.291   2.990  11.433  0.00  0.00    +0.000 A 
ATOM     19  C   UNL     1      44.084   2.489  10.397  0.00  0.00    +0.000 A 
ATOM     20  C   UNL     1      44.952   3.323   9.669  0.00  0.00    +0.000 A 
ATOM     21  C   UNL     1      45.043   4.667  10.078  0.00  0.00    +0.000 A 
BRANCH  20  22
ATOM     22  C   UNL     1      45.643   2.854   8.444  0.00  0.00    +0.000 A 
ATOM     23  C   UNL     1      45.905   3.747   7.386  0.00  0.00    +0.000 A 
ATOM     24  C   UNL     1      46.687   3.374   6.290  0.00  0.00    +0.000 A 
ATOM     25  C   UNL     1      47.229   2.096   6.225  0.00  0.00    +0.000 A 
ATOM     26  C   UNL     1      46.959   1.181   7.238  0.00  0.00    +0.000 A 
ATOM     27  C   UNL     1      46.165   1.553   8.328  0.00  0.00    +0.000 A 
ENDBRANCH  20  22
ENDBRANCH  15  16
ENDBRANCH   1  15
TORSDOF 6
ENDMDL
