MODEL 1
REMARK VINA RESULT:    -7.649      0.000      0.000
REMARK INTER + INTRA:         -12.253
REMARK INTER:                 -11.226
REMARK INTRA:                  -1.027
REMARK UNBOUND:                -1.027
REMARK  Name = 
REMARK  9 active torsions:
REMARK  status: ('A' for Active; 'I' for Inactive)
REMARK    1  A    between atoms: C_1  and  C_2
REMARK    2  A    between atoms: C_2  and  O_3
REMARK    3  A    between atoms: O_3  and  C_4
REMARK    4  A    between atoms: C_6  and  C_7
REMARK    5  A    between atoms: C_12  and  N_13
REMARK    6  A    between atoms: N_13  and  C_14
REMARK    7  A    between atoms: C_14  and  C_15
REMARK    8  A    between atoms: C_15  and  C_16
REMARK    9  A    between atoms: C_20  and  C_21
REMARK                            x       y       z     vdW  Elec       q    Type
REMARK                         _______ _______ _______ _____ _____    ______ ____
ROOT
ATOM      1  N   UNL     1      46.549   5.914  12.921  0.00  0.00    +0.000 N 
ATOM      2  H   UNL     1      47.141   5.767  12.114  0.00  0.00    +0.000 HD
ENDROOT
BRANCH   1   8
ATOM      3  C   UNL     1      48.083   6.404  14.811  0.00  0.00    +0.000 A 
ATOM      4  C   UNL     1      48.574   5.943  16.036  0.00  0.00    +0.000 A 
ATOM      5  C   UNL     1      48.141   4.731  16.568  0.00  0.00    +0.000 A 
ATOM      6  C   UNL     1      47.230   4.008  15.823  0.00  0.00    +0.000 A 
ATOM      7  N   UNL     1      46.742   4.410  14.620  0.00  0.00    +0.000 NA
ATOM      8  C   UNL     1      47.155   5.600  14.116  0.00  0.00    +0.000 A 
BRANCH   5   9
ATOM      9  C   UNL     1      48.682   4.317  17.886  0.00  0.00    +0.000 C 
ATOM     10  N   UNL     1      47.892   3.604  18.740  0.00  0.00    +0.000 N 
ATOM     11  O   UNL     1      49.823   4.615  18.221  0.00  0.00    +0.000 OA
ATOM     12  H   UNL     1      46.936   3.333  18.578  0.00  0.00    +0.000 HD
ATOM     13  H   UNL     1      48.306   3.367  19.633  0.00  0.00    +0.000 HD
ENDBRANCH   5   9
BRANCH   3  14
ATOM     14  O   UNL     1      48.484   7.599  14.264  0.00  0.00    +0.000 OA
BRANCH  14  16
ATOM     15  C   UNL     1      49.698   7.396  12.208  0.00  0.00    +0.000 C 
ATOM     16  C   UNL     1      49.794   7.658  13.698  0.00  0.00    +0.000 C 
ENDBRANCH  14  16
ENDBRANCH   3  14
ENDBRANCH   1   8
BRANCH   1  17
ATOM     17  C   UNL     1      45.318   6.664  12.814  0.00  0.00    +0.000 C 
BRANCH  17  18
ATOM     18  C   UNL     1      44.641   6.513  11.448  0.00  0.00    +0.000 C 
BRANCH  18  19
ATOM     19  C   UNL     1      44.529   5.037  11.132  0.00  0.00    +0.000 A 
ATOM     20  C   UNL     1      43.559   4.244  11.753  0.00  0.00    +0.000 A 
ATOM     21  C   UNL     1      43.360   2.932  11.331  0.00  0.00    +0.000 A 
ATOM     22  C   UNL     1      44.108   2.412  10.269  0.00  0.00    +0.000 A 
ATOM     23  C   UNL     1      45.069   3.189   9.598  0.00  0.00    +0.000 A 
ATOM     24  C   UNL     1      45.284   4.494  10.078  0.00  0.00    +0.000 A 
BRANCH  23  25
ATOM     25  C   UNL     1      45.744   2.717   8.366  0.00  0.00    +0.000 A 
ATOM     26  C   UNL     1      46.015   3.601   7.303  0.00  0.00    +0.000 A 
ATOM     27  C   UNL     1      46.756   3.200   6.187  0.00  0.00    +0.000 A 
ATOM     28  C   UNL     1      47.251   1.903   6.109  0.00  0.00    +0.000 A 
ATOM     29  C   UNL     1      46.981   1.000   7.132  0.00  0.00    +0.000 A 
ATOM     30  C   UNL     1      46.227   1.400   8.240  0.00  0.00    +0.000 A 
ENDBRANCH  23  25
ENDBRANCH  18  19
ENDBRANCH  17  18
ENDBRANCH   1  17
TORSDOF 8
ENDMDL
MODEL 2
REMARK VINA RESULT:    -7.640      1.577      1.984
REMARK INTER + INTRA:         -12.240
REMARK INTER:                 -11.193
REMARK INTRA:                  -1.047
REMARK UNBOUND:                -1.027
REMARK  Name = 
REMARK  9 active torsions:
REMARK  status: ('A' for Active; 'I' for Inactive)
REMARK    1  A    between atoms: C_1  and  C_2
REMARK    2  A    between atoms: C_2  and  O_3
REMARK    3  A    between atoms: O_3  and  C_4
REMARK    4  A    between atoms: C_6  and  C_7
REMARK    5  A    between atoms: C_12  and  N_13
REMARK    6  A    between atoms: N_13  and  C_14
REMARK    7  A    between atoms: C_14  and  C_15
REMARK    8  A    between atoms: C_15  and  C_16
REMARK    9  A    between atoms: C_20  and  C_21
REMARK                            x       y       z     vdW  Elec       q    Type
REMARK                         _______ _______ _______ _____ _____    ______ ____
ROOT
ATOM      1  N   UNL     1      48.123   7.277  13.225  0.00  0.00    +0.000 N 
ATOM      2  H   UNL     1      48.427   8.205  13.489  0.00  0.00    +0.000 HD
ENDROOT
BRANCH   1   8
ATOM      3  C   UNL     1      48.663   6.580  15.545  0.00  0.00    +0.000 A 
ATOM      4  C   UNL     1      48.490   5.583  16.511  0.00  0.00    +0.000 A 
ATOM      5  C   UNL     1      47.743   4.442  16.233  0.00  0.00    +0.000 A 
ATOM      6  C   UNL     1      47.206   4.337  14.964  0.00  0.00    +0.000 A 
ATOM      7  N   UNL     1      47.366   5.271  13.991  0.00  0.00    +0.000 NA
ATOM      8  C   UNL     1      48.081   6.389  14.274  0.00  0.00    +0.000 A 
BRANCH   5   9
ATOM      9  C   UNL     1      47.578   3.439  17.313  0.00  0.00    +0.000 C 
ATOM     10  N   UNL     1      48.637   3.147  18.123  0.00  0.00    +0.000 N 
ATOM     11  O   UNL     1      46.509   2.863  17.481  0.00  0.00    +0.000 OA
ATOM     12  H   UNL     1      49.562   3.536  18.055  0.00  0.00    +0.000 HD
ATOM     13  H   UNL     1      48.472   2.440  18.830  0.00  0.00    +0.000 HD
ENDBRANCH   5   9
BRANCH   3  14
ATOM     14  O   UNL     1      49.388   7.721  15.792  0.00  0.00    +0.000 OA
BRANCH  14  16
ATOM     15  C   UNL     1      48.072   9.414  16.861  0.00  0.00    +0.000 C 
ATOM     16  C   UNL     1      49.171   8.384  17.037  0.00  0.00    +0.000 C 
ENDBRANCH  14  16
ENDBRANCH   3  14
ENDBRANCH   1   8
BRANCH   1  17
ATOM     17  C   UNL     1      47.514   7.033  11.937  0.00  0.00    +0.000 C 
BRANCH  17  18
ATOM     18  C   UNL     1      46.061   7.515  11.860  0.00  0.00    +0.000 C 
BRANCH  18  19
ATOM     19  C   UNL     1      45.201   6.363  11.386  0.00  0.00    +0.000 A 
ATOM     20  C   UNL     1      43.828   6.341  11.643  0.00  0.00    +0.000 A 
ATOM     21  C   UNL     1      43.027   5.363  11.058  0.00  0.00    +0.000 A 
ATOM     22  C   UNL     1      43.587   4.418  10.191  0.00  0.00    +0.000 A 
ATOM     23  C   UNL     1      44.959   4.429   9.883  0.00  0.00    +0.000 A 
ATOM     24  C   UNL     1      45.752   5.396  10.526  0.00  0.00    +0.000 A 
BRANCH  23  25
ATOM     25  C   UNL     1      45.538   3.551   8.838  0.00  0.00    +0.000 A 
ATOM     26  C   UNL     1      46.188   4.094   7.713  0.00  0.00    +0.000 A 
ATOM     27  C   UNL     1      46.843   3.282   6.781  0.00  0.00    +0.000 A 
ATOM     28  C   UNL     1      46.868   1.903   6.956  0.00  0.00    +0.000 A 
ATOM     29  C   UNL     1      46.215   1.335   8.044  0.00  0.00    +0.000 A 
ATOM     30  C   UNL     1      45.549   2.149   8.967  0.00  0.00    +0.000 A 
ENDBRANCH  23  25
ENDBRANCH  18  19
ENDBRANCH  17  18
ENDBRANCH   1  17
TORSDOF 8
ENDMDL
MODEL 3
REMARK VINA RESULT:    -7.590      3.423      8.205
REMARK INTER + INTRA:         -12.167
REMARK INTER:                 -11.026
REMARK INTRA:                  -1.141
REMARK UNBOUND:                -1.027
REMARK  Name = 
REMARK  9 active torsions:
REMARK  status: ('A' for Active; 'I' for Inactive)
REMARK    1  A    between atoms: C_1  and  C_2
REMARK    2  A    between atoms: C_2  and  O_3
REMARK    3  A    between atoms: O_3  and  C_4
REMARK    4  A    between atoms: C_6  and  C_7
REMARK    5  A    between atoms: C_12  and  N_13
REMARK    6  A    between atoms: N_13  and  C_14
REMARK    7  A    between atoms: C_14  and  C_15
REMARK    8  A    between atoms: C_15  and  C_16
REMARK    9  A    between atoms: C_20  and  C_21
REMARK                            x       y       z     vdW  Elec       q    Type
REMARK                         _______ _______ _______ _____ _____    ______ ____
ROOT
ATOM      1  N   UNL     1      44.322   5.269   9.845  0.00  0.00    +0.000 N 
ATOM      2  H   UNL     1      43.325   5.196   9.692  0.00  0.00    +0.000 HD
ENDROOT
BRANCH   1   8
ATOM      3  C   UNL     1      45.013   2.915   9.469  0.00  0.00    +0.000 A 
ATOM      4  C   UNL     1      45.800   2.063   8.687  0.00  0.00    +0.000 A 
ATOM      5  C   UNL     1      46.587   2.566   7.654  0.00  0.00    +0.000 A 
ATOM      6  C   UNL     1      46.565   3.934   7.458  0.00  0.00    +0.000 A 
ATOM      7  N   UNL     1      45.831   4.798   8.206  0.00  0.00    +0.000 NA
ATOM      8  C   UNL     1      45.053   4.299   9.199  0.00  0.00    +0.000 A 
BRANCH   5   9
ATOM      9  C   UNL     1      47.375   1.603   6.848  0.00  0.00    +0.000 C 
ATOM     10  N   UNL     1      48.508   2.028   6.216  0.00  0.00    +0.000 N 
ATOM     11  O   UNL     1      47.017   0.437   6.732  0.00  0.00    +0.000 OA
ATOM     12  H   UNL     1      48.874   2.966   6.220  0.00  0.00    +0.000 HD
ATOM     13  H   UNL     1      48.994   1.332   5.663  0.00  0.00    +0.000 HD
ENDBRANCH   5   9
BRANCH   3  14
ATOM     14  O   UNL     1      44.220   2.447  10.489  0.00  0.00    +0.000 OA
BRANCH  14  16
ATOM     15  C   UNL     1      43.455   3.262  12.609  0.00  0.00    +0.000 C 
ATOM     16  C   UNL     1      44.637   2.722  11.827  0.00  0.00    +0.000 C 
ENDBRANCH  14  16
ENDBRANCH   3  14
ENDBRANCH   1   8
BRANCH   1  17
ATOM     17  C   UNL     1      44.900   6.458  10.430  0.00  0.00    +0.000 C 
BRANCH  17  18
ATOM     18  C   UNL     1      44.818   6.473  11.961  0.00  0.00    +0.000 C 
BRANCH  18  19
ATOM     19  C   UNL     1      46.226   6.390  12.512  0.00  0.00    +0.000 A 
ATOM     20  C   UNL     1      47.255   7.164  11.969  0.00  0.00    +0.000 A 
ATOM     21  C   UNL     1      48.500   7.202  12.592  0.00  0.00    +0.000 A 
ATOM     22  C   UNL     1      48.717   6.489  13.776  0.00  0.00    +0.000 A 
ATOM     23  C   UNL     1      47.697   5.726  14.371  0.00  0.00    +0.000 A 
ATOM     24  C   UNL     1      46.465   5.666  13.693  0.00  0.00    +0.000 A 
BRANCH  23  25
ATOM     25  C   UNL     1      47.853   5.108  15.709  0.00  0.00    +0.000 A 
ATOM     26  C   UNL     1      47.207   3.897  16.029  0.00  0.00    +0.000 A 
ATOM     27  C   UNL     1      47.439   3.241  17.242  0.00  0.00    +0.000 A 
ATOM     28  C   UNL     1      48.330   3.778  18.165  0.00  0.00    +0.000 A 
ATOM     29  C   UNL     1      48.965   4.984  17.888  0.00  0.00    +0.000 A 
ATOM     30  C   UNL     1      48.720   5.645  16.680  0.00  0.00    +0.000 A 
ENDBRANCH  23  25
ENDBRANCH  18  19
ENDBRANCH  17  18
ENDBRANCH   1  17
TORSDOF 8
ENDMDL
MODEL 4
REMARK VINA RESULT:    -7.441      2.005      2.825
REMARK INTER + INTRA:         -11.948
REMARK INTER:                 -10.937
REMARK INTRA:                  -1.012
REMARK UNBOUND:                -1.027
REMARK  Name = 
REMARK  9 active torsions:
REMARK  status: ('A' for Active; 'I' for Inactive)
REMARK    1  A    between atoms: C_1  and  C_2
REMARK    2  A    between atoms: C_2  and  O_3
REMARK    3  A    between atoms: O_3  and  C_4
REMARK    4  A    between atoms: C_6  and  C_7
REMARK    5  A    between atoms: C_12  and  N_13
REMARK    6  A    between atoms: N_13  and  C_14
REMARK    7  A    between atoms: C_14  and  C_15
REMARK    8  A    between atoms: C_15  and  C_16
REMARK    9  A    between atoms: C_20  and  C_21
REMARK                            x       y       z     vdW  Elec       q    Type
REMARK                         _______ _______ _______ _____ _____    ______ ____
ROOT
ATOM      1  N   UNL     1      47.033   3.558  15.643  0.00  0.00    +0.000 N 
ATOM      2  H   UNL     1      46.261   3.206  16.194  0.00  0.00    +0.000 HD
ENDROOT
BRANCH   1   8
ATOM      3  C   UNL     1      48.853   4.390  17.113  0.00  0.00    +0.000 A 
ATOM      4  C   UNL     1      50.089   4.084  17.690  0.00  0.00    +0.000 A 
ATOM      5  C   UNL     1      50.705   2.859  17.450  0.00  0.00    +0.000 A 
ATOM      6  C   UNL     1      50.049   1.981  16.608  0.00  0.00    +0.000 A 
ATOM      7  N   UNL     1      48.858   2.246  16.012  0.00  0.00    +0.000 NA
ATOM      8  C   UNL     1      48.255   3.435  16.264  0.00  0.00    +0.000 A 
BRANCH   5   9
ATOM      9  C   UNL     1      52.002   2.590  18.117  0.00  0.00    +0.000 C 
ATOM     10  N   UNL     1      52.427   1.301  18.259  0.00  0.00    +0.000 N 
ATOM     11  O   UNL     1      52.690   3.506  18.551  0.00  0.00    +0.000 OA
ATOM     12  H   UNL     1      51.930   0.475  17.967  0.00  0.00    +0.000 HD
ATOM     13  H   UNL     1      53.310   1.176  18.740  0.00  0.00    +0.000 HD
ENDBRANCH   5   9
BRANCH   3  14
ATOM     14  O   UNL     1      48.216   5.588  17.337  0.00  0.00    +0.000 OA
BRANCH  14  16
ATOM     15  C   UNL     1      49.028   6.779  15.423  0.00  0.00    +0.000 C 
ATOM     16  C   UNL     1      48.891   6.779  16.933  0.00  0.00    +0.000 C 
ENDBRANCH  14  16
ENDBRANCH   3  14
ENDBRANCH   1   8
BRANCH   1  17
ATOM     17  C   UNL     1      46.869   3.863  14.240  0.00  0.00    +0.000 C 
BRANCH  17  18
ATOM     18  C   UNL     1      45.979   5.086  13.993  0.00  0.00    +0.000 C 
BRANCH  18  19
ATOM     19  C   UNL     1      45.014   4.754  12.874  0.00  0.00    +0.000 A 
ATOM     20  C   UNL     1      43.706   5.245  12.889  0.00  0.00    +0.000 A 
ATOM     21  C   UNL     1      42.886   5.071  11.776  0.00  0.00    +0.000 A 
ATOM     22  C   UNL     1      43.376   4.431  10.633  0.00  0.00    +0.000 A 
ATOM     23  C   UNL     1      44.697   3.953  10.569  0.00  0.00    +0.000 A 
ATOM     24  C   UNL     1      45.486   4.098  11.725  0.00  0.00    +0.000 A 
BRANCH  23  25
ATOM     25  C   UNL     1      45.286   3.431   9.313  0.00  0.00    +0.000 A 
ATOM     26  C   UNL     1      45.760   4.305   8.316  0.00  0.00    +0.000 A 
ATOM     27  C   UNL     1      46.426   3.831   7.181  0.00  0.00    +0.000 A 
ATOM     28  C   UNL     1      46.639   2.467   7.018  0.00  0.00    +0.000 A 
ATOM     29  C   UNL     1      46.162   1.577   7.973  0.00  0.00    +0.000 A 
ATOM     30  C   UNL     1      45.484   2.053   9.101  0.00  0.00    +0.000 A 
ENDBRANCH  23  25
ENDBRANCH  18  19
ENDBRANCH  17  18
ENDBRANCH   1  17
TORSDOF 8
ENDMDL
MODEL 5
REMARK VINA RESULT:    -7.359      2.742      3.863
REMARK INTER + INTRA:         -11.828
REMARK INTER:                 -10.122
REMARK INTRA:                  -1.706
REMARK UNBOUND:                -1.027
REMARK  Name = 
REMARK  9 active torsions:
REMARK  status: ('A' for Active; 'I' for Inactive)
REMARK    1  A    between atoms: C_1  and  C_2
REMARK    2  A    between atoms: C_2  and  O_3
REMARK    3  A    between atoms: O_3  and  C_4
REMARK    4  A    between atoms: C_6  and  C_7
REMARK    5  A    between atoms: C_12  and  N_13
REMARK    6  A    between atoms: N_13  and  C_14
REMARK    7  A    between atoms: C_14  and  C_15
REMARK    8  A    between atoms: C_15  and  C_16
REMARK    9  A    between atoms: C_20  and  C_21
REMARK                            x       y       z     vdW  Elec       q    Type
REMARK                         _______ _______ _______ _____ _____    ______ ____
ROOT
ATOM      1  N   UNL     1      45.268   7.769  12.348  0.00  0.00    +0.000 N 
ATOM      2  H   UNL     1      44.884   7.527  13.252  0.00  0.00    +0.000 HD
ENDROOT
BRANCH   1   8
ATOM      3  C   UNL     1      47.539   6.767  12.386  0.00  0.00    +0.000 A 
ATOM      4  C   UNL     1      48.910   7.035  12.327  0.00  0.00    +0.000 A 
ATOM      5  C   UNL     1      49.377   8.340  12.197  0.00  0.00    +0.000 A 
ATOM      6  C   UNL     1      48.429   9.345  12.152  0.00  0.00    +0.000 A 
ATOM      7  N   UNL     1      47.090   9.130  12.226  0.00  0.00    +0.000 NA
ATOM      8  C   UNL     1      46.641   7.854  12.335  0.00  0.00    +0.000 A 
BRANCH   5   9
ATOM      9  C   UNL     1      50.843   8.549  12.111  0.00  0.00    +0.000 C 
ATOM     10  N   UNL     1      51.599   7.692  11.364  0.00  0.00    +0.000 N 
ATOM     11  O   UNL     1      51.385   9.472  12.709  0.00  0.00    +0.000 OA
ATOM     12  H   UNL     1      51.262   6.888  10.860  0.00  0.00    +0.000 HD
ATOM     13  H   UNL     1      52.595   7.871  11.359  0.00  0.00    +0.000 HD
ENDBRANCH   5   9
BRANCH   3  14
ATOM     14  O   UNL     1      47.048   5.489  12.507  0.00  0.00    +0.000 OA
BRANCH  14  16
ATOM     15  C   UNL     1      46.773   3.458  13.748  0.00  0.00    +0.000 C 
ATOM     16  C   UNL     1      46.877   4.969  13.825  0.00  0.00    +0.000 C 
ENDBRANCH  14  16
ENDBRANCH   3  14
ENDBRANCH   1   8
BRANCH   1  17
ATOM     17  C   UNL     1      44.453   7.719  11.156  0.00  0.00    +0.000 C 
BRANCH  17  18
ATOM     18  C   UNL     1      43.212   6.834  11.315  0.00  0.00    +0.000 C 
BRANCH  18  19
ATOM     19  C   UNL     1      43.655   5.386  11.300  0.00  0.00    +0.000 A 
ATOM     20  C   UNL     1      43.120   4.464  12.203  0.00  0.00    +0.000 A 
ATOM     21  C   UNL     1      43.411   3.109  12.068  0.00  0.00    +0.000 A 
ATOM     22  C   UNL     1      44.215   2.663  11.013  0.00  0.00    +0.000 A 
ATOM     23  C   UNL     1      44.743   3.556  10.065  0.00  0.00    +0.000 A 
ATOM     24  C   UNL     1      44.474   4.924  10.255  0.00  0.00    +0.000 A 
BRANCH  23  25
ATOM     25  C   UNL     1      45.449   3.087   8.848  0.00  0.00    +0.000 A 
ATOM     26  C   UNL     1      45.856   3.995   7.851  0.00  0.00    +0.000 A 
ATOM     27  C   UNL     1      46.626   3.586   6.758  0.00  0.00    +0.000 A 
ATOM     28  C   UNL     1      47.013   2.256   6.637  0.00  0.00    +0.000 A 
ATOM     29  C   UNL     1      46.606   1.331   7.593  0.00  0.00    +0.000 A 
ATOM     30  C   UNL     1      45.824   1.741   8.678  0.00  0.00    +0.000 A 
ENDBRANCH  23  25
ENDBRANCH  18  19
ENDBRANCH  17  18
ENDBRANCH   1  17
TORSDOF 8
ENDMDL
MODEL 6
REMARK VINA RESULT:    -7.265      3.952      7.976
REMARK INTER + INTRA:         -11.690
REMARK INTER:                 -10.683
REMARK INTRA:                  -1.007
REMARK UNBOUND:                -1.027
REMARK  Name = 
REMARK  9 active torsions:
REMARK  status: ('A' for Active; 'I' for Inactive)
REMARK    1  A    between atoms: C_1  and  C_2
REMARK    2  A    between atoms: C_2  and  O_3
REMARK    3  A    between atoms: O_3  and  C_4
REMARK    4  A    between atoms: C_6  and  C_7
REMARK    5  A    between atoms: C_12  and  N_13
REMARK    6  A    between atoms: N_13  and  C_14
REMARK    7  A    between atoms: C_14  and  C_15
REMARK    8  A    between atoms: C_15  and  C_16
REMARK    9  A    between atoms: C_20  and  C_21
REMARK                            x       y       z     vdW  Elec       q    Type
REMARK                         _______ _______ _______ _____ _____    ______ ____
ROOT
ATOM      1  N   UNL     1      44.383   5.381   9.906  0.00  0.00    +0.000 N 
ATOM      2  H   UNL     1      43.420   5.460   9.608  0.00  0.00    +0.000 HD
ENDROOT
BRANCH   1   8
ATOM      3  C   UNL     1      44.963   3.001   9.501  0.00  0.00    +0.000 A 
ATOM      4  C   UNL     1      45.727   2.124   8.724  0.00  0.00    +0.000 A 
ATOM      5  C   UNL     1      46.565   2.605   7.722  0.00  0.00    +0.000 A 
ATOM      6  C   UNL     1      46.619   3.975   7.552  0.00  0.00    +0.000 A 
ATOM      7  N   UNL     1      45.910   4.862   8.297  0.00  0.00    +0.000 NA
ATOM      8  C   UNL     1      45.081   4.386   9.260  0.00  0.00    +0.000 A 
BRANCH   5   9
ATOM      9  C   UNL     1      47.324   1.617   6.917  0.00  0.00    +0.000 C 
ATOM     10  N   UNL     1      48.450   2.016   6.256  0.00  0.00    +0.000 N 
ATOM     11  O   UNL     1      46.949   0.454   6.829  0.00  0.00    +0.000 OA
ATOM     12  H   UNL     1      48.829   2.948   6.236  0.00  0.00    +0.000 HD
ATOM     13  H   UNL     1      48.916   1.304   5.706  0.00  0.00    +0.000 HD
ENDBRANCH   5   9
BRANCH   3  14
ATOM     14  O   UNL     1      44.121   2.556  10.492  0.00  0.00    +0.000 OA
BRANCH  14  16
ATOM     15  C   UNL     1      43.491   3.428  12.633  0.00  0.00    +0.000 C 
ATOM     16  C   UNL     1      44.559   2.698  11.843  0.00  0.00    +0.000 C 
ENDBRANCH  14  16
ENDBRANCH   3  14
ENDBRANCH   1   8
BRANCH   1  17
ATOM     17  C   UNL     1      45.005   6.416  10.699  0.00  0.00    +0.000 C 
BRANCH  17  18
ATOM     18  C   UNL     1      46.135   5.891  11.592  0.00  0.00    +0.000 C 
BRANCH  18  19
ATOM     19  C   UNL     1      46.940   7.074  12.086  0.00  0.00    +0.000 A 
ATOM     20  C   UNL     1      46.567   7.759  13.246  0.00  0.00    +0.000 A 
ATOM     21  C   UNL     1      47.407   8.734  13.778  0.00  0.00    +0.000 A 
ATOM     22  C   UNL     1      48.637   9.012  13.172  0.00  0.00    +0.000 A 
ATOM     23  C   UNL     1      49.061   8.320  12.023  0.00  0.00    +0.000 A 
ATOM     24  C   UNL     1      48.171   7.377  11.479  0.00  0.00    +0.000 A 
BRANCH  23  25
ATOM     25  C   UNL     1      50.428   8.475  11.470  0.00  0.00    +0.000 A 
ATOM     26  C   UNL     1      51.057   7.418  10.783  0.00  0.00    +0.000 A 
ATOM     27  C   UNL     1      52.294   7.586  10.153  0.00  0.00    +0.000 A 
ATOM     28  C   UNL     1      52.932   8.822  10.190  0.00  0.00    +0.000 A 
ATOM     29  C   UNL     1      52.347   9.878  10.880  0.00  0.00    +0.000 A 
ATOM     30  C   UNL     1      51.116   9.702  11.521  0.00  0.00    +0.000 A 
ENDBRANCH  23  25
ENDBRANCH  18  19
ENDBRANCH  17  18
ENDBRANCH   1  17
TORSDOF 8
ENDMDL
MODEL 7
REMARK VINA RESULT:    -6.859      2.474      4.148
REMARK INTER + INTRA:         -11.094
REMARK INTER:                  -9.736
REMARK INTRA:                  -1.358
REMARK UNBOUND:                -1.027
REMARK  Name = 
REMARK  9 active torsions:
REMARK  status: ('A' for Active; 'I' for Inactive)
REMARK    1  A    between atoms: C_1  and  C_2
REMARK    2  A    between atoms: C_2  and  O_3
REMARK    3  A    between atoms: O_3  and  C_4
REMARK    4  A    between atoms: C_6  and  C_7
REMARK    5  A    between atoms: C_12  and  N_13
REMARK    6  A    between atoms: N_13  and  C_14
REMARK    7  A    between atoms: C_14  and  C_15
REMARK    8  A    between atoms: C_15  and  C_16
REMARK    9  A    between atoms: C_20  and  C_21
REMARK                            x       y       z     vdW  Elec       q    Type
REMARK                         _______ _______ _______ _____ _____    ______ ____
ROOT
ATOM      1  N   UNL     1      47.440   5.999  14.353  0.00  0.00    +0.000 N 
ATOM      2  H   UNL     1      47.371   6.151  15.350  0.00  0.00    +0.000 HD
ENDROOT
BRANCH   1   8
ATOM      3  C   UNL     1      47.906   7.695  12.600  0.00  0.00    +0.000 A 
ATOM      4  C   UNL     1      48.856   8.588  12.095  0.00  0.00    +0.000 A 
ATOM      5  C   UNL     1      50.110   8.707  12.687  0.00  0.00    +0.000 A 
ATOM      6  C   UNL     1      50.371   7.893  13.773  0.00  0.00    +0.000 A 
ATOM      7  N   UNL     1      49.485   6.999  14.283  0.00  0.00    +0.000 NA
ATOM      8  C   UNL     1      48.259   6.901  13.712  0.00  0.00    +0.000 A 
BRANCH   5   9
ATOM      9  C   UNL     1      51.058   9.695  12.116  0.00  0.00    +0.000 C 
ATOM     10  N   UNL     1      51.099   9.879  10.765  0.00  0.00    +0.000 N 
ATOM     11  O   UNL     1      51.811  10.338  12.839  0.00  0.00    +0.000 OA
ATOM     12  H   UNL     1      50.550   9.386  10.081  0.00  0.00    +0.000 HD
ATOM     13  H   UNL     1      51.780  10.551  10.430  0.00  0.00    +0.000 HD
ENDBRANCH   5   9
BRANCH   3  14
ATOM     14  O   UNL     1      46.658   7.561  12.042  0.00  0.00    +0.000 OA
BRANCH  14  16
ATOM     15  C   UNL     1      44.690   8.804  11.474  0.00  0.00    +0.000 C 
ATOM     16  C   UNL     1      45.600   8.343  12.596  0.00  0.00    +0.000 C 
ENDBRANCH  14  16
ENDBRANCH   3  14
ENDBRANCH   1   8
BRANCH   1  17
ATOM     17  C   UNL     1      46.963   4.775  13.751  0.00  0.00    +0.000 C 
BRANCH  17  18
ATOM     18  C   UNL     1      45.499   4.472  14.088  0.00  0.00    +0.000 C 
BRANCH  18  19
ATOM     19  C   UNL     1      44.701   4.491  12.801  0.00  0.00    +0.000 A 
ATOM     20  C   UNL     1      43.577   5.311  12.668  0.00  0.00    +0.000 A 
ATOM     21  C   UNL     1      42.956   5.443  11.428  0.00  0.00    +0.000 A 
ATOM     22  C   UNL     1      43.469   4.778  10.309  0.00  0.00    +0.000 A 
ATOM     23  C   UNL     1      44.617   3.971  10.397  0.00  0.00    +0.000 A 
ATOM     24  C   UNL     1      45.194   3.816  11.671  0.00  0.00    +0.000 A 
BRANCH  23  25
ATOM     25  C   UNL     1      45.274   3.401   9.196  0.00  0.00    +0.000 A 
ATOM     26  C   UNL     1      45.799   4.237   8.192  0.00  0.00    +0.000 A 
ATOM     27  C   UNL     1      46.525   3.722   7.114  0.00  0.00    +0.000 A 
ATOM     28  C   UNL     1      46.751   2.353   7.018  0.00  0.00    +0.000 A 
ATOM     29  C   UNL     1      46.225   1.499   7.982  0.00  0.00    +0.000 A 
ATOM     30  C   UNL     1      45.486   2.017   9.051  0.00  0.00    +0.000 A 
ENDBRANCH  23  25
ENDBRANCH  18  19
ENDBRANCH  17  18
ENDBRANCH   1  17
TORSDOF 8
ENDMDL
MODEL 8
REMARK VINA RESULT:    -6.655      2.538      4.606
REMARK INTER + INTRA:         -10.794
REMARK INTER:                  -9.901
REMARK INTRA:                  -0.893
REMARK UNBOUND:                -1.027
REMARK  Name = 
REMARK  9 active torsions:
REMARK  status: ('A' for Active; 'I' for Inactive)
REMARK    1  A    between atoms: C_1  and  C_2
REMARK    2  A    between atoms: C_2  and  O_3
REMARK    3  A    between atoms: O_3  and  C_4
REMARK    4  A    between atoms: C_6  and  C_7
REMARK    5  A    between atoms: C_12  and  N_13
REMARK    6  A    between atoms: N_13  and  C_14
REMARK    7  A    between atoms: C_14  and  C_15
REMARK    8  A    between atoms: C_15  and  C_16
REMARK    9  A    between atoms: C_20  and  C_21
REMARK                            x       y       z     vdW  Elec       q    Type
REMARK                         _______ _______ _______ _____ _____    ______ ____
ROOT
ATOM      1  N   UNL     1      46.921   6.719  13.995  0.00  0.00    +0.000 N 
ATOM      2  H   UNL     1      47.203   6.828  14.960  0.00  0.00    +0.000 HD
ENDROOT
BRANCH   1   8
ATOM      3  C   UNL     1      47.763   8.874  13.093  0.00  0.00    +0.000 A 
ATOM      4  C   UNL     1      47.428  10.019  12.364  0.00  0.00    +0.000 A 
ATOM      5  C   UNL     1      46.141  10.195  11.864  0.00  0.00    +0.000 A 
ATOM      6  C   UNL     1      45.219   9.204  12.139  0.00  0.00    +0.000 A 
ATOM      7  N   UNL     1      45.497   8.086  12.859  0.00  0.00    +0.000 NA
ATOM      8  C   UNL     1      46.757   7.912  13.329  0.00  0.00    +0.000 A 
BRANCH   5   9
ATOM      9  C   UNL     1      45.863  11.420  11.074  0.00  0.00    +0.000 C 
ATOM     10  N   UNL     1      44.701  11.509  10.364  0.00  0.00    +0.000 N 
ATOM     11  O   UNL     1      46.665  12.346  11.044  0.00  0.00    +0.000 OA
ATOM     12  H   UNL     1      43.990  10.800  10.296  0.00  0.00    +0.000 HD
ATOM     13  H   UNL     1      44.574  12.359   9.828  0.00  0.00    +0.000 HD
ENDBRANCH   5   9
BRANCH   3  14
ATOM     14  O   UNL     1      49.026   8.668  13.594  0.00  0.00    +0.000 OA
BRANCH  14  16
ATOM     15  C   UNL     1      49.857   8.012  11.444  0.00  0.00    +0.000 C 
ATOM     16  C   UNL     1      49.850   7.710  12.930  0.00  0.00    +0.000 C 
ENDBRANCH  14  16
ENDBRANCH   3  14
ENDBRANCH   1   8
BRANCH   1  17
ATOM     17  C   UNL     1      46.993   5.434  13.339  0.00  0.00    +0.000 C 
BRANCH  17  18
ATOM     18  C   UNL     1      45.790   4.535  13.648  0.00  0.00    +0.000 C 
BRANCH  18  19
ATOM     19  C   UNL     1      44.949   4.419  12.394  0.00  0.00    +0.000 A 
ATOM     20  C   UNL     1      43.760   5.141  12.261  0.00  0.00    +0.000 A 
ATOM     21  C   UNL     1      43.087   5.154  11.041  0.00  0.00    +0.000 A 
ATOM     22  C   UNL     1      43.612   4.468   9.940  0.00  0.00    +0.000 A 
ATOM     23  C   UNL     1      44.823   3.759  10.026  0.00  0.00    +0.000 A 
ATOM     24  C   UNL     1      45.455   3.722  11.283  0.00  0.00    +0.000 A 
BRANCH  23  25
ATOM     25  C   UNL     1      45.481   3.175   8.833  0.00  0.00    +0.000 A 
ATOM     26  C   UNL     1      45.946   3.996   7.787  0.00  0.00    +0.000 A 
ATOM     27  C   UNL     1      46.674   3.473   6.713  0.00  0.00    +0.000 A 
ATOM     28  C   UNL     1      46.960   2.114   6.662  0.00  0.00    +0.000 A 
ATOM     29  C   UNL     1      46.495   1.274   7.668  0.00  0.00    +0.000 A 
ATOM     30  C   UNL     1      45.755   1.797   8.734  0.00  0.00    +0.000 A 
ENDBRANCH  23  25
ENDBRANCH  18  19
ENDBRANCH  17  18
ENDBRANCH   1  17
TORSDOF 8
ENDMDL
MODEL 9
REMARK VINA RESULT:    -6.641      3.833      9.173
REMARK INTER + INTRA:         -10.774
REMARK INTER:                  -9.138
REMARK INTRA:                  -1.636
REMARK UNBOUND:                -1.027
REMARK  Name = 
REMARK  9 active torsions:
REMARK  status: ('A' for Active; 'I' for Inactive)
REMARK    1  A    between atoms: C_1  and  C_2
REMARK    2  A    between atoms: C_2  and  O_3
REMARK    3  A    between atoms: O_3  and  C_4
REMARK    4  A    between atoms: C_6  and  C_7
REMARK    5  A    between atoms: C_12  and  N_13
REMARK    6  A    between atoms: N_13  and  C_14
REMARK    7  A    between atoms: C_14  and  C_15
REMARK    8  A    between atoms: C_15  and  C_16
REMARK    9  A    between atoms: C_20  and  C_21
REMARK                            x       y       z     vdW  Elec       q    Type
REMARK                         _______ _______ _______ _____ _____    ______ ____
ROOT
ATOM      1  N   UNL     1      47.126   3.624  14.657  0.00  0.00    +0.000 N 
ATOM      2  H   UNL     1      47.318   2.776  14.140  0.00  0.00    +0.000 HD
ENDROOT
BRANCH   1   8
ATOM      3  C   UNL     1      47.088   5.742  13.361  0.00  0.00    +0.000 A 
ATOM      4  C   UNL     1      46.293   6.605  12.601  0.00  0.00    +0.000 A 
ATOM      5  C   UNL     1      44.948   6.325  12.378  0.00  0.00    +0.000 A 
ATOM      6  C   UNL     1      44.441   5.177  12.956  0.00  0.00    +0.000 A 
ATOM      7  N   UNL     1      45.173   4.322  13.717  0.00  0.00    +0.000 NA
ATOM      8  C   UNL     1      46.487   4.591  13.915  0.00  0.00    +0.000 A 
BRANCH   5   9
ATOM      9  C   UNL     1      44.171   7.270  11.539  0.00  0.00    +0.000 C 
ATOM     10  N   UNL     1      42.915   6.925  11.130  0.00  0.00    +0.000 N 
ATOM     11  O   UNL     1      44.644   8.348  11.200  0.00  0.00    +0.000 OA
ATOM     12  H   UNL     1      42.444   6.057  11.325  0.00  0.00    +0.000 HD
ATOM     13  H   UNL     1      42.440   7.600  10.543  0.00  0.00    +0.000 HD
ENDBRANCH   5   9
BRANCH   3  14
ATOM     14  O   UNL     1      48.421   5.986  13.593  0.00  0.00    +0.000 OA
BRANCH  14  16
ATOM     15  C   UNL     1      49.458   6.766  15.607  0.00  0.00    +0.000 C 
ATOM     16  C   UNL     1      48.758   7.166  14.323  0.00  0.00    +0.000 C 
ENDBRANCH  14  16
ENDBRANCH   3  14
ENDBRANCH   1   8
BRANCH   1  17
ATOM     17  C   UNL     1      47.245   3.661  16.097  0.00  0.00    +0.000 C 
BRANCH  17  18
ATOM     18  C   UNL     1      48.359   2.752  16.629  0.00  0.00    +0.000 C 
BRANCH  18  19
ATOM     19  C   UNL     1      49.174   3.538  17.636  0.00  0.00    +0.000 A 
ATOM     20  C   UNL     1      50.561   3.391  17.704  0.00  0.00    +0.000 A 
ATOM     21  C   UNL     1      51.311   4.239  18.515  0.00  0.00    +0.000 A 
ATOM     22  C   UNL     1      50.683   5.257  19.242  0.00  0.00    +0.000 A 
ATOM     23  C   UNL     1      49.293   5.456  19.173  0.00  0.00    +0.000 A 
ATOM     24  C   UNL     1      48.555   4.553  18.385  0.00  0.00    +0.000 A 
BRANCH  23  25
ATOM     25  C   UNL     1      48.633   6.630  19.794  0.00  0.00    +0.000 A 
ATOM     26  C   UNL     1      48.193   7.713  19.009  0.00  0.00    +0.000 A 
ATOM     27  C   UNL     1      47.464   8.771  19.563  0.00  0.00    +0.000 A 
ATOM     28  C   UNL     1      47.152   8.767  20.918  0.00  0.00    +0.000 A 
ATOM     29  C   UNL     1      47.593   7.723  21.723  0.00  0.00    +0.000 A 
ATOM     30  C   UNL     1      48.334   6.674  21.169  0.00  0.00    +0.000 A 
ENDBRANCH  23  25
ENDBRANCH  18  19
ENDBRANCH  17  18
ENDBRANCH   1  17
TORSDOF 8
ENDMDL
