MODEL 1
REMARK VINA RESULT:    -8.320      0.000      0.000
REMARK INTER + INTRA:         -12.319
REMARK INTER:                 -11.238
REMARK INTRA:                  -1.081
REMARK UNBOUND:                -1.081
REMARK  Name = 
REMARK  7 active torsions:
REMARK  status: ('A' for Active; 'I' for Inactive)
REMARK    1  A    between atoms: C_1  and  N_2
REMARK    2  A    between atoms: C_4  and  C_5
REMARK    3  A    between atoms: N_7  and  C_8
REMARK    4  A    between atoms: C_8  and  C_9
REMARK    5  A    between atoms: C_12  and  N_13
REMARK    6  A    between atoms: N_13  and  C_14
REMARK    7  A    between atoms: C_14  and  C_15
REMARK                            x       y       z     vdW  Elec       q    Type
REMARK                         _______ _______ _______ _____ _____    ______ ____
ROOT
ATOM      1  C   UNL     1      46.965   8.168  13.109  0.00  0.00    +0.000 C 
ENDROOT
BRANCH   1   2
ATOM      2  C   UNL     1      46.221   7.144  12.295  0.00  0.00    +0.000 A 
ATOM      3  C   UNL     1      45.004   6.628  12.754  0.00  0.00    +0.000 A 
ATOM      4  C   UNL     1      44.265   5.736  11.967  0.00  0.00    +0.000 A 
ATOM      5  C   UNL     1      44.741   5.302  10.728  0.00  0.00    +0.000 A 
ATOM      6  C   UNL     1      45.969   5.808  10.286  0.00  0.00    +0.000 A 
ATOM      7  C   UNL     1      46.707   6.713  11.059  0.00  0.00    +0.000 A 
BRANCH   5   8
ATOM      8  N   UNL     1      44.005   4.513   9.854  0.00  0.00    +0.000 N 
ATOM      9  H   UNL     1      43.678   5.003   9.026  0.00  0.00    +0.000 HD
BRANCH   8  10
ATOM     10  C   UNL     1      44.230   3.085   9.701  0.00  0.00    +0.000 C 
BRANCH  10  11
ATOM     11  C   UNL     1      45.482   2.848   8.841  0.00  0.00    +0.000 C 
ATOM     12  C   UNL     1      45.445   3.675   7.543  0.00  0.00    +0.000 C 
ATOM     13  C   UNL     1      46.677   3.420   6.681  0.00  0.00    +0.000 C 
ATOM     14  C   UNL     1      46.846   1.936   6.375  0.00  0.00    +0.000 C 
ATOM     15  C   UNL     1      46.873   1.100   7.651  0.00  0.00    +0.000 C 
ATOM     16  C   UNL     1      45.641   1.355   8.518  0.00  0.00    +0.000 C 
ENDBRANCH  10  11
ENDBRANCH   8  10
ENDBRANCH   5   8
ENDBRANCH   1   2
BRANCH   1  19
ATOM     17  C   UNL     1      48.545   7.002  14.549  0.00  0.00    +0.000 C 
ATOM     18  O   UNL     1      49.337   6.882  13.624  0.00  0.00    +0.000 OA
ATOM     19  N   UNL     1      47.344   7.666  14.405  0.00  0.00    +0.000 N 
ATOM     20  H   UNL     1      46.665   7.660  15.151  0.00  0.00    +0.000 HD
BRANCH  17  24
ATOM     21  C   UNL     1      50.386   6.518  19.159  0.00  0.00    +0.000 C 
ATOM     22  N   UNL     1      49.647   6.255  17.945  0.00  0.00    +0.000 N 
ATOM     23  C   UNL     1      49.583   7.075  16.852  0.00  0.00    +0.000 A 
ATOM     24  C   UNL     1      48.799   6.459  15.881  0.00  0.00    +0.000 A 
ATOM     25  C   UNL     1      48.364   5.204  16.441  0.00  0.00    +0.000 A 
ATOM     26  C   UNL     1      47.580   4.104  16.100  0.00  0.00    +0.000 A 
ATOM     27 CL   UNL     1      46.744   4.031  14.628  0.00  0.00    +0.000 Cl
ATOM     28  N   UNL     1      47.383   3.071  16.941  0.00  0.00    +0.000 NA
ATOM     29  C   UNL     1      47.984   3.138  18.133  0.00  0.00    +0.000 A 
ATOM     30  N   UNL     1      48.762   4.124  18.605  0.00  0.00    +0.000 NA
ATOM     31  C   UNL     1      48.912   5.124  17.719  0.00  0.00    +0.000 A 
ENDBRANCH  17  24
ENDBRANCH   1  19
TORSDOF 6
ENDMDL
MODEL 2
REMARK VINA RESULT:    -7.944      1.928      2.541
REMARK INTER + INTRA:         -11.812
REMARK INTER:                 -10.900
REMARK INTRA:                  -0.912
REMARK UNBOUND:                -1.081
REMARK  Name = 
REMARK  7 active torsions:
REMARK  status: ('A' for Active; 'I' for Inactive)
REMARK    1  A    between atoms: C_1  and  N_2
REMARK    2  A    between atoms: C_4  and  C_5
REMARK    3  A    between atoms: N_7  and  C_8
REMARK    4  A    between atoms: C_8  and  C_9
REMARK    5  A    between atoms: C_12  and  N_13
REMARK    6  A    between atoms: N_13  and  C_14
REMARK    7  A    between atoms: C_14  and  C_15
REMARK                            x       y       z     vdW  Elec       q    Type
REMARK                         _______ _______ _______ _____ _____    ______ ____
ROOT
ATOM      1  C   UNL     1      47.754   7.112  13.320  0.00  0.00    +0.000 C 
ENDROOT
BRANCH   1   2
ATOM      2  C   UNL     1      46.862   6.205  12.516  0.00  0.00    +0.000 A 
ATOM      3  C   UNL     1      46.382   5.015  13.072  0.00  0.00    +0.000 A 
ATOM      4  C   UNL     1      45.487   4.205  12.362  0.00  0.00    +0.000 A 
ATOM      5  C   UNL     1      45.087   4.536  11.065  0.00  0.00    +0.000 A 
ATOM      6  C   UNL     1      45.589   5.718  10.509  0.00  0.00    +0.000 A 
ATOM      7  C   UNL     1      46.472   6.542  11.218  0.00  0.00    +0.000 A 
BRANCH   5   8
ATOM      8  N   UNL     1      44.119   3.838  10.357  0.00  0.00    +0.000 N 
ATOM      9  H   UNL     1      43.459   4.430   9.862  0.00  0.00    +0.000 HD
BRANCH   8  10
ATOM     10  C   UNL     1      44.359   2.527   9.775  0.00  0.00    +0.000 C 
BRANCH  10  11
ATOM     11  C   UNL     1      45.582   2.590   8.846  0.00  0.00    +0.000 C 
ATOM     12  C   UNL     1      45.348   3.545   7.661  0.00  0.00    +0.000 C 
ATOM     13  C   UNL     1      46.554   3.586   6.729  0.00  0.00    +0.000 C 
ATOM     14  C   UNL     1      46.927   2.192   6.237  0.00  0.00    +0.000 C 
ATOM     15  C   UNL     1      47.152   1.229   7.399  0.00  0.00    +0.000 C 
ATOM     16  C   UNL     1      45.946   1.187   8.336  0.00  0.00    +0.000 C 
ENDBRANCH  10  11
ENDBRANCH   8  10
ENDBRANCH   5   8
ENDBRANCH   1   2
BRANCH   1  19
ATOM     17  C   UNL     1      48.884   6.689  15.435  0.00  0.00    +0.000 C 
ATOM     18  O   UNL     1      49.976   6.884  14.918  0.00  0.00    +0.000 OA
ATOM     19  N   UNL     1      47.705   6.819  14.730  0.00  0.00    +0.000 N 
ATOM     20  H   UNL     1      46.828   6.551  15.149  0.00  0.00    +0.000 HD
BRANCH  17  24
ATOM     21  C   UNL     1      48.698   3.886  19.555  0.00  0.00    +0.000 C 
ATOM     22  N   UNL     1      48.641   5.030  18.674  0.00  0.00    +0.000 N 
ATOM     23  C   UNL     1      48.934   5.027  17.338  0.00  0.00    +0.000 A 
ATOM     24  C   UNL     1      48.731   6.309  16.837  0.00  0.00    +0.000 A 
ATOM     25  C   UNL     1      48.304   7.121  17.949  0.00  0.00    +0.000 A 
ATOM     26  C   UNL     1      47.949   8.440  18.228  0.00  0.00    +0.000 A 
ATOM     27 CL   UNL     1      48.012   9.646  17.039  0.00  0.00    +0.000 Cl
ATOM     28  N   UNL     1      47.605   8.848  19.463  0.00  0.00    +0.000 NA
ATOM     29  C   UNL     1      47.609   7.923  20.430  0.00  0.00    +0.000 A 
ATOM     30  N   UNL     1      47.926   6.624  20.319  0.00  0.00    +0.000 NA
ATOM     31  C   UNL     1      48.266   6.286  19.064  0.00  0.00    +0.000 A 
ENDBRANCH  17  24
ENDBRANCH   1  19
TORSDOF 6
ENDMDL
MODEL 3
REMARK VINA RESULT:    -7.669      1.871      2.250
REMARK INTER + INTRA:         -11.441
REMARK INTER:                 -10.522
REMARK INTRA:                  -0.919
REMARK UNBOUND:                -1.081
REMARK  Name = 
REMARK  7 active torsions:
REMARK  status: ('A' for Active; 'I' for Inactive)
REMARK    1  A    between atoms: C_1  and  N_2
REMARK    2  A    between atoms: C_4  and  C_5
REMARK    3  A    between atoms: N_7  and  C_8
REMARK    4  A    between atoms: C_8  and  C_9
REMARK    5  A    between atoms: C_12  and  N_13
REMARK    6  A    between atoms: N_13  and  C_14
REMARK    7  A    between atoms: C_14  and  C_15
REMARK                            x       y       z     vdW  Elec       q    Type
REMARK                         _______ _______ _______ _____ _____    ______ ____
ROOT
ATOM      1  C   UNL     1      48.371   6.462  13.716  0.00  0.00    +0.000 C 
ENDROOT
BRANCH   1   2
ATOM      2  C   UNL     1      47.206   5.913  12.938  0.00  0.00    +0.000 A 
ATOM      3  C   UNL     1      46.762   6.564  11.783  0.00  0.00    +0.000 A 
ATOM      4  C   UNL     1      45.732   6.018  11.007  0.00  0.00    +0.000 A 
ATOM      5  C   UNL     1      45.090   4.838  11.387  0.00  0.00    +0.000 A 
ATOM      6  C   UNL     1      45.528   4.204  12.555  0.00  0.00    +0.000 A 
ATOM      7  C   UNL     1      46.568   4.735  13.329  0.00  0.00    +0.000 A 
BRANCH   5   8
ATOM      8  N   UNL     1      44.146   4.189  10.604  0.00  0.00    +0.000 N 
ATOM      9  H   UNL     1      43.593   4.808  10.019  0.00  0.00    +0.000 HD
BRANCH   8  10
ATOM     10  C   UNL     1      44.334   2.838  10.098  0.00  0.00    +0.000 C 
BRANCH  10  11
ATOM     11  C   UNL     1      45.527   2.810   9.130  0.00  0.00    +0.000 C 
ATOM     12  C   UNL     1      45.387   3.873   8.025  0.00  0.00    +0.000 C 
ATOM     13  C   UNL     1      46.560   3.827   7.051  0.00  0.00    +0.000 C 
ATOM     14  C   UNL     1      46.731   2.437   6.449  0.00  0.00    +0.000 C 
ATOM     15  C   UNL     1      46.860   1.369   7.532  0.00  0.00    +0.000 C 
ATOM     16  C   UNL     1      45.687   1.414   8.509  0.00  0.00    +0.000 C 
ENDBRANCH  10  11
ENDBRANCH   8  10
ENDBRANCH   5   8
ENDBRANCH   1   2
BRANCH   1  19
ATOM     17  C   UNL     1      49.040   7.001  15.995  0.00  0.00    +0.000 C 
ATOM     18  O   UNL     1      50.212   7.093  15.655  0.00  0.00    +0.000 OA
ATOM     19  N   UNL     1      48.033   6.729  15.092  0.00  0.00    +0.000 N 
ATOM     20  H   UNL     1      47.093   6.554  15.412  0.00  0.00    +0.000 HD
BRANCH  17  24
ATOM     21  C   UNL     1      47.416   9.178  20.178  0.00  0.00    +0.000 C 
ATOM     22  N   UNL     1      47.884   8.174  19.250  0.00  0.00    +0.000 N 
ATOM     23  C   UNL     1      48.144   8.371  17.921  0.00  0.00    +0.000 A 
ATOM     24  C   UNL     1      48.603   7.174  17.378  0.00  0.00    +0.000 A 
ATOM     25  C   UNL     1      48.601   6.210  18.450  0.00  0.00    +0.000 A 
ATOM     26  C   UNL     1      48.893   4.865  18.670  0.00  0.00    +0.000 A 
ATOM     27 CL   UNL     1      49.377   3.843  17.407  0.00  0.00    +0.000 Cl
ATOM     28  N   UNL     1      48.744   4.283  19.874  0.00  0.00    +0.000 NA
ATOM     29  C   UNL     1      48.304   5.057  20.871  0.00  0.00    +0.000 A 
ATOM     30  N   UNL     1      47.980   6.358  20.816  0.00  0.00    +0.000 NA
ATOM     31  C   UNL     1      48.146   6.875  19.587  0.00  0.00    +0.000 A 
ENDBRANCH  17  24
ENDBRANCH   1  19
TORSDOF 6
ENDMDL
MODEL 4
REMARK VINA RESULT:    -7.482      2.030      2.601
REMARK INTER + INTRA:         -11.188
REMARK INTER:                 -10.251
REMARK INTRA:                  -0.937
REMARK UNBOUND:                -1.081
REMARK  Name = 
REMARK  7 active torsions:
REMARK  status: ('A' for Active; 'I' for Inactive)
REMARK    1  A    between atoms: C_1  and  N_2
REMARK    2  A    between atoms: C_4  and  C_5
REMARK    3  A    between atoms: N_7  and  C_8
REMARK    4  A    between atoms: C_8  and  C_9
REMARK    5  A    between atoms: C_12  and  N_13
REMARK    6  A    between atoms: N_13  and  C_14
REMARK    7  A    between atoms: C_14  and  C_15
REMARK                            x       y       z     vdW  Elec       q    Type
REMARK                         _______ _______ _______ _____ _____    ______ ____
ROOT
ATOM      1  C   UNL     1      47.790   7.245  13.949  0.00  0.00    +0.000 C 
ENDROOT
BRANCH   1   2
ATOM      2  C   UNL     1      47.020   6.321  13.045  0.00  0.00    +0.000 A 
ATOM      3  C   UNL     1      46.584   5.078  13.515  0.00  0.00    +0.000 A 
ATOM      4  C   UNL     1      45.798   4.246  12.709  0.00  0.00    +0.000 A 
ATOM      5  C   UNL     1      45.468   4.609  11.402  0.00  0.00    +0.000 A 
ATOM      6  C   UNL     1      45.926   5.846  10.933  0.00  0.00    +0.000 A 
ATOM      7  C   UNL     1      46.700   6.692  11.738  0.00  0.00    +0.000 A 
BRANCH   5   8
ATOM      8  N   UNL     1      44.601   3.884  10.597  0.00  0.00    +0.000 N 
ATOM      9  H   UNL     1      43.860   3.411  11.104  0.00  0.00    +0.000 HD
BRANCH   8  10
ATOM     10  C   UNL     1      44.292   4.263   9.228  0.00  0.00    +0.000 C 
BRANCH  10  11
ATOM     11  C   UNL     1      44.987   3.298   8.254  0.00  0.00    +0.000 C 
ATOM     12  C   UNL     1      45.453   2.013   8.963  0.00  0.00    +0.000 C 
ATOM     13  C   UNL     1      46.163   1.068   8.000  0.00  0.00    +0.000 C 
ATOM     14  C   UNL     1      47.330   1.756   7.301  0.00  0.00    +0.000 C 
ATOM     15  C   UNL     1      46.888   3.038   6.602  0.00  0.00    +0.000 C 
ATOM     16  C   UNL     1      46.174   3.987   7.564  0.00  0.00    +0.000 C 
ENDBRANCH  10  11
ENDBRANCH   8  10
ENDBRANCH   5   8
ENDBRANCH   1   2
BRANCH   1  19
ATOM     17  C   UNL     1      49.011   7.289  16.056  0.00  0.00    +0.000 C 
ATOM     18  O   UNL     1      49.173   8.499  15.964  0.00  0.00    +0.000 OA
ATOM     19  N   UNL     1      48.296   6.572  15.118  0.00  0.00    +0.000 N 
ATOM     20  H   UNL     1      48.266   5.565  15.160  0.00  0.00    +0.000 HD
BRANCH  17  24
ATOM     21  C   UNL     1      51.741   3.945  18.554  0.00  0.00    +0.000 C 
ATOM     22  N   UNL     1      50.781   4.985  18.261  0.00  0.00    +0.000 N 
ATOM     23  C   UNL     1      50.580   5.570  17.041  0.00  0.00    +0.000 A 
ATOM     24  C   UNL     1      49.553   6.501  17.160  0.00  0.00    +0.000 A 
ATOM     25  C   UNL     1      49.131   6.473  18.538  0.00  0.00    +0.000 A 
ATOM     26  C   UNL     1      48.216   7.099  19.382  0.00  0.00    +0.000 A 
ATOM     27 CL   UNL     1      47.215   8.352  18.834  0.00  0.00    +0.000 Cl
ATOM     28  N   UNL     1      48.120   6.799  20.691  0.00  0.00    +0.000 NA
ATOM     29  C   UNL     1      48.945   5.855  21.158  0.00  0.00    +0.000 A 
ATOM     30  N   UNL     1      49.874   5.169  20.476  0.00  0.00    +0.000 NA
ATOM     31  C   UNL     1      49.921   5.521  19.180  0.00  0.00    +0.000 A 
ENDBRANCH  17  24
ENDBRANCH   1  19
TORSDOF 6
ENDMDL
MODEL 5
REMARK VINA RESULT:    -7.366      2.763      4.618
REMARK INTER + INTRA:         -11.031
REMARK INTER:                 -10.008
REMARK INTRA:                  -1.023
REMARK UNBOUND:                -1.081
REMARK  Name = 
REMARK  7 active torsions:
REMARK  status: ('A' for Active; 'I' for Inactive)
REMARK    1  A    between atoms: C_1  and  N_2
REMARK    2  A    between atoms: C_4  and  C_5
REMARK    3  A    between atoms: N_7  and  C_8
REMARK    4  A    between atoms: C_8  and  C_9
REMARK    5  A    between atoms: C_12  and  N_13
REMARK    6  A    between atoms: N_13  and  C_14
REMARK    7  A    between atoms: C_14  and  C_15
REMARK                            x       y       z     vdW  Elec       q    Type
REMARK                         _______ _______ _______ _____ _____    ______ ____
ROOT
ATOM      1  C   UNL     1      47.500   5.521  14.675  0.00  0.00    +0.000 C 
ENDROOT
BRANCH   1   2
ATOM      2  C   UNL     1      46.743   4.976  13.495  0.00  0.00    +0.000 A 
ATOM      3  C   UNL     1      46.475   3.606  13.400  0.00  0.00    +0.000 A 
ATOM      4  C   UNL     1      45.703   3.101  12.348  0.00  0.00    +0.000 A 
ATOM      5  C   UNL     1      45.218   3.939  11.340  0.00  0.00    +0.000 A 
ATOM      6  C   UNL     1      45.509   5.305  11.433  0.00  0.00    +0.000 A 
ATOM      7  C   UNL     1      46.267   5.822  12.491  0.00  0.00    +0.000 A 
BRANCH   5   8
ATOM      8  N   UNL     1      44.355   3.519  10.339  0.00  0.00    +0.000 N 
ATOM      9  H   UNL     1      43.456   3.187  10.676  0.00  0.00    +0.000 HD
BRANCH   8  10
ATOM     10  C   UNL     1      44.360   4.090   9.002  0.00  0.00    +0.000 C 
BRANCH  10  11
ATOM     11  C   UNL     1      45.109   3.152   8.041  0.00  0.00    +0.000 C 
ATOM     12  C   UNL     1      45.640   1.901   8.767  0.00  0.00    +0.000 C 
ATOM     13  C   UNL     1      46.403   0.985   7.817  0.00  0.00    +0.000 C 
ATOM     14  C   UNL     1      47.534   1.726   7.114  0.00  0.00    +0.000 C 
ATOM     15  C   UNL     1      47.027   2.975   6.399  0.00  0.00    +0.000 C 
ATOM     16  C   UNL     1      46.261   3.895   7.347  0.00  0.00    +0.000 C 
ENDBRANCH  10  11
ENDBRANCH   8  10
ENDBRANCH   5   8
ENDBRANCH   1   2
BRANCH   1  19
ATOM     17  C   UNL     1      48.982   7.443  14.876  0.00  0.00    +0.000 C 
ATOM     18  O   UNL     1      49.922   6.717  15.171  0.00  0.00    +0.000 OA
ATOM     19  N   UNL     1      47.735   6.938  14.569  0.00  0.00    +0.000 N 
ATOM     20  H   UNL     1      46.953   7.560  14.433  0.00  0.00    +0.000 HD
BRANCH  17  24
ATOM     21  C   UNL     1      49.360  12.193  16.347  0.00  0.00    +0.000 C 
ATOM     22  N   UNL     1      49.254  11.026  15.502  0.00  0.00    +0.000 N 
ATOM     23  C   UNL     1      49.242   9.726  15.928  0.00  0.00    +0.000 A 
ATOM     24  C   UNL     1      49.095   8.898  14.819  0.00  0.00    +0.000 A 
ATOM     25  C   UNL     1      49.030   9.762  13.667  0.00  0.00    +0.000 A 
ATOM     26  C   UNL     1      48.912   9.678  12.281  0.00  0.00    +0.000 A 
ATOM     27 CL   UNL     1      48.861   8.184  11.483  0.00  0.00    +0.000 Cl
ATOM     28  N   UNL     1      48.902  10.768  11.491  0.00  0.00    +0.000 NA
ATOM     29  C   UNL     1      49.004  11.956  12.097  0.00  0.00    +0.000 A 
ATOM     30  N   UNL     1      49.124  12.198  13.411  0.00  0.00    +0.000 NA
ATOM     31  C   UNL     1      49.134  11.068  14.140  0.00  0.00    +0.000 A 
ENDBRANCH  17  24
ENDBRANCH   1  19
TORSDOF 6
ENDMDL
MODEL 6
REMARK VINA RESULT:    -7.303      1.899      2.610
REMARK INTER + INTRA:         -10.946
REMARK INTER:                 -10.034
REMARK INTRA:                  -0.911
REMARK UNBOUND:                -1.081
REMARK  Name = 
REMARK  7 active torsions:
REMARK  status: ('A' for Active; 'I' for Inactive)
REMARK    1  A    between atoms: C_1  and  N_2
REMARK    2  A    between atoms: C_4  and  C_5
REMARK    3  A    between atoms: N_7  and  C_8
REMARK    4  A    between atoms: C_8  and  C_9
REMARK    5  A    between atoms: C_12  and  N_13
REMARK    6  A    between atoms: N_13  and  C_14
REMARK    7  A    between atoms: C_14  and  C_15
REMARK                            x       y       z     vdW  Elec       q    Type
REMARK                         _______ _______ _______ _____ _____    ______ ____
ROOT
ATOM      1  C   UNL     1      46.857   7.661  13.636  0.00  0.00    +0.000 C 
ENDROOT
BRANCH   1   2
ATOM      2  C   UNL     1      46.242   6.676  12.679  0.00  0.00    +0.000 A 
ATOM      3  C   UNL     1      46.410   6.835  11.299  0.00  0.00    +0.000 A 
ATOM      4  C   UNL     1      45.910   5.881  10.404  0.00  0.00    +0.000 A 
ATOM      5  C   UNL     1      45.192   4.773  10.857  0.00  0.00    +0.000 A 
ATOM      6  C   UNL     1      45.011   4.633  12.239  0.00  0.00    +0.000 A 
ATOM      7  C   UNL     1      45.521   5.574  13.142  0.00  0.00    +0.000 A 
BRANCH   5   8
ATOM      8  N   UNL     1      44.773   3.738  10.034  0.00  0.00    +0.000 N 
ATOM      9  H   UNL     1      44.257   3.007  10.514  0.00  0.00    +0.000 HD
BRANCH   8  10
ATOM     10  C   UNL     1      44.445   3.930   8.630  0.00  0.00    +0.000 C 
BRANCH  10  11
ATOM     11  C   UNL     1      45.257   2.947   7.770  0.00  0.00    +0.000 C 
ATOM     12  C   UNL     1      45.794   1.771   8.606  0.00  0.00    +0.000 C 
ATOM     13  C   UNL     1      46.619   0.810   7.756  0.00  0.00    +0.000 C 
ATOM     14  C   UNL     1      47.755   1.532   7.041  0.00  0.00    +0.000 C 
ATOM     15  C   UNL     1      47.240   2.709   6.217  0.00  0.00    +0.000 C 
ATOM     16  C   UNL     1      46.413   3.672   7.065  0.00  0.00    +0.000 C 
ENDBRANCH  10  11
ENDBRANCH   8  10
ENDBRANCH   5   8
ENDBRANCH   1   2
BRANCH   1  19
ATOM     17  C   UNL     1      48.720   7.892  15.187  0.00  0.00    +0.000 C 
ATOM     18  O   UNL     1      48.169   8.832  15.745  0.00  0.00    +0.000 OA
ATOM     19  N   UNL     1      48.127   7.210  14.145  0.00  0.00    +0.000 N 
ATOM     20  H   UNL     1      48.644   6.510  13.634  0.00  0.00    +0.000 HD
BRANCH  17  24
ATOM     21  C   UNL     1      53.678   7.387  15.361  0.00  0.00    +0.000 C 
ATOM     22  N   UNL     1      52.272   7.190  15.629  0.00  0.00    +0.000 N 
ATOM     23  C   UNL     1      51.245   7.924  15.100  0.00  0.00    +0.000 A 
ATOM     24  C   UNL     1      50.043   7.409  15.574  0.00  0.00    +0.000 A 
ATOM     25  C   UNL     1      50.381   6.313  16.447  0.00  0.00    +0.000 A 
ATOM     26  C   UNL     1      49.756   5.372  17.262  0.00  0.00    +0.000 A 
ATOM     27 CL   UNL     1      48.076   5.361  17.479  0.00  0.00    +0.000 Cl
ATOM     28  N   UNL     1      50.448   4.465  17.977  0.00  0.00    +0.000 NA
ATOM     29  C   UNL     1      51.780   4.496  17.869  0.00  0.00    +0.000 A 
ATOM     30  N   UNL     1      52.523   5.336  17.132  0.00  0.00    +0.000 NA
ATOM     31  C   UNL     1      51.771   6.218  16.450  0.00  0.00    +0.000 A 
ENDBRANCH  17  24
ENDBRANCH   1  19
TORSDOF 6
ENDMDL
MODEL 7
REMARK VINA RESULT:    -7.068      3.915      5.472
REMARK INTER + INTRA:         -10.628
REMARK INTER:                  -9.671
REMARK INTRA:                  -0.957
REMARK UNBOUND:                -1.081
REMARK  Name = 
REMARK  7 active torsions:
REMARK  status: ('A' for Active; 'I' for Inactive)
REMARK    1  A    between atoms: C_1  and  N_2
REMARK    2  A    between atoms: C_4  and  C_5
REMARK    3  A    between atoms: N_7  and  C_8
REMARK    4  A    between atoms: C_8  and  C_9
REMARK    5  A    between atoms: C_12  and  N_13
REMARK    6  A    between atoms: N_13  and  C_14
REMARK    7  A    between atoms: C_14  and  C_15
REMARK                            x       y       z     vdW  Elec       q    Type
REMARK                         _______ _______ _______ _____ _____    ______ ____
ROOT
ATOM      1  C   UNL     1      47.215   7.372  13.439  0.00  0.00    +0.000 C 
ENDROOT
BRANCH   1   2
ATOM      2  C   UNL     1      46.486   6.188  12.863  0.00  0.00    +0.000 A 
ATOM      3  C   UNL     1      45.755   6.320  11.677  0.00  0.00    +0.000 A 
ATOM      4  C   UNL     1      45.141   5.208  11.090  0.00  0.00    +0.000 A 
ATOM      5  C   UNL     1      45.198   3.949  11.693  0.00  0.00    +0.000 A 
ATOM      6  C   UNL     1      45.914   3.831  12.890  0.00  0.00    +0.000 A 
ATOM      7  C   UNL     1      46.545   4.935  13.476  0.00  0.00    +0.000 A 
BRANCH   5   8
ATOM      8  N   UNL     1      44.709   2.791  11.105  0.00  0.00    +0.000 N 
ATOM      9  H   UNL     1      44.188   2.191  11.738  0.00  0.00    +0.000 HD
BRANCH   8  10
ATOM     10  C   UNL     1      44.332   2.717   9.703  0.00  0.00    +0.000 C 
BRANCH  10  11
ATOM     11  C   UNL     1      45.595   2.664   8.829  0.00  0.00    +0.000 C 
ATOM     12  C   UNL     1      45.512   3.650   7.650  0.00  0.00    +0.000 C 
ATOM     13  C   UNL     1      46.756   3.579   6.771  0.00  0.00    +0.000 C 
ATOM     14  C   UNL     1      47.009   2.160   6.275  0.00  0.00    +0.000 C 
ATOM     15  C   UNL     1      47.083   1.167   7.432  0.00  0.00    +0.000 C 
ATOM     16  C   UNL     1      45.839   1.237   8.315  0.00  0.00    +0.000 C 
ENDBRANCH  10  11
ENDBRANCH   8  10
ENDBRANCH   5   8
ENDBRANCH   1   2
BRANCH   1  19
ATOM     17  C   UNL     1      48.944   8.464  12.117  0.00  0.00    +0.000 C 
ATOM     18  O   UNL     1      48.163   9.343  11.778  0.00  0.00    +0.000 OA
ATOM     19  N   UNL     1      48.578   7.451  12.981  0.00  0.00    +0.000 N 
ATOM     20  H   UNL     1      49.206   6.683  13.161  0.00  0.00    +0.000 HD
BRANCH  17  24
ATOM     21  C   UNL     1      53.089   6.825   9.879  0.00  0.00    +0.000 C 
ATOM     22  N   UNL     1      52.179   7.649  10.642  0.00  0.00    +0.000 N 
ATOM     23  C   UNL     1      50.846   7.407  10.831  0.00  0.00    +0.000 A 
ATOM     24  C   UNL     1      50.325   8.409  11.645  0.00  0.00    +0.000 A 
ATOM     25  C   UNL     1      51.415   9.303  11.944  0.00  0.00    +0.000 A 
ATOM     26  C   UNL     1      51.661  10.483  12.644  0.00  0.00    +0.000 A 
ATOM     27 CL   UNL     1      50.417  11.326  13.428  0.00  0.00    +0.000 Cl
ATOM     28  N   UNL     1      52.877  11.058  12.682  0.00  0.00    +0.000 NA
ATOM     29  C   UNL     1      53.860  10.442  12.018  0.00  0.00    +0.000 A 
ATOM     30  N   UNL     1      53.781   9.311  11.302  0.00  0.00    +0.000 NA
ATOM     31  C   UNL     1      52.541   8.793  11.300  0.00  0.00    +0.000 A 
ENDBRANCH  17  24
ENDBRANCH   1  19
TORSDOF 6
ENDMDL
MODEL 8
REMARK VINA RESULT:    -6.818      3.388      4.785
REMARK INTER + INTRA:         -10.290
REMARK INTER:                  -9.331
REMARK INTRA:                  -0.959
REMARK UNBOUND:                -1.081
REMARK  Name = 
REMARK  7 active torsions:
REMARK  status: ('A' for Active; 'I' for Inactive)
REMARK    1  A    between atoms: C_1  and  N_2
REMARK    2  A    between atoms: C_4  and  C_5
REMARK    3  A    between atoms: N_7  and  C_8
REMARK    4  A    between atoms: C_8  and  C_9
REMARK    5  A    between atoms: C_12  and  N_13
REMARK    6  A    between atoms: N_13  and  C_14
REMARK    7  A    between atoms: C_14  and  C_15
REMARK                            x       y       z     vdW  Elec       q    Type
REMARK                         _______ _______ _______ _____ _____    ______ ____
ROOT
ATOM      1  C   UNL     1      47.147   7.019  13.891  0.00  0.00    +0.000 C 
ENDROOT
BRANCH   1   2
ATOM      2  C   UNL     1      46.514   6.112  12.871  0.00  0.00    +0.000 A 
ATOM      3  C   UNL     1      45.915   4.912  13.270  0.00  0.00    +0.000 A 
ATOM      4  C   UNL     1      45.254   4.101  12.340  0.00  0.00    +0.000 A 
ATOM      5  C   UNL     1      45.213   4.440  10.986  0.00  0.00    +0.000 A 
ATOM      6  C   UNL     1      45.833   5.632  10.593  0.00  0.00    +0.000 A 
ATOM      7  C   UNL     1      46.484   6.457  11.519  0.00  0.00    +0.000 A 
BRANCH   5   8
ATOM      8  N   UNL     1      44.479   3.740  10.039  0.00  0.00    +0.000 N 
ATOM      9  H   UNL     1      43.646   3.291  10.408  0.00  0.00    +0.000 HD
BRANCH   8  10
ATOM     10  C   UNL     1      44.426   4.126   8.639  0.00  0.00    +0.000 C 
BRANCH  10  11
ATOM     11  C   UNL     1      45.186   3.095   7.789  0.00  0.00    +0.000 C 
ATOM     12  C   UNL     1      45.691   1.917   8.642  0.00  0.00    +0.000 C 
ATOM     13  C   UNL     1      46.465   0.908   7.800  0.00  0.00    +0.000 C 
ATOM     14  C   UNL     1      47.616   1.570   7.053  0.00  0.00    +0.000 C 
ATOM     15  C   UNL     1      47.134   2.748   6.211  0.00  0.00    +0.000 C 
ATOM     16  C   UNL     1      46.358   3.760   7.050  0.00  0.00    +0.000 C 
ENDBRANCH  10  11
ENDBRANCH   8  10
ENDBRANCH   5   8
ENDBRANCH   1   2
BRANCH   1  19
ATOM     17  C   UNL     1      49.229   8.192  14.362  0.00  0.00    +0.000 C 
ATOM     18  O   UNL     1      48.696   8.825  15.263  0.00  0.00    +0.000 OA
ATOM     19  N   UNL     1      48.550   7.233  13.639  0.00  0.00    +0.000 N 
ATOM     20  H   UNL     1      48.979   6.801  12.835  0.00  0.00    +0.000 HD
BRANCH  17  24
ATOM     21  C   UNL     1      54.212   8.202  14.566  0.00  0.00    +0.000 C 
ATOM     22  N   UNL     1      52.861   8.396  14.092  0.00  0.00    +0.000 N 
ATOM     23  C   UNL     1      51.721   7.995  14.734  0.00  0.00    +0.000 A 
ATOM     24  C   UNL     1      50.623   8.390  13.975  0.00  0.00    +0.000 A 
ATOM     25  C   UNL     1      51.148   9.053  12.808  0.00  0.00    +0.000 A 
ATOM     26  C   UNL     1      50.697   9.671  11.643  0.00  0.00    +0.000 A 
ATOM     27 CL   UNL     1      49.049   9.733  11.253  0.00  0.00    +0.000 Cl
ATOM     28  N   UNL     1      51.538  10.189  10.729  0.00  0.00    +0.000 NA
ATOM     29  C   UNL     1      52.847  10.095  10.988  0.00  0.00    +0.000 A 
ATOM     30  N   UNL     1      53.432   9.532  12.056  0.00  0.00    +0.000 NA
ATOM     31  C   UNL     1      52.537   9.030  12.924  0.00  0.00    +0.000 A 
ENDBRANCH  17  24
ENDBRANCH   1  19
TORSDOF 6
ENDMDL
MODEL 9
REMARK VINA RESULT:    -6.696      3.522      9.873
REMARK INTER + INTRA:         -10.126
REMARK INTER:                  -8.947
REMARK INTRA:                  -1.179
REMARK UNBOUND:                -1.081
REMARK  Name = 
REMARK  7 active torsions:
REMARK  status: ('A' for Active; 'I' for Inactive)
REMARK    1  A    between atoms: C_1  and  N_2
REMARK    2  A    between atoms: C_4  and  C_5
REMARK    3  A    between atoms: N_7  and  C_8
REMARK    4  A    between atoms: C_8  and  C_9
REMARK    5  A    between atoms: C_12  and  N_13
REMARK    6  A    between atoms: N_13  and  C_14
REMARK    7  A    between atoms: C_14  and  C_15
REMARK                            x       y       z     vdW  Elec       q    Type
REMARK                         _______ _______ _______ _____ _____    ______ ____
ROOT
ATOM      1  C   UNL     1      47.763   3.794  16.499  0.00  0.00    +0.000 C 
ENDROOT
BRANCH   1   2
ATOM      2  C   UNL     1      47.981   4.508  17.805  0.00  0.00    +0.000 A 
ATOM      3  C   UNL     1      49.217   4.425  18.455  0.00  0.00    +0.000 A 
ATOM      4  C   UNL     1      49.456   5.151  19.628  0.00  0.00    +0.000 A 
ATOM      5  C   UNL     1      48.458   5.937  20.207  0.00  0.00    +0.000 A 
ATOM      6  C   UNL     1      47.218   5.998  19.560  0.00  0.00    +0.000 A 
ATOM      7  C   UNL     1      46.975   5.288  18.378  0.00  0.00    +0.000 A 
BRANCH   5   8
ATOM      8  N   UNL     1      48.669   6.766  21.300  0.00  0.00    +0.000 N 
ATOM      9  H   UNL     1      48.702   6.280  22.191  0.00  0.00    +0.000 HD
BRANCH   8  10
ATOM     10  C   UNL     1      49.436   7.999  21.219  0.00  0.00    +0.000 C 
BRANCH  10  11
ATOM     11  C   UNL     1      48.481   9.203  21.201  0.00  0.00    +0.000 C 
ATOM     12  C   UNL     1      47.181   8.908  21.971  0.00  0.00    +0.000 C 
ATOM     13  C   UNL     1      46.225  10.096  21.931  0.00  0.00    +0.000 C 
ATOM     14  C   UNL     1      45.923  10.522  20.499  0.00  0.00    +0.000 C 
ATOM     15  C   UNL     1      47.203  10.807  19.718  0.00  0.00    +0.000 C 
ATOM     16  C   UNL     1      48.163   9.619  19.757  0.00  0.00    +0.000 C 
ENDBRANCH  10  11
ENDBRANCH   8  10
ENDBRANCH   5   8
ENDBRANCH   1   2
BRANCH   1  19
ATOM     17  C   UNL     1      46.674   4.092  14.341  0.00  0.00    +0.000 C 
ATOM     18  O   UNL     1      47.317   3.168  13.862  0.00  0.00    +0.000 OA
ATOM     19  N   UNL     1      46.794   4.460  15.665  0.00  0.00    +0.000 N 
ATOM     20  H   UNL     1      46.334   5.289  16.008  0.00  0.00    +0.000 HD
BRANCH  17  24
ATOM     21  C   UNL     1      42.653   5.304  11.651  0.00  0.00    +0.000 C 
ATOM     22  N   UNL     1      43.917   5.403  12.344  0.00  0.00    +0.000 N 
ATOM     23  C   UNL     1      44.508   4.411  13.079  0.00  0.00    +0.000 A 
ATOM     24  C   UNL     1      45.726   4.882  13.560  0.00  0.00    +0.000 A 
ATOM     25  C   UNL     1      45.855   6.239  13.091  0.00  0.00    +0.000 A 
ATOM     26  C   UNL     1      46.741   7.312  13.171  0.00  0.00    +0.000 A 
ATOM     27 CL   UNL     1      48.155   7.227  14.101  0.00  0.00    +0.000 Cl
ATOM     28  N   UNL     1      46.497   8.495  12.578  0.00  0.00    +0.000 NA
ATOM     29  C   UNL     1      45.356   8.603  11.890  0.00  0.00    +0.000 A 
ATOM     30  N   UNL     1      44.408   7.669  11.723  0.00  0.00    +0.000 NA
ATOM     31  C   UNL     1      44.711   6.516  12.345  0.00  0.00    +0.000 A 
ENDBRANCH  17  24
ENDBRANCH   1  19
TORSDOF 6
ENDMDL
