MODEL 1
REMARK VINA RESULT:    -8.357      0.000      0.000
REMARK INTER + INTRA:         -13.419
REMARK INTER:                 -12.265
REMARK INTRA:                  -1.154
REMARK UNBOUND:                -1.154
REMARK  Name = 
REMARK  9 active torsions:
REMARK  status: ('A' for Active; 'I' for Inactive)
REMARK    1  A    between atoms: C_2  and  O_3
REMARK    2  A    between atoms: C_2  and  C_21
REMARK    3  A    between atoms: O_3  and  C_4
REMARK    4  A    between atoms: C_4  and  C_5
REMARK    5  A    between atoms: C_8  and  C_9
REMARK    6  A    between atoms: C_9  and  O_10
REMARK    7  A    between atoms: C_9  and  C_11
REMARK    8  A    between atoms: C_9  and  C_13
REMARK    9  A    between atoms: C_11  and  O_12
REMARK                            x       y       z     vdW  Elec       q    Type
REMARK                         _______ _______ _______ _____ _____    ______ ____
ROOT
ATOM      1  C   UNL     1      46.997   4.872  14.039  0.00  0.00    +0.000 A 
ATOM      2  C   UNL     1      46.428   5.859  13.230  0.00  0.00    +0.000 A 
ATOM      3  C   UNL     1      45.586   5.514  12.171  0.00  0.00    +0.000 A 
ATOM      4  C   UNL     1      45.303   4.169  11.869  0.00  0.00    +0.000 A 
ATOM      5  C   UNL     1      45.910   3.184  12.669  0.00  0.00    +0.000 A 
ATOM      6  C   UNL     1      46.744   3.530  13.735  0.00  0.00    +0.000 A 
ENDROOT
BRANCH   1   7
ATOM      7  C   UNL     1      47.841   5.250  15.230  0.00  0.00    +0.000 C 
BRANCH   7   8
ATOM      8  O   UNL     1      47.106   5.093  16.453  0.00  0.00    +0.000 OA
BRANCH   8  10
ATOM      9  O   UNL     1      46.627   3.068  17.391  0.00  0.00    +0.000 OA
ATOM     10  C   UNL     1      47.401   3.998  17.189  0.00  0.00    +0.000 C 
BRANCH  10  11
ATOM     11  C   UNL     1      48.715   4.072  17.818  0.00  0.00    +0.000 A 
ATOM     12  C   UNL     1      48.982   5.038  18.777  0.00  0.00    +0.000 A 
ATOM     13  S   UNL     1      50.583   4.987  19.365  0.00  0.00    +0.000 S 
ATOM     14  C   UNL     1      50.950   3.629  18.405  0.00  0.00    +0.000 A 
ATOM     15  N   UNL     1      52.172   3.039  18.476  0.00  0.00    +0.000 NA
ATOM     16  C   UNL     1      52.298   1.984  17.741  0.00  0.00    +0.000 A 
ATOM     17  N   UNL     1      51.315   1.480  16.930  0.00  0.00    +0.000 N 
ATOM     18  C   UNL     1      50.071   2.052  16.804  0.00  0.00    +0.000 A 
ATOM     19  O   UNL     1      49.235   1.551  16.063  0.00  0.00    +0.000 OA
ATOM     20  C   UNL     1      49.875   3.235  17.625  0.00  0.00    +0.000 A 
ATOM     21  H   UNL     1      51.470   0.644  16.384  0.00  0.00    +0.000 HD
ENDBRANCH  10  11
ENDBRANCH   8  10
ENDBRANCH   7   8
ENDBRANCH   1   7
BRANCH   4  22
ATOM     22  C   UNL     1      44.342   3.755  10.736  0.00  0.00    +0.000 C 
BRANCH  22  23
ATOM     23  C   UNL     1      45.107   3.441   9.437  0.00  0.00    +0.000 A 
ATOM     24  C   UNL     1      45.409   2.117   9.107  0.00  0.00    +0.000 A 
ATOM     25  C   UNL     1      46.172   1.853   7.972  0.00  0.00    +0.000 A 
ATOM     26  C   UNL     1      46.598   2.907   7.176  0.00  0.00    +0.000 A 
ATOM     27  C   UNL     1      46.238   4.190   7.548  0.00  0.00    +0.000 A 
ATOM     28  N   UNL     1      45.518   4.480   8.654  0.00  0.00    +0.000 NA
ENDBRANCH  22  23
BRANCH  22  29
ATOM     29  O   UNL     1      43.607   2.566  11.104  0.00  0.00    +0.000 OA
ATOM     30  H   UNL     1      43.928   1.870  10.508  0.00  0.00    +0.000 HD
ENDBRANCH  22  29
BRANCH  22  31
ATOM     31  C   UNL     1      43.272   4.863  10.492  0.00  0.00    +0.000 C 
BRANCH  31  32
ATOM     32  O   UNL     1      42.299   4.908  11.549  0.00  0.00    +0.000 OA
ATOM     33  H   UNL     1      41.507   5.334  11.180  0.00  0.00    +0.000 HD
ENDBRANCH  31  32
ENDBRANCH  22  31
ENDBRANCH   4  22
TORSDOF 9
ENDMDL
MODEL 2
REMARK VINA RESULT:    -8.242      0.955      1.216
REMARK INTER + INTRA:         -13.250
REMARK INTER:                 -12.287
REMARK INTRA:                  -0.963
REMARK UNBOUND:                -1.154
REMARK  Name = 
REMARK  9 active torsions:
REMARK  status: ('A' for Active; 'I' for Inactive)
REMARK    1  A    between atoms: C_2  and  O_3
REMARK    2  A    between atoms: C_2  and  C_21
REMARK    3  A    between atoms: O_3  and  C_4
REMARK    4  A    between atoms: C_4  and  C_5
REMARK    5  A    between atoms: C_8  and  C_9
REMARK    6  A    between atoms: C_9  and  O_10
REMARK    7  A    between atoms: C_9  and  C_11
REMARK    8  A    between atoms: C_9  and  C_13
REMARK    9  A    between atoms: C_11  and  O_12
REMARK                            x       y       z     vdW  Elec       q    Type
REMARK                         _______ _______ _______ _____ _____    ______ ____
ROOT
ATOM      1  C   UNL     1      47.048   5.241  14.110  0.00  0.00    +0.000 A 
ATOM      2  C   UNL     1      46.401   6.156  13.275  0.00  0.00    +0.000 A 
ATOM      3  C   UNL     1      45.549   5.714  12.260  0.00  0.00    +0.000 A 
ATOM      4  C   UNL     1      45.334   4.343  12.029  0.00  0.00    +0.000 A 
ATOM      5  C   UNL     1      46.019   3.432  12.854  0.00  0.00    +0.000 A 
ATOM      6  C   UNL     1      46.863   3.874  13.875  0.00  0.00    +0.000 A 
ENDROOT
BRANCH   1   7
ATOM      7  C   UNL     1      47.905   5.721  15.254  0.00  0.00    +0.000 C 
BRANCH   7   8
ATOM      8  O   UNL     1      48.604   4.627  15.868  0.00  0.00    +0.000 OA
BRANCH   8  10
ATOM      9  O   UNL     1      47.644   4.893  17.921  0.00  0.00    +0.000 OA
ATOM     10  C   UNL     1      48.607   4.605  17.219  0.00  0.00    +0.000 C 
BRANCH  10  11
ATOM     11  C   UNL     1      49.919   4.300  17.779  0.00  0.00    +0.000 A 
ATOM     12  C   UNL     1      50.545   5.195  18.633  0.00  0.00    +0.000 A 
ATOM     13  S   UNL     1      52.086   4.677  19.150  0.00  0.00    +0.000 S 
ATOM     14  C   UNL     1      51.936   3.207  18.303  0.00  0.00    +0.000 A 
ATOM     15  N   UNL     1      52.911   2.262  18.373  0.00  0.00    +0.000 NA
ATOM     16  C   UNL     1      52.644   1.173  17.732  0.00  0.00    +0.000 A 
ATOM     17  N   UNL     1      51.497   0.953  17.015  0.00  0.00    +0.000 N 
ATOM     18  C   UNL     1      50.492   1.884  16.894  0.00  0.00    +0.000 A 
ATOM     19  O   UNL     1      49.489   1.625  16.240  0.00  0.00    +0.000 OA
ATOM     20  C   UNL     1      50.738   3.123  17.612  0.00  0.00    +0.000 A 
ATOM     21  H   UNL     1      51.341   0.075  16.542  0.00  0.00    +0.000 HD
ENDBRANCH  10  11
ENDBRANCH   8  10
ENDBRANCH   7   8
ENDBRANCH   1   7
BRANCH   4  22
ATOM     22  C   UNL     1      44.365   3.823  10.948  0.00  0.00    +0.000 C 
BRANCH  22  23
ATOM     23  C   UNL     1      45.116   3.434   9.661  0.00  0.00    +0.000 A 
ATOM     24  C   UNL     1      45.524   4.425   8.764  0.00  0.00    +0.000 A 
ATOM     25  C   UNL     1      46.129   4.055   7.565  0.00  0.00    +0.000 A 
ATOM     26  C   UNL     1      46.337   2.709   7.294  0.00  0.00    +0.000 A 
ATOM     27  C   UNL     1      45.933   1.785   8.240  0.00  0.00    +0.000 A 
ATOM     28  N   UNL     1      45.324   2.112   9.401  0.00  0.00    +0.000 NA
ENDBRANCH  22  23
BRANCH  22  29
ATOM     29  O   UNL     1      43.668   2.647  11.416  0.00  0.00    +0.000 OA
ATOM     30  H   UNL     1      42.981   2.976  12.017  0.00  0.00    +0.000 HD
ENDBRANCH  22  29
BRANCH  22  31
ATOM     31  C   UNL     1      43.263   4.884  10.643  0.00  0.00    +0.000 C 
BRANCH  31  32
ATOM     32  O   UNL     1      42.228   4.881  11.642  0.00  0.00    +0.000 OA
ATOM     33  H   UNL     1      42.203   3.983  12.013  0.00  0.00    +0.000 HD
ENDBRANCH  31  32
ENDBRANCH  22  31
ENDBRANCH   4  22
TORSDOF 9
ENDMDL
MODEL 3
REMARK VINA RESULT:    -7.464      2.793      8.789
REMARK INTER + INTRA:         -12.109
REMARK INTER:                 -10.995
REMARK INTRA:                  -1.114
REMARK UNBOUND:                -1.154
REMARK  Name = 
REMARK  9 active torsions:
REMARK  status: ('A' for Active; 'I' for Inactive)
REMARK    1  A    between atoms: C_2  and  O_3
REMARK    2  A    between atoms: C_2  and  C_21
REMARK    3  A    between atoms: O_3  and  C_4
REMARK    4  A    between atoms: C_4  and  C_5
REMARK    5  A    between atoms: C_8  and  C_9
REMARK    6  A    between atoms: C_9  and  O_10
REMARK    7  A    between atoms: C_9  and  C_11
REMARK    8  A    between atoms: C_9  and  C_13
REMARK    9  A    between atoms: C_11  and  O_12
REMARK                            x       y       z     vdW  Elec       q    Type
REMARK                         _______ _______ _______ _____ _____    ______ ____
ROOT
ATOM      1  C   UNL     1      47.453   5.843  13.655  0.00  0.00    +0.000 A 
ATOM      2  C   UNL     1      46.822   4.610  13.839  0.00  0.00    +0.000 A 
ATOM      3  C   UNL     1      46.986   3.896  15.028  0.00  0.00    +0.000 A 
ATOM      4  C   UNL     1      47.807   4.379  16.065  0.00  0.00    +0.000 A 
ATOM      5  C   UNL     1      48.464   5.605  15.852  0.00  0.00    +0.000 A 
ATOM      6  C   UNL     1      48.291   6.323  14.667  0.00  0.00    +0.000 A 
ENDROOT
BRANCH   1   7
ATOM      7  C   UNL     1      47.211   6.648  12.404  0.00  0.00    +0.000 C 
BRANCH   7   8
ATOM      8  O   UNL     1      46.045   7.475  12.540  0.00  0.00    +0.000 OA
BRANCH   8  10
ATOM      9  O   UNL     1      44.653   8.207  10.886  0.00  0.00    +0.000 OA
ATOM     10  C   UNL     1      45.085   7.311  11.603  0.00  0.00    +0.000 C 
BRANCH  10  11
ATOM     11  C   UNL     1      44.525   5.964  11.593  0.00  0.00    +0.000 A 
ATOM     12  C   UNL     1      43.646   5.561  12.587  0.00  0.00    +0.000 A 
ATOM     13  S   UNL     1      43.131   3.942  12.424  0.00  0.00    +0.000 S 
ATOM     14  C   UNL     1      44.015   3.750  10.980  0.00  0.00    +0.000 A 
ATOM     15  N   UNL     1      43.963   2.584  10.284  0.00  0.00    +0.000 NA
ATOM     16  C   UNL     1      44.631   2.593   9.178  0.00  0.00    +0.000 A 
ATOM     17  N   UNL     1      45.360   3.659   8.719  0.00  0.00    +0.000 N 
ATOM     18  C   UNL     1      45.465   4.851   9.396  0.00  0.00    +0.000 A 
ATOM     19  O   UNL     1      46.131   5.767   8.931  0.00  0.00    +0.000 OA
ATOM     20  C   UNL     1      44.716   4.896  10.641  0.00  0.00    +0.000 A 
ATOM     21  H   UNL     1      45.856   3.609   7.840  0.00  0.00    +0.000 HD
ENDBRANCH  10  11
ENDBRANCH   8  10
ENDBRANCH   7   8
ENDBRANCH   1   7
BRANCH   4  22
ATOM     22  C   UNL     1      47.973   3.639  17.407  0.00  0.00    +0.000 C 
BRANCH  22  23
ATOM     23  C   UNL     1      48.154   4.627  18.575  0.00  0.00    +0.000 A 
ATOM     24  C   UNL     1      47.136   5.531  18.888  0.00  0.00    +0.000 A 
ATOM     25  C   UNL     1      47.344   6.473  19.892  0.00  0.00    +0.000 A 
ATOM     26  C   UNL     1      48.550   6.481  20.580  0.00  0.00    +0.000 A 
ATOM     27  C   UNL     1      49.502   5.538  20.236  0.00  0.00    +0.000 A 
ATOM     28  N   UNL     1      49.338   4.627  19.252  0.00  0.00    +0.000 NA
ENDBRANCH  22  23
BRANCH  22  29
ATOM     29  O   UNL     1      46.804   2.839  17.693  0.00  0.00    +0.000 OA
ATOM     30  H   UNL     1      46.719   2.228  16.943  0.00  0.00    +0.000 HD
ENDBRANCH  22  29
BRANCH  22  31
ATOM     31  C   UNL     1      49.170   2.641  17.338  0.00  0.00    +0.000 C 
BRANCH  31  32
ATOM     32  O   UNL     1      49.191   1.917  16.096  0.00  0.00    +0.000 OA
ATOM     33  H   UNL     1      49.975   2.223  15.609  0.00  0.00    +0.000 HD
ENDBRANCH  31  32
ENDBRANCH  22  31
ENDBRANCH   4  22
TORSDOF 9
ENDMDL
MODEL 4
REMARK VINA RESULT:    -7.250      2.334      3.138
REMARK INTER + INTRA:         -11.795
REMARK INTER:                 -11.049
REMARK INTRA:                  -0.746
REMARK UNBOUND:                -1.154
REMARK  Name = 
REMARK  9 active torsions:
REMARK  status: ('A' for Active; 'I' for Inactive)
REMARK    1  A    between atoms: C_2  and  O_3
REMARK    2  A    between atoms: C_2  and  C_21
REMARK    3  A    between atoms: O_3  and  C_4
REMARK    4  A    between atoms: C_4  and  C_5
REMARK    5  A    between atoms: C_8  and  C_9
REMARK    6  A    between atoms: C_9  and  O_10
REMARK    7  A    between atoms: C_9  and  C_11
REMARK    8  A    between atoms: C_9  and  C_13
REMARK    9  A    between atoms: C_11  and  O_12
REMARK                            x       y       z     vdW  Elec       q    Type
REMARK                         _______ _______ _______ _____ _____    ______ ____
ROOT
ATOM      1  C   UNL     1      47.459   6.635  13.715  0.00  0.00    +0.000 A 
ATOM      2  C   UNL     1      47.220   5.341  14.186  0.00  0.00    +0.000 A 
ATOM      3  C   UNL     1      46.174   4.575  13.666  0.00  0.00    +0.000 A 
ATOM      4  C   UNL     1      45.317   5.085  12.673  0.00  0.00    +0.000 A 
ATOM      5  C   UNL     1      45.547   6.401  12.232  0.00  0.00    +0.000 A 
ATOM      6  C   UNL     1      46.598   7.163  12.746  0.00  0.00    +0.000 A 
ENDROOT
BRANCH   1   7
ATOM      7  C   UNL     1      48.635   7.430  14.222  0.00  0.00    +0.000 C 
BRANCH   7   8
ATOM      8  O   UNL     1      49.644   6.566  14.767  0.00  0.00    +0.000 OA
BRANCH   8  10
ATOM      9  O   UNL     1      51.518   7.438  15.737  0.00  0.00    +0.000 OA
ATOM     10  C   UNL     1      50.353   7.059  15.807  0.00  0.00    +0.000 C 
BRANCH  10  11
ATOM     11  C   UNL     1      49.624   7.002  17.069  0.00  0.00    +0.000 A 
ATOM     12  C   UNL     1      48.952   8.118  17.544  0.00  0.00    +0.000 A 
ATOM     13  S   UNL     1      48.193   7.864  19.051  0.00  0.00    +0.000 S 
ATOM     14  C   UNL     1      48.683   6.233  19.084  0.00  0.00    +0.000 A 
ATOM     15  N   UNL     1      48.309   5.416  20.104  0.00  0.00    +0.000 NA
ATOM     16  C   UNL     1      48.698   4.191  19.975  0.00  0.00    +0.000 A 
ATOM     17  N   UNL     1      49.442   3.717  18.926  0.00  0.00    +0.000 N 
ATOM     18  C   UNL     1      49.866   4.507  17.883  0.00  0.00    +0.000 A 
ATOM     19  O   UNL     1      50.527   4.022  16.973  0.00  0.00    +0.000 OA
ATOM     20  C   UNL     1      49.439   5.893  17.974  0.00  0.00    +0.000 A 
ATOM     21  H   UNL     1      49.709   2.744  18.876  0.00  0.00    +0.000 HD
ENDBRANCH  10  11
ENDBRANCH   8  10
ENDBRANCH   7   8
ENDBRANCH   1   7
BRANCH   4  22
ATOM     22  C   UNL     1      44.183   4.250  12.044  0.00  0.00    +0.000 C 
BRANCH  22  23
ATOM     23  C   UNL     1      44.557   3.770  10.629  0.00  0.00    +0.000 A 
ATOM     24  C   UNL     1      45.069   4.677   9.697  0.00  0.00    +0.000 A 
ATOM     25  C   UNL     1      45.325   4.249   8.397  0.00  0.00    +0.000 A 
ATOM     26  C   UNL     1      45.091   2.923   8.057  0.00  0.00    +0.000 A 
ATOM     27  C   UNL     1      44.611   2.075   9.038  0.00  0.00    +0.000 A 
ATOM     28  N   UNL     1      44.331   2.466  10.301  0.00  0.00    +0.000 NA
ENDBRANCH  22  23
BRANCH  22  29
ATOM     29  O   UNL     1      43.916   3.076  12.843  0.00  0.00    +0.000 OA
ATOM     30  H   UNL     1      43.285   2.550  12.326  0.00  0.00    +0.000 HD
ENDBRANCH  22  29
BRANCH  22  31
ATOM     31  C   UNL     1      42.853   5.064  12.017  0.00  0.00    +0.000 C 
BRANCH  31  32
ATOM     32  O   UNL     1      42.473   5.510  13.330  0.00  0.00    +0.000 OA
ATOM     33  H   UNL     1      43.077   6.236  13.562  0.00  0.00    +0.000 HD
ENDBRANCH  31  32
ENDBRANCH  22  31
ENDBRANCH   4  22
TORSDOF 9
ENDMDL
MODEL 5
REMARK VINA RESULT:    -6.972      2.639      3.698
REMARK INTER + INTRA:         -11.386
REMARK INTER:                  -9.890
REMARK INTRA:                  -1.496
REMARK UNBOUND:                -1.154
REMARK  Name = 
REMARK  9 active torsions:
REMARK  status: ('A' for Active; 'I' for Inactive)
REMARK    1  A    between atoms: C_2  and  O_3
REMARK    2  A    between atoms: C_2  and  C_21
REMARK    3  A    between atoms: O_3  and  C_4
REMARK    4  A    between atoms: C_4  and  C_5
REMARK    5  A    between atoms: C_8  and  C_9
REMARK    6  A    between atoms: C_9  and  O_10
REMARK    7  A    between atoms: C_9  and  C_11
REMARK    8  A    between atoms: C_9  and  C_13
REMARK    9  A    between atoms: C_11  and  O_12
REMARK                            x       y       z     vdW  Elec       q    Type
REMARK                         _______ _______ _______ _____ _____    ______ ____
ROOT
ATOM      1  C   UNL     1      47.559   6.928  13.699  0.00  0.00    +0.000 A 
ATOM      2  C   UNL     1      46.483   7.587  13.101  0.00  0.00    +0.000 A 
ATOM      3  C   UNL     1      45.407   6.867  12.577  0.00  0.00    +0.000 A 
ATOM      4  C   UNL     1      45.382   5.460  12.612  0.00  0.00    +0.000 A 
ATOM      5  C   UNL     1      46.489   4.807  13.186  0.00  0.00    +0.000 A 
ATOM      6  C   UNL     1      47.559   5.529  13.718  0.00  0.00    +0.000 A 
ENDROOT
BRANCH   1   7
ATOM      7  C   UNL     1      48.681   7.711  14.334  0.00  0.00    +0.000 C 
BRANCH   7   8
ATOM      8  O   UNL     1      49.790   6.855  14.651  0.00  0.00    +0.000 OA
BRANCH   8  10
ATOM      9  O   UNL     1      51.359   7.843  15.984  0.00  0.00    +0.000 OA
ATOM     10  C   UNL     1      50.403   7.089  15.833  0.00  0.00    +0.000 C 
BRANCH  10  11
ATOM     11  C   UNL     1      49.878   6.265  16.917  0.00  0.00    +0.000 A 
ATOM     12  C   UNL     1      50.294   4.951  17.067  0.00  0.00    +0.000 A 
ATOM     13  S   UNL     1      49.540   4.144  18.367  0.00  0.00    +0.000 S 
ATOM     14  C   UNL     1      48.684   5.547  18.813  0.00  0.00    +0.000 A 
ATOM     15  N   UNL     1      47.876   5.549  19.906  0.00  0.00    +0.000 NA
ATOM     16  C   UNL     1      47.334   6.693  20.165  0.00  0.00    +0.000 A 
ATOM     17  N   UNL     1      47.515   7.827  19.417  0.00  0.00    +0.000 N 
ATOM     18  C   UNL     1      48.302   7.871  18.290  0.00  0.00    +0.000 A 
ATOM     19  O   UNL     1      48.425   8.918  17.666  0.00  0.00    +0.000 OA
ATOM     20  C   UNL     1      48.948   6.611  17.965  0.00  0.00    +0.000 A 
ATOM     21  H   UNL     1      47.070   8.696  19.676  0.00  0.00    +0.000 HD
ENDBRANCH  10  11
ENDBRANCH   8  10
ENDBRANCH   7   8
ENDBRANCH   1   7
BRANCH   4  22
ATOM     22  C   UNL     1      44.191   4.636  12.085  0.00  0.00    +0.000 C 
BRANCH  22  23
ATOM     23  C   UNL     1      44.487   4.046  10.693  0.00  0.00    +0.000 A 
ATOM     24  C   UNL     1      44.192   2.706  10.426  0.00  0.00    +0.000 A 
ATOM     25  C   UNL     1      44.540   2.164   9.191  0.00  0.00    +0.000 A 
ATOM     26  C   UNL     1      45.152   2.969   8.241  0.00  0.00    +0.000 A 
ATOM     27  C   UNL     1      45.388   4.293   8.564  0.00  0.00    +0.000 A 
ATOM     28  N   UNL     1      45.082   4.842   9.760  0.00  0.00    +0.000 NA
ENDBRANCH  22  23
BRANCH  22  29
ATOM     29  O   UNL     1      43.907   3.530  12.972  0.00  0.00    +0.000 OA
ATOM     30  H   UNL     1      44.774   3.210  13.271  0.00  0.00    +0.000 HD
ENDBRANCH  22  29
BRANCH  22  31
ATOM     31  C   UNL     1      42.896   5.504  12.051  0.00  0.00    +0.000 C 
BRANCH  31  32
ATOM     32  O   UNL     1      42.674   6.081  10.753  0.00  0.00    +0.000 OA
ATOM     33  H   UNL     1      41.711   6.163  10.646  0.00  0.00    +0.000 HD
ENDBRANCH  31  32
ENDBRANCH  22  31
ENDBRANCH   4  22
TORSDOF 9
ENDMDL
MODEL 6
REMARK VINA RESULT:    -6.690      2.580      3.522
REMARK INTER + INTRA:         -10.972
REMARK INTER:                  -9.849
REMARK INTRA:                  -1.124
REMARK UNBOUND:                -1.154
REMARK  Name = 
REMARK  9 active torsions:
REMARK  status: ('A' for Active; 'I' for Inactive)
REMARK    1  A    between atoms: C_2  and  O_3
REMARK    2  A    between atoms: C_2  and  C_21
REMARK    3  A    between atoms: O_3  and  C_4
REMARK    4  A    between atoms: C_4  and  C_5
REMARK    5  A    between atoms: C_8  and  C_9
REMARK    6  A    between atoms: C_9  and  O_10
REMARK    7  A    between atoms: C_9  and  C_11
REMARK    8  A    between atoms: C_9  and  C_13
REMARK    9  A    between atoms: C_11  and  O_12
REMARK                            x       y       z     vdW  Elec       q    Type
REMARK                         _______ _______ _______ _____ _____    ______ ____
ROOT
ATOM      1  C   UNL     1      48.332   6.998  14.222  0.00  0.00    +0.000 A 
ATOM      2  C   UNL     1      47.702   8.064  13.575  0.00  0.00    +0.000 A 
ATOM      3  C   UNL     1      46.497   7.873  12.895  0.00  0.00    +0.000 A 
ATOM      4  C   UNL     1      45.892   6.605  12.820  0.00  0.00    +0.000 A 
ATOM      5  C   UNL     1      46.554   5.533  13.446  0.00  0.00    +0.000 A 
ATOM      6  C   UNL     1      47.754   5.726  14.134  0.00  0.00    +0.000 A 
ENDROOT
BRANCH   1   7
ATOM      7  C   UNL     1      49.591   7.222  15.021  0.00  0.00    +0.000 C 
BRANCH   7   8
ATOM      8  O   UNL     1      49.871   6.096  15.867  0.00  0.00    +0.000 OA
BRANCH   8  10
ATOM      9  O   UNL     1      52.060   6.055  16.512  0.00  0.00    +0.000 OA
ATOM     10  C   UNL     1      50.876   6.255  16.758  0.00  0.00    +0.000 C 
BRANCH  10  11
ATOM     11  C   UNL     1      50.400   6.595  18.095  0.00  0.00    +0.000 A 
ATOM     12  C   UNL     1      50.517   7.891  18.575  0.00  0.00    +0.000 A 
ATOM     13  S   UNL     1      49.940   8.079  20.169  0.00  0.00    +0.000 S 
ATOM     14  C   UNL     1      49.453   6.448  20.244  0.00  0.00    +0.000 A 
ATOM     15  N   UNL     1      48.824   5.961  21.346  0.00  0.00    +0.000 NA
ATOM     16  C   UNL     1      48.457   4.727  21.247  0.00  0.00    +0.000 A 
ATOM     17  N   UNL     1      48.680   3.934  20.152  0.00  0.00    +0.000 N 
ATOM     18  C   UNL     1      49.332   4.371  19.023  0.00  0.00    +0.000 A 
ATOM     19  O   UNL     1      49.498   3.613  18.075  0.00  0.00    +0.000 OA
ATOM     20  C   UNL     1      49.752   5.761  19.078  0.00  0.00    +0.000 A 
ATOM     21  H   UNL     1      48.360   2.976  20.130  0.00  0.00    +0.000 HD
ENDBRANCH  10  11
ENDBRANCH   8  10
ENDBRANCH   7   8
ENDBRANCH   1   7
BRANCH   4  22
ATOM     22  C   UNL     1      44.540   6.369  12.117  0.00  0.00    +0.000 C 
BRANCH  22  23
ATOM     23  C   UNL     1      44.603   5.157  11.169  0.00  0.00    +0.000 A 
ATOM     24  C   UNL     1      45.323   5.242   9.974  0.00  0.00    +0.000 A 
ATOM     25  C   UNL     1      45.305   4.168   9.087  0.00  0.00    +0.000 A 
ATOM     26  C   UNL     1      44.592   3.024   9.417  0.00  0.00    +0.000 A 
ATOM     27  C   UNL     1      43.925   2.999  10.628  0.00  0.00    +0.000 A 
ATOM     28  N   UNL     1      43.906   4.032  11.499  0.00  0.00    +0.000 NA
ENDBRANCH  22  23
BRANCH  22  29
ATOM     29  O   UNL     1      43.503   6.104  13.090  0.00  0.00    +0.000 OA
ATOM     30  H   UNL     1      43.391   6.935  13.580  0.00  0.00    +0.000 HD
ENDBRANCH  22  29
BRANCH  22  31
ATOM     31  C   UNL     1      44.091   7.648  11.347  0.00  0.00    +0.000 C 
BRANCH  31  32
ATOM     32  O   UNL     1      42.699   7.596  10.991  0.00  0.00    +0.000 OA
ATOM     33  H   UNL     1      42.296   8.416  11.322  0.00  0.00    +0.000 HD
ENDBRANCH  31  32
ENDBRANCH  22  31
ENDBRANCH   4  22
TORSDOF 9
ENDMDL
MODEL 7
REMARK VINA RESULT:    -6.571      3.081      8.618
REMARK INTER + INTRA:         -10.798
REMARK INTER:                  -9.703
REMARK INTRA:                  -1.095
REMARK UNBOUND:                -1.154
REMARK  Name = 
REMARK  9 active torsions:
REMARK  status: ('A' for Active; 'I' for Inactive)
REMARK    1  A    between atoms: C_2  and  O_3
REMARK    2  A    between atoms: C_2  and  C_21
REMARK    3  A    between atoms: O_3  and  C_4
REMARK    4  A    between atoms: C_4  and  C_5
REMARK    5  A    between atoms: C_8  and  C_9
REMARK    6  A    between atoms: C_9  and  O_10
REMARK    7  A    between atoms: C_9  and  C_11
REMARK    8  A    between atoms: C_9  and  C_13
REMARK    9  A    between atoms: C_11  and  O_12
REMARK                            x       y       z     vdW  Elec       q    Type
REMARK                         _______ _______ _______ _____ _____    ______ ____
ROOT
ATOM      1  C   UNL     1      47.690   7.928  13.682  0.00  0.00    +0.000 A 
ATOM      2  C   UNL     1      47.968   6.572  13.875  0.00  0.00    +0.000 A 
ATOM      3  C   UNL     1      48.493   6.118  15.087  0.00  0.00    +0.000 A 
ATOM      4  C   UNL     1      48.780   7.006  16.139  0.00  0.00    +0.000 A 
ATOM      5  C   UNL     1      48.529   8.373  15.920  0.00  0.00    +0.000 A 
ATOM      6  C   UNL     1      47.994   8.826  14.711  0.00  0.00    +0.000 A 
ENDROOT
BRANCH   1   7
ATOM      7  C   UNL     1      47.050   8.405  12.403  0.00  0.00    +0.000 C 
BRANCH   7   8
ATOM      8  O   UNL     1      46.555   7.299  11.631  0.00  0.00    +0.000 OA
BRANCH   8  10
ATOM      9  O   UNL     1      44.541   8.278  11.190  0.00  0.00    +0.000 OA
ATOM     10  C   UNL     1      45.223   7.281  11.402  0.00  0.00    +0.000 C 
BRANCH  10  11
ATOM     11  C   UNL     1      44.642   5.949  11.536  0.00  0.00    +0.000 A 
ATOM     12  C   UNL     1      43.851   5.634  12.629  0.00  0.00    +0.000 A 
ATOM     13  S   UNL     1      43.297   4.020  12.624  0.00  0.00    +0.000 S 
ATOM     14  C   UNL     1      44.042   3.712  11.123  0.00  0.00    +0.000 A 
ATOM     15  N   UNL     1      43.908   2.503  10.517  0.00  0.00    +0.000 NA
ATOM     16  C   UNL     1      44.473   2.423   9.358  0.00  0.00    +0.000 A 
ATOM     17  N   UNL     1      45.175   3.439   8.763  0.00  0.00    +0.000 N 
ATOM     18  C   UNL     1      45.360   4.671   9.345  0.00  0.00    +0.000 A 
ATOM     19  O   UNL     1      45.996   5.539   8.759  0.00  0.00    +0.000 OA
ATOM     20  C   UNL     1      44.728   4.817  10.645  0.00  0.00    +0.000 A 
ATOM     21  H   UNL     1      45.587   3.319   7.849  0.00  0.00    +0.000 HD
ENDBRANCH  10  11
ENDBRANCH   8  10
ENDBRANCH   7   8
ENDBRANCH   1   7
BRANCH   4  22
ATOM     22  C   UNL     1      49.317   6.533  17.505  0.00  0.00    +0.000 C 
BRANCH  22  23
ATOM     23  C   UNL     1      49.558   5.011  17.517  0.00  0.00    +0.000 A 
ATOM     24  C   UNL     1      50.860   4.511  17.600  0.00  0.00    +0.000 A 
ATOM     25  C   UNL     1      51.070   3.137  17.528  0.00  0.00    +0.000 A 
ATOM     26  C   UNL     1      49.980   2.287  17.399  0.00  0.00    +0.000 A 
ATOM     27  C   UNL     1      48.718   2.850  17.351  0.00  0.00    +0.000 A 
ATOM     28  N   UNL     1      48.484   4.180  17.397  0.00  0.00    +0.000 NA
ENDBRANCH  22  23
BRANCH  22  29
ATOM     29  O   UNL     1      50.578   7.173  17.804  0.00  0.00    +0.000 OA
ATOM     30  H   UNL     1      50.512   8.063  17.420  0.00  0.00    +0.000 HD
ENDBRANCH  22  29
BRANCH  22  31
ATOM     31  C   UNL     1      48.342   6.946  18.650  0.00  0.00    +0.000 C 
BRANCH  31  32
ATOM     32  O   UNL     1      47.049   6.335  18.497  0.00  0.00    +0.000 OA
ATOM     33  H   UNL     1      46.538   6.913  17.906  0.00  0.00    +0.000 HD
ENDBRANCH  31  32
ENDBRANCH  22  31
ENDBRANCH   4  22
TORSDOF 9
ENDMDL
MODEL 8
REMARK VINA RESULT:    -6.337      3.244      9.561
REMARK INTER + INTRA:         -10.454
REMARK INTER:                  -9.478
REMARK INTRA:                  -0.975
REMARK UNBOUND:                -1.154
REMARK  Name = 
REMARK  9 active torsions:
REMARK  status: ('A' for Active; 'I' for Inactive)
REMARK    1  A    between atoms: C_2  and  O_3
REMARK    2  A    between atoms: C_2  and  C_21
REMARK    3  A    between atoms: O_3  and  C_4
REMARK    4  A    between atoms: C_4  and  C_5
REMARK    5  A    between atoms: C_8  and  C_9
REMARK    6  A    between atoms: C_9  and  O_10
REMARK    7  A    between atoms: C_9  and  C_11
REMARK    8  A    between atoms: C_9  and  C_13
REMARK    9  A    between atoms: C_11  and  O_12
REMARK                            x       y       z     vdW  Elec       q    Type
REMARK                         _______ _______ _______ _____ _____    ______ ____
ROOT
ATOM      1  C   UNL     1      48.649   3.520  16.975  0.00  0.00    +0.000 A 
ATOM      2  C   UNL     1      49.427   2.361  16.926  0.00  0.00    +0.000 A 
ATOM      3  C   UNL     1      50.738   2.361  17.405  0.00  0.00    +0.000 A 
ATOM      4  C   UNL     1      51.326   3.528  17.929  0.00  0.00    +0.000 A 
ATOM      5  C   UNL     1      50.544   4.698  17.941  0.00  0.00    +0.000 A 
ATOM      6  C   UNL     1      49.229   4.694  17.470  0.00  0.00    +0.000 A 
ENDROOT
BRANCH   1   7
ATOM      7  C   UNL     1      47.209   3.497  16.530  0.00  0.00    +0.000 C 
BRANCH   7   8
ATOM      8  O   UNL     1      46.939   4.560  15.602  0.00  0.00    +0.000 OA
BRANCH   8  10
ATOM      9  O   UNL     1      47.200   3.143  13.832  0.00  0.00    +0.000 OA
ATOM     10  C   UNL     1      46.798   4.200  14.307  0.00  0.00    +0.000 C 
BRANCH  10  11
ATOM     11  C   UNL     1      46.204   5.250  13.487  0.00  0.00    +0.000 A 
ATOM     12  C   UNL     1      46.901   6.421  13.231  0.00  0.00    +0.000 A 
ATOM     13  S   UNL     1      46.025   7.541  12.287  0.00  0.00    +0.000 S 
ATOM     14  C   UNL     1      44.712   6.466  12.134  0.00  0.00    +0.000 A 
ATOM     15  N   UNL     1      43.627   6.798  11.386  0.00  0.00    +0.000 NA
ATOM     16  C   UNL     1      42.731   5.870  11.306  0.00  0.00    +0.000 A 
ATOM     17  N   UNL     1      42.819   4.649  11.922  0.00  0.00    +0.000 N 
ATOM     18  C   UNL     1      43.883   4.274  12.708  0.00  0.00    +0.000 A 
ATOM     19  O   UNL     1      43.902   3.167  13.230  0.00  0.00    +0.000 OA
ATOM     20  C   UNL     1      44.926   5.280  12.817  0.00  0.00    +0.000 A 
ATOM     21  H   UNL     1      42.088   3.960  11.814  0.00  0.00    +0.000 HD
ENDBRANCH  10  11
ENDBRANCH   8  10
ENDBRANCH   7   8
ENDBRANCH   1   7
BRANCH   4  22
ATOM     22  C   UNL     1      52.755   3.552  18.509  0.00  0.00    +0.000 C 
BRANCH  22  23
ATOM     23  C   UNL     1      53.495   4.846  18.124  0.00  0.00    +0.000 A 
ATOM     24  C   UNL     1      53.687   5.850  19.078  0.00  0.00    +0.000 A 
ATOM     25  C   UNL     1      54.285   7.049  18.696  0.00  0.00    +0.000 A 
ATOM     26  C   UNL     1      54.702   7.215  17.383  0.00  0.00    +0.000 A 
ATOM     27  C   UNL     1      54.506   6.168  16.501  0.00  0.00    +0.000 A 
ATOM     28  N   UNL     1      53.909   5.003  16.835  0.00  0.00    +0.000 NA
ENDBRANCH  22  23
BRANCH  22  29
ATOM     29  O   UNL     1      52.716   3.487  19.952  0.00  0.00    +0.000 OA
ATOM     30  H   UNL     1      51.935   4.001  20.213  0.00  0.00    +0.000 HD
ENDBRANCH  22  29
BRANCH  22  31
ATOM     31  C   UNL     1      53.557   2.298  18.042  0.00  0.00    +0.000 C 
BRANCH  31  32
ATOM     32  O   UNL     1      54.014   1.512  19.156  0.00  0.00    +0.000 OA
ATOM     33  H   UNL     1      54.785   1.974  19.524  0.00  0.00    +0.000 HD
ENDBRANCH  31  32
ENDBRANCH  22  31
ENDBRANCH   4  22
TORSDOF 9
ENDMDL
MODEL 9
REMARK VINA RESULT:    -6.201      3.763      4.985
REMARK INTER + INTRA:         -10.255
REMARK INTER:                  -8.686
REMARK INTRA:                  -1.569
REMARK UNBOUND:                -1.154
REMARK  Name = 
REMARK  9 active torsions:
REMARK  status: ('A' for Active; 'I' for Inactive)
REMARK    1  A    between atoms: C_2  and  O_3
REMARK    2  A    between atoms: C_2  and  C_21
REMARK    3  A    between atoms: O_3  and  C_4
REMARK    4  A    between atoms: C_4  and  C_5
REMARK    5  A    between atoms: C_8  and  C_9
REMARK    6  A    between atoms: C_9  and  O_10
REMARK    7  A    between atoms: C_9  and  C_11
REMARK    8  A    between atoms: C_9  and  C_13
REMARK    9  A    between atoms: C_11  and  O_12
REMARK                            x       y       z     vdW  Elec       q    Type
REMARK                         _______ _______ _______ _____ _____    ______ ____
ROOT
ATOM      1  C   UNL     1      47.588   8.511  12.404  0.00  0.00    +0.000 A 
ATOM      2  C   UNL     1      48.135   7.234  12.550  0.00  0.00    +0.000 A 
ATOM      3  C   UNL     1      47.315   6.104  12.562  0.00  0.00    +0.000 A 
ATOM      4  C   UNL     1      45.916   6.214  12.452  0.00  0.00    +0.000 A 
ATOM      5  C   UNL     1      45.375   7.508  12.340  0.00  0.00    +0.000 A 
ATOM      6  C   UNL     1      46.197   8.637  12.318  0.00  0.00    +0.000 A 
ENDROOT
BRANCH   1   7
ATOM      7  C   UNL     1      48.482   9.722  12.312  0.00  0.00    +0.000 C 
BRANCH   7   8
ATOM      8  O   UNL     1      48.386  10.524  13.500  0.00  0.00    +0.000 OA
BRANCH   8  10
ATOM      9  O   UNL     1      50.005  11.975  14.194  0.00  0.00    +0.000 OA
ATOM     10  C   UNL     1      49.555  10.838  14.102  0.00  0.00    +0.000 C 
BRANCH  10  11
ATOM     11  C   UNL     1      50.296   9.664  14.551  0.00  0.00    +0.000 A 
ATOM     12  C   UNL     1      51.607   9.464  14.147  0.00  0.00    +0.000 A 
ATOM     13  S   UNL     1      52.289   8.018  14.746  0.00  0.00    +0.000 S 
ATOM     14  C   UNL     1      50.874   7.650  15.620  0.00  0.00    +0.000 A 
ATOM     15  N   UNL     1      50.813   6.543  16.408  0.00  0.00    +0.000 NA
ATOM     16  C   UNL     1      49.706   6.415  17.060  0.00  0.00    +0.000 A 
ATOM     17  N   UNL     1      48.649   7.284  16.979  0.00  0.00    +0.000 N 
ATOM     18  C   UNL     1      48.651   8.403  16.180  0.00  0.00    +0.000 A 
ATOM     19  O   UNL     1      47.675   9.142  16.154  0.00  0.00    +0.000 OA
ATOM     20  C   UNL     1      49.884   8.601  15.436  0.00  0.00    +0.000 A 
ATOM     21  H   UNL     1      47.811   7.134  17.522  0.00  0.00    +0.000 HD
ENDBRANCH  10  11
ENDBRANCH   8  10
ENDBRANCH   7   8
ENDBRANCH   1   7
BRANCH   4  22
ATOM     22  C   UNL     1      44.985   4.985  12.415  0.00  0.00    +0.000 C 
BRANCH  22  23
ATOM     23  C   UNL     1      44.982   4.324  11.024  0.00  0.00    +0.000 A 
ATOM     24  C   UNL     1      45.472   5.024   9.917  0.00  0.00    +0.000 A 
ATOM     25  C   UNL     1      45.388   4.447   8.652  0.00  0.00    +0.000 A 
ATOM     26  C   UNL     1      44.840   3.179   8.517  0.00  0.00    +0.000 A 
ATOM     27  C   UNL     1      44.401   2.534   9.659  0.00  0.00    +0.000 A 
ATOM     28  N   UNL     1      44.449   3.076  10.896  0.00  0.00    +0.000 NA
ENDBRANCH  22  23
BRANCH  22  29
ATOM     29  O   UNL     1      45.424   3.989  13.366  0.00  0.00    +0.000 OA
ATOM     30  H   UNL     1      44.967   4.206  14.195  0.00  0.00    +0.000 HD
ENDBRANCH  22  29
BRANCH  22  31
ATOM     31  C   UNL     1      43.538   5.380  12.841  0.00  0.00    +0.000 C 
BRANCH  31  32
ATOM     32  O   UNL     1      42.588   5.144  11.788  0.00  0.00    +0.000 OA
ATOM     33  H   UNL     1      43.038   4.591  11.127  0.00  0.00    +0.000 HD
ENDBRANCH  31  32
ENDBRANCH  22  31
ENDBRANCH   4  22
TORSDOF 9
ENDMDL
