MODEL 1
REMARK VINA RESULT:    -8.101      0.000      0.000
REMARK INTER + INTRA:         -11.853
REMARK INTER:                 -11.416
REMARK INTRA:                  -0.437
REMARK UNBOUND:                -0.437
REMARK  Name = 
REMARK  8 active torsions:
REMARK  status: ('A' for Active; 'I' for Inactive)
REMARK    1  A    between atoms: C_1  and  S_2
REMARK    2  A    between atoms: S_2  and  C_5
REMARK    3  A    between atoms: C_7  and  C_8
REMARK    4  A    between atoms: C_8  and  C_9
REMARK    5  A    between atoms: C_9  and  N_10
REMARK    6  A    between atoms: C_14  and  C_15
REMARK    7  A    between atoms: C_23  and  O_24
REMARK    8  A    between atoms: O_24  and  C_25
REMARK                            x       y       z     vdW  Elec       q    Type
REMARK                         _______ _______ _______ _____ _____    ______ ____
ROOT
ATOM      1  C   UNL     1      46.539   6.935  13.153  0.00  0.00    +0.000 A 
ATOM      2  C   UNL     1      45.221   6.739  12.680  0.00  0.00    +0.000 A 
ATOM      3  C   UNL     1      44.570   5.517  12.878  0.00  0.00    +0.000 A 
ATOM      4  C   UNL     1      45.289   4.513  13.547  0.00  0.00    +0.000 A 
ATOM      5  C   UNL     1      46.607   4.690  13.998  0.00  0.00    +0.000 A 
ATOM      6 CL   UNL     1      47.332   3.258  14.637  0.00  0.00    +0.000 Cl
ATOM      7  C   UNL     1      47.248   5.920  13.839  0.00  0.00    +0.000 A 
ENDROOT
BRANCH   1   9
ATOM      8  C   UNL     1      46.261   9.555  12.001  0.00  0.00    +0.000 C 
ATOM      9  S   UNL     1      47.376   8.486  12.863  0.00  0.00    +0.000 S 
ATOM     10  O   UNL     1      48.463   8.214  11.946  0.00  0.00    +0.000 OA
ATOM     11  O   UNL     1      47.596   9.091  14.165  0.00  0.00    +0.000 OA
ENDBRANCH   1   9
BRANCH   3  12
ATOM     12  C   UNL     1      43.154   5.285  12.346  0.00  0.00    +0.000 C 
BRANCH  12  13
ATOM     13  C   UNL     1      43.133   4.566  10.990  0.00  0.00    +0.000 C 
BRANCH  13  14
ATOM     14  N   UNL     1      43.960   5.178   9.946  0.00  0.00    +0.000 N 
ATOM     15  C   UNL     1      44.708   4.169   9.279  0.00  0.00    +0.000 A 
ATOM     16  C   UNL     1      45.578   4.527   8.256  0.00  0.00    +0.000 A 
ATOM     17  C   UNL     1      46.339   3.535   7.624  0.00  0.00    +0.000 A 
ATOM     18  C   UNL     1      46.219   2.200   8.029  0.00  0.00    +0.000 A 
ATOM     19  C   UNL     1      45.312   1.932   9.033  0.00  0.00    +0.000 A 
ATOM     20  N   UNL     1      44.564   2.877   9.649  0.00  0.00    +0.000 NA
ATOM     21  H   UNL     1      44.627   5.848  10.324  0.00  0.00    +0.000 HD
BRANCH  18  22
ATOM     22  C   UNL     1      47.056   1.160   7.392  0.00  0.00    +0.000 C 
ATOM     23  N   UNL     1      47.996   1.534   6.462  0.00  0.00    +0.000 N 
ATOM     24  O   UNL     1      46.914  -0.023   7.671  0.00  0.00    +0.000 OA
ATOM     25  H   UNL     1      48.189   2.469   6.151  0.00  0.00    +0.000 HD
ATOM     26  H   UNL     1      48.528   0.783   6.043  0.00  0.00    +0.000 HD
ENDBRANCH  18  22
ENDBRANCH  13  14
ENDBRANCH  12  13
ENDBRANCH   3  12
BRANCH   7  27
ATOM     27  O   UNL     1      48.543   6.216  14.203  0.00  0.00    +0.000 OA
BRANCH  27  28
ATOM     28  C   UNL     1      48.891   6.649  15.540  0.00  0.00    +0.000 C 
ATOM     29  C   UNL     1      50.331   7.111  15.834  0.00  0.00    +0.000 C 
ATOM     30  N   UNL     1      50.435   6.158  16.947  0.00  0.00    +0.000 NA
ATOM     31  C   UNL     1      49.171   5.521  16.556  0.00  0.00    +0.000 C 
ATOM     32  H   UNL     1      50.419   6.584  17.874  0.00  0.00    +0.000 HD
ENDBRANCH  27  28
ENDBRANCH   7  27
TORSDOF 7
ENDMDL
MODEL 2
REMARK VINA RESULT:    -7.662      2.166      3.092
REMARK INTER + INTRA:         -11.234
REMARK INTER:                 -11.650
REMARK INTRA:                   0.415
REMARK UNBOUND:                -0.437
REMARK  Name = 
REMARK  8 active torsions:
REMARK  status: ('A' for Active; 'I' for Inactive)
REMARK    1  A    between atoms: C_1  and  S_2
REMARK    2  A    between atoms: S_2  and  C_5
REMARK    3  A    between atoms: C_7  and  C_8
REMARK    4  A    between atoms: C_8  and  C_9
REMARK    5  A    between atoms: C_9  and  N_10
REMARK    6  A    between atoms: C_14  and  C_15
REMARK    7  A    between atoms: C_23  and  O_24
REMARK    8  A    between atoms: O_24  and  C_25
REMARK                            x       y       z     vdW  Elec       q    Type
REMARK                         _______ _______ _______ _____ _____    ______ ____
ROOT
ATOM      1  C   UNL     1      46.769   5.009  14.267  0.00  0.00    +0.000 A 
ATOM      2  C   UNL     1      45.461   4.791  13.774  0.00  0.00    +0.000 A 
ATOM      3  C   UNL     1      44.995   5.500  12.662  0.00  0.00    +0.000 A 
ATOM      4  C   UNL     1      45.873   6.429  12.083  0.00  0.00    +0.000 A 
ATOM      5  C   UNL     1      47.164   6.670  12.581  0.00  0.00    +0.000 A 
ATOM      6 CL   UNL     1      47.987   7.977  11.804  0.00  0.00    +0.000 Cl
ATOM      7  C   UNL     1      47.651   5.939  13.665  0.00  0.00    +0.000 A 
ENDROOT
BRANCH   1   9
ATOM      8  C   UNL     1      48.378   5.218  16.640  0.00  0.00    +0.000 C 
ATOM      9  S   UNL     1      47.344   4.127  15.709  0.00  0.00    +0.000 S 
ATOM     10  O   UNL     1      48.205   3.062  15.237  0.00  0.00    +0.000 OA
ATOM     11  O   UNL     1      46.177   3.868  16.533  0.00  0.00    +0.000 OA
ENDBRANCH   1   9
BRANCH   3  12
ATOM     12  C   UNL     1      43.572   5.292  12.138  0.00  0.00    +0.000 C 
BRANCH  12  13
ATOM     13  C   UNL     1      43.534   4.782  10.691  0.00  0.00    +0.000 C 
BRANCH  13  14
ATOM     14  N   UNL     1      43.853   3.361  10.521  0.00  0.00    +0.000 N 
ATOM     15  C   UNL     1      44.782   3.207   9.455  0.00  0.00    +0.000 A 
ATOM     16  C   UNL     1      45.215   1.934   9.106  0.00  0.00    +0.000 A 
ATOM     17  C   UNL     1      46.104   1.782   8.034  0.00  0.00    +0.000 A 
ATOM     18  C   UNL     1      46.542   2.907   7.326  0.00  0.00    +0.000 A 
ATOM     19  C   UNL     1      46.083   4.133   7.759  0.00  0.00    +0.000 A 
ATOM     20  N   UNL     1      45.230   4.299   8.797  0.00  0.00    +0.000 NA
ATOM     21  H   UNL     1      43.032   2.806  10.289  0.00  0.00    +0.000 HD
BRANCH  18  22
ATOM     22  C   UNL     1      47.445   2.741   6.166  0.00  0.00    +0.000 C 
ATOM     23  N   UNL     1      48.769   2.452   6.383  0.00  0.00    +0.000 N 
ATOM     24  O   UNL     1      47.031   2.872   5.021  0.00  0.00    +0.000 OA
ATOM     25  H   UNL     1      49.216   2.334   7.276  0.00  0.00    +0.000 HD
ATOM     26  H   UNL     1      49.347   2.368   5.557  0.00  0.00    +0.000 HD
ENDBRANCH  18  22
ENDBRANCH  13  14
ENDBRANCH  12  13
ENDBRANCH   3  12
BRANCH   7  27
ATOM     27  O   UNL     1      48.878   6.097  14.270  0.00  0.00    +0.000 OA
BRANCH  27  28
ATOM     28  C   UNL     1      49.572   7.369  14.293  0.00  0.00    +0.000 C 
ATOM     29  C   UNL     1      50.856   7.514  15.131  0.00  0.00    +0.000 C 
ATOM     30  N   UNL     1      50.298   8.681  15.828  0.00  0.00    +0.000 NA
ATOM     31  C   UNL     1      48.976   8.438  15.236  0.00  0.00    +0.000 C 
ATOM     32  H   UNL     1      50.716   9.573  15.565  0.00  0.00    +0.000 HD
ENDBRANCH  27  28
ENDBRANCH   7  27
TORSDOF 7
ENDMDL
MODEL 3
REMARK VINA RESULT:    -7.576      2.383      3.335
REMARK INTER + INTRA:         -11.114
REMARK INTER:                 -10.912
REMARK INTRA:                  -0.202
REMARK UNBOUND:                -0.437
REMARK  Name = 
REMARK  8 active torsions:
REMARK  status: ('A' for Active; 'I' for Inactive)
REMARK    1  A    between atoms: C_1  and  S_2
REMARK    2  A    between atoms: S_2  and  C_5
REMARK    3  A    between atoms: C_7  and  C_8
REMARK    4  A    between atoms: C_8  and  C_9
REMARK    5  A    between atoms: C_9  and  N_10
REMARK    6  A    between atoms: C_14  and  C_15
REMARK    7  A    between atoms: C_23  and  O_24
REMARK    8  A    between atoms: O_24  and  C_25
REMARK                            x       y       z     vdW  Elec       q    Type
REMARK                         _______ _______ _______ _____ _____    ______ ____
ROOT
ATOM      1  C   UNL     1      46.624   6.760  13.189  0.00  0.00    +0.000 A 
ATOM      2  C   UNL     1      45.588   5.801  13.118  0.00  0.00    +0.000 A 
ATOM      3  C   UNL     1      44.367   6.118  12.515  0.00  0.00    +0.000 A 
ATOM      4  C   UNL     1      44.225   7.419  12.007  0.00  0.00    +0.000 A 
ATOM      5  C   UNL     1      45.239   8.387  12.095  0.00  0.00    +0.000 A 
ATOM      6 CL   UNL     1      44.766   9.957  11.552  0.00  0.00    +0.000 Cl
ATOM      7  C   UNL     1      46.475   8.065  12.660  0.00  0.00    +0.000 A 
ENDROOT
BRANCH   1   9
ATOM      8  C   UNL     1      48.564   7.678  15.102  0.00  0.00    +0.000 C 
ATOM      9  S   UNL     1      48.168   6.359  13.994  0.00  0.00    +0.000 S 
ATOM     10  O   UNL     1      49.193   6.370  12.971  0.00  0.00    +0.000 OA
ATOM     11  O   UNL     1      47.916   5.193  14.822  0.00  0.00    +0.000 OA
ENDBRANCH   1   9
BRANCH   3  12
ATOM     12  C   UNL     1      43.230   5.095  12.458  0.00  0.00    +0.000 C 
BRANCH  12  13
ATOM     13  C   UNL     1      43.134   4.379  11.103  0.00  0.00    +0.000 C 
BRANCH  13  14
ATOM     14  N   UNL     1      43.871   5.016  10.007  0.00  0.00    +0.000 N 
ATOM     15  C   UNL     1      44.644   4.038   9.323  0.00  0.00    +0.000 A 
ATOM     16  C   UNL     1      45.439   4.425   8.250  0.00  0.00    +0.000 A 
ATOM     17  C   UNL     1      46.225   3.465   7.599  0.00  0.00    +0.000 A 
ATOM     18  C   UNL     1      46.205   2.134   8.035  0.00  0.00    +0.000 A 
ATOM     19  C   UNL     1      45.367   1.836   9.088  0.00  0.00    +0.000 A 
ATOM     20  N   UNL     1      44.595   2.748   9.723  0.00  0.00    +0.000 NA
ATOM     21  H   UNL     1      44.514   5.732  10.338  0.00  0.00    +0.000 HD
BRANCH  18  22
ATOM     22  C   UNL     1      47.071   1.132   7.376  0.00  0.00    +0.000 C 
ATOM     23  N   UNL     1      48.027   1.554   6.485  0.00  0.00    +0.000 N 
ATOM     24  O   UNL     1      46.937  -0.064   7.602  0.00  0.00    +0.000 OA
ATOM     25  H   UNL     1      48.215   2.504   6.218  0.00  0.00    +0.000 HD
ATOM     26  H   UNL     1      48.578   0.828   6.048  0.00  0.00    +0.000 HD
ENDBRANCH  18  22
ENDBRANCH  13  14
ENDBRANCH  12  13
ENDBRANCH   3  12
BRANCH   7  27
ATOM     27  O   UNL     1      47.537   8.923  12.839  0.00  0.00    +0.000 OA
BRANCH  27  28
ATOM     28  C   UNL     1      48.244   9.522  11.725  0.00  0.00    +0.000 C 
ATOM     29  C   UNL     1      49.783   9.584  11.753  0.00  0.00    +0.000 C 
ATOM     30  N   UNL     1      49.753  11.033  11.513  0.00  0.00    +0.000 NA
ATOM     31  C   UNL     1      48.299  11.065  11.721  0.00  0.00    +0.000 C 
ATOM     32  H   UNL     1      50.047  11.316  10.579  0.00  0.00    +0.000 HD
ENDBRANCH  27  28
ENDBRANCH   7  27
TORSDOF 7
ENDMDL
MODEL 4
REMARK VINA RESULT:    -6.900      3.010      3.750
REMARK INTER + INTRA:         -10.161
REMARK INTER:                  -9.476
REMARK INTRA:                  -0.685
REMARK UNBOUND:                -0.437
REMARK  Name = 
REMARK  8 active torsions:
REMARK  status: ('A' for Active; 'I' for Inactive)
REMARK    1  A    between atoms: C_1  and  S_2
REMARK    2  A    between atoms: S_2  and  C_5
REMARK    3  A    between atoms: C_7  and  C_8
REMARK    4  A    between atoms: C_8  and  C_9
REMARK    5  A    between atoms: C_9  and  N_10
REMARK    6  A    between atoms: C_14  and  C_15
REMARK    7  A    between atoms: C_23  and  O_24
REMARK    8  A    between atoms: O_24  and  C_25
REMARK                            x       y       z     vdW  Elec       q    Type
REMARK                         _______ _______ _______ _____ _____    ______ ____
ROOT
ATOM      1  C   UNL     1      45.185   9.310  11.456  0.00  0.00    +0.000 A 
ATOM      2  C   UNL     1      44.294   8.214  11.523  0.00  0.00    +0.000 A 
ATOM      3  C   UNL     1      44.755   6.947  11.897  0.00  0.00    +0.000 A 
ATOM      4  C   UNL     1      46.124   6.824  12.181  0.00  0.00    +0.000 A 
ATOM      5  C   UNL     1      47.021   7.901  12.092  0.00  0.00    +0.000 A 
ATOM      6 CL   UNL     1      48.676   7.463  12.325  0.00  0.00    +0.000 Cl
ATOM      7  C   UNL     1      46.562   9.177  11.759  0.00  0.00    +0.000 A 
ENDROOT
BRANCH   1   9
ATOM      8  C   UNL     1      42.898  10.751  10.477  0.00  0.00    +0.000 C 
ATOM      9  S   UNL     1      44.596  10.916  10.942  0.00  0.00    +0.000 S 
ATOM     10  O   UNL     1      45.313  11.262   9.732  0.00  0.00    +0.000 OA
ATOM     11  O   UNL     1      44.616  11.764  12.121  0.00  0.00    +0.000 OA
ENDBRANCH   1   9
BRANCH   3  12
ATOM     12  C   UNL     1      43.804   5.749  11.946  0.00  0.00    +0.000 C 
BRANCH  12  13
ATOM     13  C   UNL     1      43.560   5.119  10.568  0.00  0.00    +0.000 C 
BRANCH  13  14
ATOM     14  N   UNL     1      43.755   3.668  10.501  0.00  0.00    +0.000 N 
ATOM     15  C   UNL     1      44.714   3.363   9.496  0.00  0.00    +0.000 A 
ATOM     16  C   UNL     1      45.044   2.036   9.248  0.00  0.00    +0.000 A 
ATOM     17  C   UNL     1      45.964   1.737   8.234  0.00  0.00    +0.000 A 
ATOM     18  C   UNL     1      46.536   2.770   7.484  0.00  0.00    +0.000 A 
ATOM     19  C   UNL     1      46.172   4.058   7.817  0.00  0.00    +0.000 A 
ATOM     20  N   UNL     1      45.291   4.366   8.797  0.00  0.00    +0.000 NA
ATOM     21  H   UNL     1      42.898   3.173  10.260  0.00  0.00    +0.000 HD
BRANCH  18  22
ATOM     22  C   UNL     1      47.472   2.450   6.384  0.00  0.00    +0.000 C 
ATOM     23  N   UNL     1      47.388   3.152   5.207  0.00  0.00    +0.000 N 
ATOM     24  O   UNL     1      48.307   1.563   6.504  0.00  0.00    +0.000 OA
ATOM     25  H   UNL     1      46.737   3.889   4.996  0.00  0.00    +0.000 HD
ATOM     26  H   UNL     1      48.037   2.881   4.480  0.00  0.00    +0.000 HD
ENDBRANCH  18  22
ENDBRANCH  13  14
ENDBRANCH  12  13
ENDBRANCH   3  12
BRANCH   7  27
ATOM     27  O   UNL     1      47.335  10.307  11.605  0.00  0.00    +0.000 OA
BRANCH  27  28
ATOM     28  C   UNL     1      47.989  10.955  12.722  0.00  0.00    +0.000 C 
ATOM     29  C   UNL     1      48.084  12.492  12.754  0.00  0.00    +0.000 C 
ATOM     30  N   UNL     1      49.540  12.423  12.937  0.00  0.00    +0.000 NA
ATOM     31  C   UNL     1      49.532  10.978  12.671  0.00  0.00    +0.000 C 
ATOM     32  H   UNL     1      49.863  12.673  13.871  0.00  0.00    +0.000 HD
ENDBRANCH  27  28
ENDBRANCH   7  27
TORSDOF 7
ENDMDL
MODEL 5
REMARK VINA RESULT:    -6.742      3.425      5.246
REMARK INTER + INTRA:          -9.937
REMARK INTER:                  -9.713
REMARK INTRA:                  -0.224
REMARK UNBOUND:                -0.437
REMARK  Name = 
REMARK  8 active torsions:
REMARK  status: ('A' for Active; 'I' for Inactive)
REMARK    1  A    between atoms: C_1  and  S_2
REMARK    2  A    between atoms: S_2  and  C_5
REMARK    3  A    between atoms: C_7  and  C_8
REMARK    4  A    between atoms: C_8  and  C_9
REMARK    5  A    between atoms: C_9  and  N_10
REMARK    6  A    between atoms: C_14  and  C_15
REMARK    7  A    between atoms: C_23  and  O_24
REMARK    8  A    between atoms: O_24  and  C_25
REMARK                            x       y       z     vdW  Elec       q    Type
REMARK                         _______ _______ _______ _____ _____    ______ ____
ROOT
ATOM      1  C   UNL     1      48.186   5.274  16.261  0.00  0.00    +0.000 A 
ATOM      2  C   UNL     1      48.355   5.819  14.968  0.00  0.00    +0.000 A 
ATOM      3  C   UNL     1      48.655   7.175  14.803  0.00  0.00    +0.000 A 
ATOM      4  C   UNL     1      48.763   7.951  15.968  0.00  0.00    +0.000 A 
ATOM      5  C   UNL     1      48.573   7.424  17.256  0.00  0.00    +0.000 A 
ATOM      6 CL   UNL     1      48.592   8.608  18.514  0.00  0.00    +0.000 Cl
ATOM      7  C   UNL     1      48.313   6.063  17.430  0.00  0.00    +0.000 A 
ENDROOT
BRANCH   1   9
ATOM      8  C   UNL     1      49.087   2.765  17.339  0.00  0.00    +0.000 C 
ATOM      9  S   UNL     1      47.767   3.549  16.462  0.00  0.00    +0.000 S 
ATOM     10  O   UNL     1      47.759   2.960  15.138  0.00  0.00    +0.000 OA
ATOM     11  O   UNL     1      46.609   3.499  17.336  0.00  0.00    +0.000 OA
ENDBRANCH   1   9
BRANCH   3  12
ATOM     12  C   UNL     1      48.811   7.781  13.406  0.00  0.00    +0.000 C 
BRANCH  12  13
ATOM     13  C   UNL     1      47.526   8.447  12.893  0.00  0.00    +0.000 C 
BRANCH  13  14
ATOM     14  N   UNL     1      46.281   7.912  13.451  0.00  0.00    +0.000 N 
ATOM     15  C   UNL     1      45.760   6.916  12.581  0.00  0.00    +0.000 A 
ATOM     16  C   UNL     1      44.568   6.281  12.907  0.00  0.00    +0.000 A 
ATOM     17  C   UNL     1      44.039   5.323  12.031  0.00  0.00    +0.000 A 
ATOM     18  C   UNL     1      44.711   5.021  10.840  0.00  0.00    +0.000 A 
ATOM     19  C   UNL     1      45.900   5.679  10.611  0.00  0.00    +0.000 A 
ATOM     20  N   UNL     1      46.429   6.600  11.450  0.00  0.00    +0.000 NA
ATOM     21  H   UNL     1      45.565   8.628  13.554  0.00  0.00    +0.000 HD
BRANCH  18  22
ATOM     22  C   UNL     1      44.128   4.044   9.895  0.00  0.00    +0.000 C 
ATOM     23  N   UNL     1      44.075   4.355   8.558  0.00  0.00    +0.000 N 
ATOM     24  O   UNL     1      43.682   2.973  10.288  0.00  0.00    +0.000 OA
ATOM     25  H   UNL     1      44.399   5.205   8.130  0.00  0.00    +0.000 HD
ATOM     26  H   UNL     1      43.649   3.662   7.957  0.00  0.00    +0.000 HD
ENDBRANCH  18  22
ENDBRANCH  13  14
ENDBRANCH  12  13
ENDBRANCH   3  12
BRANCH   7  27
ATOM     27  O   UNL     1      48.074   5.426  18.628  0.00  0.00    +0.000 OA
BRANCH  27  28
ATOM     28  C   UNL     1      48.914   5.624  19.791  0.00  0.00    +0.000 C 
ATOM     29  C   UNL     1      50.412   5.271  19.709  0.00  0.00    +0.000 C 
ATOM     30  N   UNL     1      50.298   4.411  20.894  0.00  0.00    +0.000 NA
ATOM     31  C   UNL     1      48.834   4.521  20.868  0.00  0.00    +0.000 C 
ATOM     32  H   UNL     1      50.730   4.789  21.737  0.00  0.00    +0.000 HD
ENDBRANCH  27  28
ENDBRANCH   7  27
TORSDOF 7
ENDMDL
MODEL 6
REMARK VINA RESULT:    -6.174      3.715      5.668
REMARK INTER + INTRA:          -9.137
REMARK INTER:                  -8.481
REMARK INTRA:                  -0.656
REMARK UNBOUND:                -0.437
REMARK  Name = 
REMARK  8 active torsions:
REMARK  status: ('A' for Active; 'I' for Inactive)
REMARK    1  A    between atoms: C_1  and  S_2
REMARK    2  A    between atoms: S_2  and  C_5
REMARK    3  A    between atoms: C_7  and  C_8
REMARK    4  A    between atoms: C_8  and  C_9
REMARK    5  A    between atoms: C_9  and  N_10
REMARK    6  A    between atoms: C_14  and  C_15
REMARK    7  A    between atoms: C_23  and  O_24
REMARK    8  A    between atoms: O_24  and  C_25
REMARK                            x       y       z     vdW  Elec       q    Type
REMARK                         _______ _______ _______ _____ _____    ______ ____
ROOT
ATOM      1  C   UNL     1      49.059   7.854  18.124  0.00  0.00    +0.000 A 
ATOM      2  C   UNL     1      48.715   8.390  16.862  0.00  0.00    +0.000 A 
ATOM      3  C   UNL     1      49.328   7.914  15.698  0.00  0.00    +0.000 A 
ATOM      4  C   UNL     1      50.294   6.907  15.852  0.00  0.00    +0.000 A 
ATOM      5  C   UNL     1      50.661   6.387  17.103  0.00  0.00    +0.000 A 
ATOM      6 CL   UNL     1      51.988   5.282  17.047  0.00  0.00    +0.000 Cl
ATOM      7  C   UNL     1      50.025   6.828  18.265  0.00  0.00    +0.000 A 
ENDROOT
BRANCH   1   9
ATOM      8  C   UNL     1      47.307   9.885  19.158  0.00  0.00    +0.000 C 
ATOM      9  S   UNL     1      48.297   8.492  19.609  0.00  0.00    +0.000 S 
ATOM     10  O   UNL     1      49.364   9.009  20.442  0.00  0.00    +0.000 OA
ATOM     11  O   UNL     1      47.377   7.471  20.078  0.00  0.00    +0.000 OA
ENDBRANCH   1   9
BRANCH   3  12
ATOM     12  C   UNL     1      48.983   8.507  14.330  0.00  0.00    +0.000 C 
BRANCH  12  13
ATOM     13  C   UNL     1      47.729   7.880  13.704  0.00  0.00    +0.000 C 
BRANCH  13  14
ATOM     14  N   UNL     1      47.409   6.527  14.169  0.00  0.00    +0.000 N 
ATOM     15  C   UNL     1      46.622   5.861  13.189  0.00  0.00    +0.000 A 
ATOM     16  C   UNL     1      46.189   4.563  13.429  0.00  0.00    +0.000 A 
ATOM     17  C   UNL     1      45.385   3.921  12.477  0.00  0.00    +0.000 A 
ATOM     18  C   UNL     1      45.026   4.592  11.302  0.00  0.00    +0.000 A 
ATOM     19  C   UNL     1      45.524   5.867  11.135  0.00  0.00    +0.000 A 
ATOM     20  N   UNL     1      46.307   6.498  12.040  0.00  0.00    +0.000 NA
ATOM     21  H   UNL     1      46.873   6.532  15.034  0.00  0.00    +0.000 HD
BRANCH  18  22
ATOM     22  C   UNL     1      44.141   3.930  10.319  0.00  0.00    +0.000 C 
ATOM     23  N   UNL     1      44.075   4.423   9.038  0.00  0.00    +0.000 N 
ATOM     24  O   UNL     1      43.459   2.963  10.634  0.00  0.00    +0.000 OA
ATOM     25  H   UNL     1      44.579   5.214   8.677  0.00  0.00    +0.000 HD
ATOM     26  H   UNL     1      43.440   3.947   8.412  0.00  0.00    +0.000 HD
ENDBRANCH  18  22
ENDBRANCH  13  14
ENDBRANCH  12  13
ENDBRANCH   3  12
BRANCH   7  27
ATOM     27  O   UNL     1      50.309   6.428  19.552  0.00  0.00    +0.000 OA
BRANCH  27  28
ATOM     28  C   UNL     1      50.076   5.074  20.012  0.00  0.00    +0.000 C 
ATOM     29  C   UNL     1      48.858   4.296  19.481  0.00  0.00    +0.000 C 
ATOM     30  N   UNL     1      48.409   4.016  20.851  0.00  0.00    +0.000 NA
ATOM     31  C   UNL     1      49.408   4.945  21.397  0.00  0.00    +0.000 C 
ATOM     32  H   UNL     1      48.532   3.049  21.149  0.00  0.00    +0.000 HD
ENDBRANCH  27  28
ENDBRANCH   7  27
TORSDOF 7
ENDMDL
MODEL 7
REMARK VINA RESULT:    -6.130      3.819      5.603
REMARK INTER + INTRA:          -9.075
REMARK INTER:                  -8.752
REMARK INTRA:                  -0.322
REMARK UNBOUND:                -0.437
REMARK  Name = 
REMARK  8 active torsions:
REMARK  status: ('A' for Active; 'I' for Inactive)
REMARK    1  A    between atoms: C_1  and  S_2
REMARK    2  A    between atoms: S_2  and  C_5
REMARK    3  A    between atoms: C_7  and  C_8
REMARK    4  A    between atoms: C_8  and  C_9
REMARK    5  A    between atoms: C_9  and  N_10
REMARK    6  A    between atoms: C_14  and  C_15
REMARK    7  A    between atoms: C_23  and  O_24
REMARK    8  A    between atoms: O_24  and  C_25
REMARK                            x       y       z     vdW  Elec       q    Type
REMARK                         _______ _______ _______ _____ _____    ______ ____
ROOT
ATOM      1  C   UNL     1      48.892   4.930  16.606  0.00  0.00    +0.000 A 
ATOM      2  C   UNL     1      48.270   5.909  15.798  0.00  0.00    +0.000 A 
ATOM      3  C   UNL     1      48.922   7.114  15.515  0.00  0.00    +0.000 A 
ATOM      4  C   UNL     1      50.195   7.298  16.078  0.00  0.00    +0.000 A 
ATOM      5  C   UNL     1      50.810   6.342  16.902  0.00  0.00    +0.000 A 
ATOM      6 CL   UNL     1      52.297   6.869  17.608  0.00  0.00    +0.000 Cl
ATOM      7  C   UNL     1      50.183   5.121  17.156  0.00  0.00    +0.000 A 
ENDROOT
BRANCH   1   9
ATOM      8  C   UNL     1      48.262   3.081  18.716  0.00  0.00    +0.000 C 
ATOM      9  S   UNL     1      48.038   3.409  16.993  0.00  0.00    +0.000 S 
ATOM     10  O   UNL     1      48.726   2.348  16.288  0.00  0.00    +0.000 OA
ATOM     11  O   UNL     1      46.621   3.668  16.808  0.00  0.00    +0.000 OA
ENDBRANCH   1   9
BRANCH   3  12
ATOM     12  C   UNL     1      48.246   8.192  14.664  0.00  0.00    +0.000 C 
BRANCH  12  13
ATOM     13  C   UNL     1      48.135   7.805  13.183  0.00  0.00    +0.000 C 
BRANCH  13  14
ATOM     14  N   UNL     1      46.868   8.161  12.538  0.00  0.00    +0.000 N 
ATOM     15  C   UNL     1      46.151   6.977  12.212  0.00  0.00    +0.000 A 
ATOM     16  C   UNL     1      44.920   7.078  11.575  0.00  0.00    +0.000 A 
ATOM     17  C   UNL     1      44.232   5.909  11.224  0.00  0.00    +0.000 A 
ATOM     18  C   UNL     1      44.789   4.658  11.515  0.00  0.00    +0.000 A 
ATOM     19  C   UNL     1      46.000   4.652  12.173  0.00  0.00    +0.000 A 
ATOM     20  N   UNL     1      46.675   5.772  12.525  0.00  0.00    +0.000 NA
ATOM     21  H   UNL     1      47.007   8.678  11.672  0.00  0.00    +0.000 HD
BRANCH  18  22
ATOM     22  C   UNL     1      44.082   3.425  11.103  0.00  0.00    +0.000 C 
ATOM     23  N   UNL     1      44.759   2.477  10.375  0.00  0.00    +0.000 N 
ATOM     24  O   UNL     1      42.906   3.246  11.390  0.00  0.00    +0.000 OA
ATOM     25  H   UNL     1      45.717   2.525  10.077  0.00  0.00    +0.000 HD
ATOM     26  H   UNL     1      44.225   1.662  10.102  0.00  0.00    +0.000 HD
ENDBRANCH  18  22
ENDBRANCH  13  14
ENDBRANCH  12  13
ENDBRANCH   3  12
BRANCH   7  27
ATOM     27  O   UNL     1      50.657   4.115  17.969  0.00  0.00    +0.000 OA
BRANCH  27  28
ATOM     28  C   UNL     1      51.870   3.383  17.667  0.00  0.00    +0.000 C 
ATOM     29  C   UNL     1      51.841   1.842  17.664  0.00  0.00    +0.000 C 
ATOM     30  N   UNL     1      52.966   1.796  18.608  0.00  0.00    +0.000 NA
ATOM     31  C   UNL     1      52.874   3.245  18.832  0.00  0.00    +0.000 C 
ATOM     32  H   UNL     1      53.850   1.491  18.202  0.00  0.00    +0.000 HD
ENDBRANCH  27  28
ENDBRANCH   7  27
TORSDOF 7
ENDMDL
MODEL 8
REMARK VINA RESULT:    -6.004      4.103      6.239
REMARK INTER + INTRA:          -8.897
REMARK INTER:                  -8.335
REMARK INTRA:                  -0.562
REMARK UNBOUND:                -0.437
REMARK  Name = 
REMARK  8 active torsions:
REMARK  status: ('A' for Active; 'I' for Inactive)
REMARK    1  A    between atoms: C_1  and  S_2
REMARK    2  A    between atoms: S_2  and  C_5
REMARK    3  A    between atoms: C_7  and  C_8
REMARK    4  A    between atoms: C_8  and  C_9
REMARK    5  A    between atoms: C_9  and  N_10
REMARK    6  A    between atoms: C_14  and  C_15
REMARK    7  A    between atoms: C_23  and  O_24
REMARK    8  A    between atoms: O_24  and  C_25
REMARK                            x       y       z     vdW  Elec       q    Type
REMARK                         _______ _______ _______ _____ _____    ______ ____
ROOT
ATOM      1  C   UNL     1      50.491   4.589  18.585  0.00  0.00    +0.000 A 
ATOM      2  C   UNL     1      49.467   4.032  17.784  0.00  0.00    +0.000 A 
ATOM      3  C   UNL     1      48.151   4.491  17.896  0.00  0.00    +0.000 A 
ATOM      4  C   UNL     1      47.906   5.504  18.837  0.00  0.00    +0.000 A 
ATOM      5  C   UNL     1      48.911   6.045  19.654  0.00  0.00    +0.000 A 
ATOM      6 CL   UNL     1      48.332   7.154  20.846  0.00  0.00    +0.000 Cl
ATOM      7  C   UNL     1      50.234   5.620  19.520  0.00  0.00    +0.000 A 
ENDROOT
BRANCH   1   9
ATOM      8  C   UNL     1      52.097   2.356  17.746  0.00  0.00    +0.000 C 
ATOM      9  S   UNL     1      52.163   3.971  18.462  0.00  0.00    +0.000 S 
ATOM     10  O   UNL     1      52.647   3.792  19.816  0.00  0.00    +0.000 OA
ATOM     11  O   UNL     1      52.851   4.816  17.502  0.00  0.00    +0.000 OA
ENDBRANCH   1   9
BRANCH   3  12
ATOM     12  C   UNL     1      47.030   3.876  17.054  0.00  0.00    +0.000 C 
BRANCH  12  13
ATOM     13  C   UNL     1      47.343   3.871  15.551  0.00  0.00    +0.000 C 
BRANCH  13  14
ATOM     14  N   UNL     1      46.965   5.091  14.831  0.00  0.00    +0.000 N 
ATOM     15  C   UNL     1      46.256   4.743  13.648  0.00  0.00    +0.000 A 
ATOM     16  C   UNL     1      45.812   5.750  12.798  0.00  0.00    +0.000 A 
ATOM     17  C   UNL     1      45.144   5.404  11.616  0.00  0.00    +0.000 A 
ATOM     18  C   UNL     1      44.934   4.056  11.303  0.00  0.00    +0.000 A 
ATOM     19  C   UNL     1      45.383   3.126  12.216  0.00  0.00    +0.000 A 
ATOM     20  N   UNL     1      46.024   3.443  13.366  0.00  0.00    +0.000 NA
ATOM     21  H   UNL     1      47.774   5.639  14.548  0.00  0.00    +0.000 HD
BRANCH  18  22
ATOM     22  C   UNL     1      44.269   3.691  10.033  0.00  0.00    +0.000 C 
ATOM     23  N   UNL     1      43.900   4.685   9.160  0.00  0.00    +0.000 N 
ATOM     24  O   UNL     1      44.032   2.522   9.758  0.00  0.00    +0.000 OA
ATOM     25  H   UNL     1      44.035   5.673   9.289  0.00  0.00    +0.000 HD
ATOM     26  H   UNL     1      43.432   4.384   8.316  0.00  0.00    +0.000 HD
ENDBRANCH  18  22
ENDBRANCH  13  14
ENDBRANCH  12  13
ENDBRANCH   3  12
BRANCH   7  27
ATOM     27  O   UNL     1      51.306   6.041  20.276  0.00  0.00    +0.000 OA
BRANCH  27  28
ATOM     28  C   UNL     1      51.909   7.347  20.105  0.00  0.00    +0.000 C 
ATOM     29  C   UNL     1      51.819   8.047  18.735  0.00  0.00    +0.000 C 
ATOM     30  N   UNL     1      53.277   8.222  18.703  0.00  0.00    +0.000 NA
ATOM     31  C   UNL     1      53.436   7.354  19.877  0.00  0.00    +0.000 C 
ATOM     32  H   UNL     1      53.593   9.181  18.846  0.00  0.00    +0.000 HD
ENDBRANCH  27  28
ENDBRANCH   7  27
TORSDOF 7
ENDMDL
MODEL 9
REMARK VINA RESULT:    -5.849      4.402      6.307
REMARK INTER + INTRA:          -8.679
REMARK INTER:                  -8.209
REMARK INTRA:                  -0.470
REMARK UNBOUND:                -0.437
REMARK  Name = 
REMARK  8 active torsions:
REMARK  status: ('A' for Active; 'I' for Inactive)
REMARK    1  A    between atoms: C_1  and  S_2
REMARK    2  A    between atoms: S_2  and  C_5
REMARK    3  A    between atoms: C_7  and  C_8
REMARK    4  A    between atoms: C_8  and  C_9
REMARK    5  A    between atoms: C_9  and  N_10
REMARK    6  A    between atoms: C_14  and  C_15
REMARK    7  A    between atoms: C_23  and  O_24
REMARK    8  A    between atoms: O_24  and  C_25
REMARK                            x       y       z     vdW  Elec       q    Type
REMARK                         _______ _______ _______ _____ _____    ______ ____
ROOT
ATOM      1  C   UNL     1      49.672   5.836  17.565  0.00  0.00    +0.000 A 
ATOM      2  C   UNL     1      48.976   6.762  16.753  0.00  0.00    +0.000 A 
ATOM      3  C   UNL     1      49.650   7.482  15.762  0.00  0.00    +0.000 A 
ATOM      4  C   UNL     1      51.028   7.251  15.630  0.00  0.00    +0.000 A 
ATOM      5  C   UNL     1      51.732   6.352  16.448  0.00  0.00    +0.000 A 
ATOM      6 CL   UNL     1      53.443   6.368  16.205  0.00  0.00    +0.000 Cl
ATOM      7  C   UNL     1      51.060   5.600  17.413  0.00  0.00    +0.000 A 
ENDROOT
BRANCH   1   9
ATOM      8  C   UNL     1      47.155   5.559  18.926  0.00  0.00    +0.000 C 
ATOM      9  S   UNL     1      48.812   4.946  18.853  0.00  0.00    +0.000 S 
ATOM     10  O   UNL     1      49.433   5.316  20.109  0.00  0.00    +0.000 OA
ATOM     11  O   UNL     1      48.718   3.565  18.416  0.00  0.00    +0.000 OA
ENDBRANCH   1   9
BRANCH   3  12
ATOM     12  C   UNL     1      48.912   8.507  14.897  0.00  0.00    +0.000 C 
BRANCH  12  13
ATOM     13  C   UNL     1      48.376   7.910  13.588  0.00  0.00    +0.000 C 
BRANCH  13  14
ATOM     14  N   UNL     1      48.224   6.452  13.582  0.00  0.00    +0.000 N 
ATOM     15  C   UNL     1      46.945   6.110  13.062  0.00  0.00    +0.000 A 
ATOM     16  C   UNL     1      46.578   4.772  12.979  0.00  0.00    +0.000 A 
ATOM     17  C   UNL     1      45.304   4.439  12.499  0.00  0.00    +0.000 A 
ATOM     18  C   UNL     1      44.418   5.452  12.113  0.00  0.00    +0.000 A 
ATOM     19  C   UNL     1      44.876   6.749  12.203  0.00  0.00    +0.000 A 
ATOM     20  N   UNL     1      46.105   7.088  12.658  0.00  0.00    +0.000 NA
ATOM     21  H   UNL     1      48.287   6.053  14.516  0.00  0.00    +0.000 HD
BRANCH  18  22
ATOM     22  C   UNL     1      43.058   5.101  11.650  0.00  0.00    +0.000 C 
ATOM     23  N   UNL     1      42.057   6.037  11.741  0.00  0.00    +0.000 N 
ATOM     24  O   UNL     1      42.811   3.989  11.201  0.00  0.00    +0.000 OA
ATOM     25  H   UNL     1      42.144   6.971  12.101  0.00  0.00    +0.000 HD
ATOM     26  H   UNL     1      41.142   5.740  11.429  0.00  0.00    +0.000 HD
ENDBRANCH  18  22
ENDBRANCH  13  14
ENDBRANCH  12  13
ENDBRANCH   3  12
BRANCH   7  27
ATOM     27  O   UNL     1      51.631   4.714  18.299  0.00  0.00    +0.000 OA
BRANCH  27  28
ATOM     28  C   UNL     1      52.471   3.617  17.864  0.00  0.00    +0.000 C 
ATOM     29  C   UNL     1      51.860   2.212  17.712  0.00  0.00    +0.000 C 
ATOM     30  N   UNL     1      52.894   1.641  18.586  0.00  0.00    +0.000 NA
ATOM     31  C   UNL     1      53.362   2.984  18.955  0.00  0.00    +0.000 C 
ATOM     32  H   UNL     1      53.591   1.073  18.106  0.00  0.00    +0.000 HD
ENDBRANCH  27  28
ENDBRANCH   7  27
TORSDOF 7
ENDMDL
