MODEL 1
REMARK VINA RESULT:    -8.457      0.000      0.000
REMARK INTER + INTRA:         -12.151
REMARK INTER:                 -11.176
REMARK INTRA:                  -0.975
REMARK UNBOUND:                -0.975
REMARK  Name = 
REMARK  6 active torsions:
REMARK  status: ('A' for Active; 'I' for Inactive)
REMARK    1  A    between atoms: C_2  and  C_19
REMARK    2  A    between atoms: N_3  and  C_4
REMARK    3  A    between atoms: C_4  and  C_5
REMARK    4  A    between atoms: C_8  and  C_9
REMARK    5  A    between atoms: C_9  and  O_10
REMARK    6  A    between atoms: C_9  and  C_11
REMARK                            x       y       z     vdW  Elec       q    Type
REMARK                         _______ _______ _______ _____ _____    ______ ____
ROOT
ATOM      1  C   UNL     1      46.685   7.785  13.198  0.00  0.00    +0.000 C 
ENDROOT
BRANCH   1   2
ATOM      2  C   UNL     1      46.149   6.762  12.228  0.00  0.00    +0.000 A 
ATOM      3  C   UNL     1      45.211   5.819  12.653  0.00  0.00    +0.000 A 
ATOM      4  C   UNL     1      44.689   4.884  11.755  0.00  0.00    +0.000 A 
ATOM      5  C   UNL     1      45.109   4.865  10.415  0.00  0.00    +0.000 A 
ATOM      6  C   UNL     1      46.092   5.780  10.008  0.00  0.00    +0.000 A 
ATOM      7  C   UNL     1      46.608   6.717  10.906  0.00  0.00    +0.000 A 
BRANCH   5   8
ATOM      8  C   UNL     1      44.489   3.877   9.442  0.00  0.00    +0.000 C 
BRANCH   8   9
ATOM      9  C   UNL     1      45.452   3.046   8.625  0.00  0.00    +0.000 A 
ATOM     10  C   UNL     1      46.168   3.603   7.555  0.00  0.00    +0.000 A 
ATOM     11  C   UNL     1      46.968   2.799   6.749  0.00  0.00    +0.000 A 
ATOM     12  C   UNL     1      47.030   1.448   7.033  0.00  0.00    +0.000 A 
ATOM     13  N   UNL     1      46.368   0.866   8.055  0.00  0.00    +0.000 NA
ATOM     14  C   UNL     1      45.592   1.673   8.819  0.00  0.00    +0.000 A 
ENDBRANCH   8   9
BRANCH   8  15
ATOM     15  O   UNL     1      43.594   4.567   8.561  0.00  0.00    +0.000 OA
ATOM     16  H   UNL     1      42.846   3.978   8.370  0.00  0.00    +0.000 HD
ENDBRANCH   8  15
ENDBRANCH   5   8
ENDBRANCH   1   2
BRANCH   1  19
ATOM     17  O   UNL     1      49.286   6.756  13.546  0.00  0.00    +0.000 OA
ATOM     18  C   UNL     1      48.503   6.736  14.492  0.00  0.00    +0.000 C 
ATOM     19  N   UNL     1      47.206   7.159  14.382  0.00  0.00    +0.000 N 
ATOM     20  H   UNL     1      46.659   7.298  15.227  0.00  0.00    +0.000 HD
BRANCH  18  21
ATOM     21  C   UNL     1      48.897   6.208  15.801  0.00  0.00    +0.000 A 
ATOM     22  C   UNL     1      49.871   6.859  16.546  0.00  0.00    +0.000 A 
ATOM     23  S   UNL     1      50.207   6.104  18.038  0.00  0.00    +0.000 S 
ATOM     24  C   UNL     1      49.026   4.909  17.761  0.00  0.00    +0.000 A 
ATOM     25  N   UNL     1      48.772   3.950  18.690  0.00  0.00    +0.000 NA
ATOM     26  C   UNL     1      47.818   3.136  18.373  0.00  0.00    +0.000 A 
ATOM     27  N   UNL     1      47.112   3.185  17.199  0.00  0.00    +0.000 N 
ATOM     28  C   UNL     1      47.394   4.080  16.199  0.00  0.00    +0.000 A 
ATOM     29  O   UNL     1      46.848   3.997  15.103  0.00  0.00    +0.000 OA
ATOM     30  C   UNL     1      48.413   5.055  16.533  0.00  0.00    +0.000 A 
ATOM     31  H   UNL     1      46.404   2.493  16.995  0.00  0.00    +0.000 HD
ENDBRANCH  18  21
ENDBRANCH   1  19
TORSDOF 6
ENDMDL
MODEL 2
REMARK VINA RESULT:    -8.095      1.718      2.338
REMARK INTER + INTRA:         -11.673
REMARK INTER:                 -10.843
REMARK INTRA:                  -0.831
REMARK UNBOUND:                -0.975
REMARK  Name = 
REMARK  6 active torsions:
REMARK  status: ('A' for Active; 'I' for Inactive)
REMARK    1  A    between atoms: C_2  and  C_19
REMARK    2  A    between atoms: N_3  and  C_4
REMARK    3  A    between atoms: C_4  and  C_5
REMARK    4  A    between atoms: C_8  and  C_9
REMARK    5  A    between atoms: C_9  and  O_10
REMARK    6  A    between atoms: C_9  and  C_11
REMARK                            x       y       z     vdW  Elec       q    Type
REMARK                         _______ _______ _______ _____ _____    ______ ____
ROOT
ATOM      1  C   UNL     1      47.243   6.796  13.611  0.00  0.00    +0.000 C 
ENDROOT
BRANCH   1   2
ATOM      2  C   UNL     1      46.511   6.009  12.552  0.00  0.00    +0.000 A 
ATOM      3  C   UNL     1      46.454   6.485  11.240  0.00  0.00    +0.000 A 
ATOM      4  C   UNL     1      45.801   5.751  10.248  0.00  0.00    +0.000 A 
ATOM      5  C   UNL     1      45.177   4.530  10.553  0.00  0.00    +0.000 A 
ATOM      6  C   UNL     1      45.191   4.085  11.883  0.00  0.00    +0.000 A 
ATOM      7  C   UNL     1      45.849   4.818  12.874  0.00  0.00    +0.000 A 
BRANCH   5   8
ATOM      8  C   UNL     1      44.520   3.719   9.449  0.00  0.00    +0.000 C 
BRANCH   8   9
ATOM      9  C   UNL     1      45.449   2.968   8.523  0.00  0.00    +0.000 A 
ATOM     10  C   UNL     1      45.950   3.562   7.356  0.00  0.00    +0.000 A 
ATOM     11  C   UNL     1      46.718   2.821   6.462  0.00  0.00    +0.000 A 
ATOM     12  C   UNL     1      46.964   1.495   6.760  0.00  0.00    +0.000 A 
ATOM     13  N   UNL     1      46.512   0.879   7.873  0.00  0.00    +0.000 NA
ATOM     14  C   UNL     1      45.762   1.624   8.721  0.00  0.00    +0.000 A 
ENDBRANCH   8   9
BRANCH   8  15
ATOM     15  O   UNL     1      43.662   4.567   8.674  0.00  0.00    +0.000 OA
ATOM     16  H   UNL     1      43.262   4.029   7.972  0.00  0.00    +0.000 HD
ENDBRANCH   8  15
ENDBRANCH   5   8
ENDBRANCH   1   2
BRANCH   1  19
ATOM     17  O   UNL     1      49.569   6.612  15.192  0.00  0.00    +0.000 OA
ATOM     18  C   UNL     1      48.548   6.038  15.561  0.00  0.00    +0.000 C 
ATOM     19  N   UNL     1      47.400   6.028  14.816  0.00  0.00    +0.000 N 
ATOM     20  H   UNL     1      46.536   5.705  15.244  0.00  0.00    +0.000 HD
BRANCH  18  21
ATOM     21  C   UNL     1      48.506   5.277  16.813  0.00  0.00    +0.000 A 
ATOM     22  C   UNL     1      48.467   3.889  16.779  0.00  0.00    +0.000 A 
ATOM     23  S   UNL     1      48.416   3.171  18.325  0.00  0.00    +0.000 S 
ATOM     24  C   UNL     1      48.495   4.688  19.093  0.00  0.00    +0.000 A 
ATOM     25  N   UNL     1      48.528   4.784  20.449  0.00  0.00    +0.000 NA
ATOM     26  C   UNL     1      48.639   5.992  20.898  0.00  0.00    +0.000 A 
ATOM     27  N   UNL     1      48.696   7.113  20.111  0.00  0.00    +0.000 N 
ATOM     28  C   UNL     1      48.578   7.068  18.745  0.00  0.00    +0.000 A 
ATOM     29  O   UNL     1      48.478   8.098  18.084  0.00  0.00    +0.000 OA
ATOM     30  C   UNL     1      48.517   5.731  18.189  0.00  0.00    +0.000 A 
ATOM     31  H   UNL     1      48.741   8.033  20.527  0.00  0.00    +0.000 HD
ENDBRANCH  18  21
ENDBRANCH   1  19
TORSDOF 6
ENDMDL
MODEL 3
REMARK VINA RESULT:    -7.606      2.897      4.842
REMARK INTER + INTRA:         -11.026
REMARK INTER:                 -10.382
REMARK INTRA:                  -0.644
REMARK UNBOUND:                -0.975
REMARK  Name = 
REMARK  6 active torsions:
REMARK  status: ('A' for Active; 'I' for Inactive)
REMARK    1  A    between atoms: C_2  and  C_19
REMARK    2  A    between atoms: N_3  and  C_4
REMARK    3  A    between atoms: C_4  and  C_5
REMARK    4  A    between atoms: C_8  and  C_9
REMARK    5  A    between atoms: C_9  and  O_10
REMARK    6  A    between atoms: C_9  and  C_11
REMARK                            x       y       z     vdW  Elec       q    Type
REMARK                         _______ _______ _______ _____ _____    ______ ____
ROOT
ATOM      1  C   UNL     1      46.817   5.622  14.055  0.00  0.00    +0.000 C 
ENDROOT
BRANCH   1   2
ATOM      2  C   UNL     1      46.183   5.051  12.811  0.00  0.00    +0.000 A 
ATOM      3  C   UNL     1      46.041   5.844  11.670  0.00  0.00    +0.000 A 
ATOM      4  C   UNL     1      45.480   5.315  10.505  0.00  0.00    +0.000 A 
ATOM      5  C   UNL     1      45.035   3.984  10.464  0.00  0.00    +0.000 A 
ATOM      6  C   UNL     1      45.132   3.209  11.630  0.00  0.00    +0.000 A 
ATOM      7  C   UNL     1      45.698   3.738  12.792  0.00  0.00    +0.000 A 
BRANCH   5   8
ATOM      8  C   UNL     1      44.479   3.411   9.172  0.00  0.00    +0.000 C 
BRANCH   8   9
ATOM      9  C   UNL     1      45.486   2.820   8.211  0.00  0.00    +0.000 A 
ATOM     10  C   UNL     1      45.962   1.511   8.370  0.00  0.00    +0.000 A 
ATOM     11  C   UNL     1      46.966   1.021   7.541  0.00  0.00    +0.000 A 
ATOM     12  C   UNL     1      47.474   1.860   6.568  0.00  0.00    +0.000 A 
ATOM     13  N   UNL     1      47.045   3.124   6.369  0.00  0.00    +0.000 NA
ATOM     14  C   UNL     1      46.071   3.576   7.196  0.00  0.00    +0.000 A 
ENDBRANCH   8   9
BRANCH   8  15
ATOM     15  O   UNL     1      43.708   4.411   8.494  0.00  0.00    +0.000 OA
ATOM     16  H   UNL     1      43.938   4.382   7.552  0.00  0.00    +0.000 HD
ENDBRANCH   8  15
ENDBRANCH   5   8
ENDBRANCH   1   2
BRANCH   1  19
ATOM     17  O   UNL     1      49.242   6.512  12.928  0.00  0.00    +0.000 OA
ATOM     18  C   UNL     1      48.390   7.339  13.245  0.00  0.00    +0.000 C 
ATOM     19  N   UNL     1      47.217   6.988  13.856  0.00  0.00    +0.000 N 
ATOM     20  H   UNL     1      46.473   7.677  13.928  0.00  0.00    +0.000 HD
BRANCH  18  21
ATOM     21  C   UNL     1      48.599   8.774  13.033  0.00  0.00    +0.000 A 
ATOM     22  C   UNL     1      49.868   9.318  13.177  0.00  0.00    +0.000 A 
ATOM     23  S   UNL     1      49.925  11.000  12.898  0.00  0.00    +0.000 S 
ATOM     24  C   UNL     1      48.264  11.050  12.528  0.00  0.00    +0.000 A 
ATOM     25  N   UNL     1      47.666  12.213  12.158  0.00  0.00    +0.000 NA
ATOM     26  C   UNL     1      46.413  12.099  11.857  0.00  0.00    +0.000 A 
ATOM     27  N   UNL     1      45.702  10.928  11.916  0.00  0.00    +0.000 N 
ATOM     28  C   UNL     1      46.244   9.752  12.366  0.00  0.00    +0.000 A 
ATOM     29  O   UNL     1      45.542   8.762  12.552  0.00  0.00    +0.000 OA
ATOM     30  C   UNL     1      47.663   9.814  12.655  0.00  0.00    +0.000 A 
ATOM     31  H   UNL     1      44.714  10.915  11.706  0.00  0.00    +0.000 HD
ENDBRANCH  18  21
ENDBRANCH   1  19
TORSDOF 6
ENDMDL
MODEL 4
REMARK VINA RESULT:    -7.503      2.635      4.378
REMARK INTER + INTRA:         -10.891
REMARK INTER:                  -9.740
REMARK INTRA:                  -1.151
REMARK UNBOUND:                -0.975
REMARK  Name = 
REMARK  6 active torsions:
REMARK  status: ('A' for Active; 'I' for Inactive)
REMARK    1  A    between atoms: C_2  and  C_19
REMARK    2  A    between atoms: N_3  and  C_4
REMARK    3  A    between atoms: C_4  and  C_5
REMARK    4  A    between atoms: C_8  and  C_9
REMARK    5  A    between atoms: C_9  and  O_10
REMARK    6  A    between atoms: C_9  and  C_11
REMARK                            x       y       z     vdW  Elec       q    Type
REMARK                         _______ _______ _______ _____ _____    ______ ____
ROOT
ATOM      1  C   UNL     1      46.994   5.401  14.388  0.00  0.00    +0.000 C 
ENDROOT
BRANCH   1   2
ATOM      2  C   UNL     1      46.317   4.915  13.130  0.00  0.00    +0.000 A 
ATOM      3  C   UNL     1      46.151   5.780  12.046  0.00  0.00    +0.000 A 
ATOM      4  C   UNL     1      45.550   5.331  10.868  0.00  0.00    +0.000 A 
ATOM      5  C   UNL     1      45.089   4.010  10.756  0.00  0.00    +0.000 A 
ATOM      6  C   UNL     1      45.211   3.161  11.867  0.00  0.00    +0.000 A 
ATOM      7  C   UNL     1      45.817   3.610  13.043  0.00  0.00    +0.000 A 
BRANCH   5   8
ATOM      8  C   UNL     1      44.489   3.525   9.447  0.00  0.00    +0.000 C 
BRANCH   8   9
ATOM      9  C   UNL     1      45.450   2.915   8.453  0.00  0.00    +0.000 A 
ATOM     10  C   UNL     1      45.885   3.632   7.328  0.00  0.00    +0.000 A 
ATOM     11  C   UNL     1      46.685   3.018   6.369  0.00  0.00    +0.000 A 
ATOM     12  C   UNL     1      47.029   1.694   6.558  0.00  0.00    +0.000 A 
ATOM     13  N   UNL     1      46.643   0.964   7.626  0.00  0.00    +0.000 NA
ATOM     14  C   UNL     1      45.860   1.586   8.540  0.00  0.00    +0.000 A 
ENDBRANCH   8   9
BRANCH   8  15
ATOM     15  O   UNL     1      43.774   4.596   8.820  0.00  0.00    +0.000 OA
ATOM     16  H   UNL     1      42.966   4.229   8.426  0.00  0.00    +0.000 HD
ENDBRANCH   8  15
ENDBRANCH   5   8
ENDBRANCH   1   2
BRANCH   1  19
ATOM     17  O   UNL     1      49.029   6.623  15.907  0.00  0.00    +0.000 OA
ATOM     18  C   UNL     1      48.529   7.240  14.970  0.00  0.00    +0.000 C 
ATOM     19  N   UNL     1      47.494   6.738  14.228  0.00  0.00    +0.000 N 
ATOM     20  H   UNL     1      47.244   7.198  13.356  0.00  0.00    +0.000 HD
BRANCH  18  21
ATOM     21  C   UNL     1      48.981   8.587  14.612  0.00  0.00    +0.000 A 
ATOM     22  C   UNL     1      48.875   9.621  15.533  0.00  0.00    +0.000 A 
ATOM     23  S   UNL     1      49.443  11.119  14.946  0.00  0.00    +0.000 S 
ATOM     24  C   UNL     1      49.896  10.426  13.458  0.00  0.00    +0.000 A 
ATOM     25  N   UNL     1      50.493  11.174  12.492  0.00  0.00    +0.000 NA
ATOM     26  C   UNL     1      50.829  10.511  11.433  0.00  0.00    +0.000 A 
ATOM     27  N   UNL     1      50.599   9.173  11.247  0.00  0.00    +0.000 N 
ATOM     28  C   UNL     1      49.922   8.401  12.157  0.00  0.00    +0.000 A 
ATOM     29  O   UNL     1      49.599   7.247  11.892  0.00  0.00    +0.000 OA
ATOM     30  C   UNL     1      49.581   9.083  13.390  0.00  0.00    +0.000 A 
ATOM     31  H   UNL     1      50.850   8.723  10.378  0.00  0.00    +0.000 HD
ENDBRANCH  18  21
ENDBRANCH   1  19
TORSDOF 6
ENDMDL
MODEL 5
REMARK VINA RESULT:    -7.398      2.829      4.236
REMARK INTER + INTRA:         -10.752
REMARK INTER:                  -9.844
REMARK INTRA:                  -0.907
REMARK UNBOUND:                -0.975
REMARK  Name = 
REMARK  6 active torsions:
REMARK  status: ('A' for Active; 'I' for Inactive)
REMARK    1  A    between atoms: C_2  and  C_19
REMARK    2  A    between atoms: N_3  and  C_4
REMARK    3  A    between atoms: C_4  and  C_5
REMARK    4  A    between atoms: C_8  and  C_9
REMARK    5  A    between atoms: C_9  and  O_10
REMARK    6  A    between atoms: C_9  and  C_11
REMARK                            x       y       z     vdW  Elec       q    Type
REMARK                         _______ _______ _______ _____ _____    ______ ____
ROOT
ATOM      1  C   UNL     1      47.122   5.304  14.515  0.00  0.00    +0.000 C 
ENDROOT
BRANCH   1   2
ATOM      2  C   UNL     1      46.397   4.853  13.271  0.00  0.00    +0.000 A 
ATOM      3  C   UNL     1      46.153   5.758  12.236  0.00  0.00    +0.000 A 
ATOM      4  C   UNL     1      45.507   5.343  11.069  0.00  0.00    +0.000 A 
ATOM      5  C   UNL     1      45.076   4.015  10.922  0.00  0.00    +0.000 A 
ATOM      6  C   UNL     1      45.276   3.124  11.988  0.00  0.00    +0.000 A 
ATOM      7  C   UNL     1      45.928   3.539  13.151  0.00  0.00    +0.000 A 
BRANCH   5   8
ATOM      8  C   UNL     1      44.425   3.569   9.625  0.00  0.00    +0.000 C 
BRANCH   8   9
ATOM      9  C   UNL     1      45.344   2.977   8.580  0.00  0.00    +0.000 A 
ATOM     10  C   UNL     1      45.701   1.621   8.610  0.00  0.00    +0.000 A 
ATOM     11  C   UNL     1      46.630   1.118   7.705  0.00  0.00    +0.000 A 
ATOM     12  C   UNL     1      47.185   1.990   6.788  0.00  0.00    +0.000 A 
ATOM     13  N   UNL     1      46.868   3.300   6.714  0.00  0.00    +0.000 NA
ATOM     14  C   UNL     1      45.965   3.763   7.612  0.00  0.00    +0.000 A 
ENDBRANCH   8   9
BRANCH   8  15
ATOM     15  O   UNL     1      43.697   4.662   9.051  0.00  0.00    +0.000 OA
ATOM     16  H   UNL     1      43.412   4.400   8.161  0.00  0.00    +0.000 HD
ENDBRANCH   8  15
ENDBRANCH   5   8
ENDBRANCH   1   2
BRANCH   1  19
ATOM     17  O   UNL     1      49.581   6.229  15.537  0.00  0.00    +0.000 OA
ATOM     18  C   UNL     1      48.910   6.973  14.826  0.00  0.00    +0.000 C 
ATOM     19  N   UNL     1      47.678   6.619  14.346  0.00  0.00    +0.000 N 
ATOM     20  H   UNL     1      47.250   7.185  13.618  0.00  0.00    +0.000 HD
BRANCH  18  21
ATOM     21  C   UNL     1      49.368   8.322  14.482  0.00  0.00    +0.000 A 
ATOM     22  C   UNL     1      50.102   8.529  13.321  0.00  0.00    +0.000 A 
ATOM     23  S   UNL     1      50.556  10.156  13.083  0.00  0.00    +0.000 S 
ATOM     24  C   UNL     1      49.745  10.647  14.497  0.00  0.00    +0.000 A 
ATOM     25  N   UNL     1      49.710  11.956  14.863  0.00  0.00    +0.000 NA
ATOM     26  C   UNL     1      49.018  12.195  15.931  0.00  0.00    +0.000 A 
ATOM     27  N   UNL     1      48.379  11.237  16.675  0.00  0.00    +0.000 N 
ATOM     28  C   UNL     1      48.462   9.898  16.390  0.00  0.00    +0.000 A 
ATOM     29  O   UNL     1      48.007   9.058  17.162  0.00  0.00    +0.000 OA
ATOM     30  C   UNL     1      49.172   9.584  15.166  0.00  0.00    +0.000 A 
ATOM     31  H   UNL     1      47.888  11.486  17.522  0.00  0.00    +0.000 HD
ENDBRANCH  18  21
ENDBRANCH   1  19
TORSDOF 6
ENDMDL
MODEL 6
REMARK VINA RESULT:    -6.995      3.642      8.050
REMARK INTER + INTRA:         -10.219
REMARK INTER:                  -9.120
REMARK INTRA:                  -1.100
REMARK UNBOUND:                -0.975
REMARK  Name = 
REMARK  6 active torsions:
REMARK  status: ('A' for Active; 'I' for Inactive)
REMARK    1  A    between atoms: C_2  and  C_19
REMARK    2  A    between atoms: N_3  and  C_4
REMARK    3  A    between atoms: C_4  and  C_5
REMARK    4  A    between atoms: C_8  and  C_9
REMARK    5  A    between atoms: C_9  and  O_10
REMARK    6  A    between atoms: C_9  and  C_11
REMARK                            x       y       z     vdW  Elec       q    Type
REMARK                         _______ _______ _______ _____ _____    ______ ____
ROOT
ATOM      1  C   UNL     1      48.444   7.696  14.177  0.00  0.00    +0.000 C 
ENDROOT
BRANCH   1   2
ATOM      2  C   UNL     1      48.940   6.799  15.285  0.00  0.00    +0.000 A 
ATOM      3  C   UNL     1      50.247   6.930  15.759  0.00  0.00    +0.000 A 
ATOM      4  C   UNL     1      50.707   6.123  16.802  0.00  0.00    +0.000 A 
ATOM      5  C   UNL     1      49.871   5.155  17.381  0.00  0.00    +0.000 A 
ATOM      6  C   UNL     1      48.576   4.992  16.865  0.00  0.00    +0.000 A 
ATOM      7  C   UNL     1      48.116   5.804  15.825  0.00  0.00    +0.000 A 
BRANCH   5   8
ATOM      8  C   UNL     1      50.371   4.325  18.551  0.00  0.00    +0.000 C 
BRANCH   8   9
ATOM      9  C   UNL     1      51.222   3.124  18.207  0.00  0.00    +0.000 A 
ATOM     10  C   UNL     1      52.585   3.081  18.534  0.00  0.00    +0.000 A 
ATOM     11  C   UNL     1      53.376   2.015  18.117  0.00  0.00    +0.000 A 
ATOM     12  C   UNL     1      52.781   1.014  17.373  0.00  0.00    +0.000 A 
ATOM     13  N   UNL     1      51.473   1.006  17.039  0.00  0.00    +0.000 NA
ATOM     14  C   UNL     1      50.729   2.059  17.455  0.00  0.00    +0.000 A 
ENDBRANCH   8   9
BRANCH   8  15
ATOM     15  O   UNL     1      49.259   3.904  19.352  0.00  0.00    +0.000 OA
ATOM     16  H   UNL     1      48.797   4.697  19.667  0.00  0.00    +0.000 HD
ENDBRANCH   8  15
ENDBRANCH   5   8
ENDBRANCH   1   2
BRANCH   1  19
ATOM     17  O   UNL     1      47.788   7.279  11.468  0.00  0.00    +0.000 OA
ATOM     18  C   UNL     1      46.960   7.006  12.334  0.00  0.00    +0.000 C 
ATOM     19  N   UNL     1      47.181   7.240  13.664  0.00  0.00    +0.000 N 
ATOM     20  H   UNL     1      46.553   6.829  14.349  0.00  0.00    +0.000 HD
BRANCH  18  21
ATOM     21  C   UNL     1      45.648   6.450  11.990  0.00  0.00    +0.000 A 
ATOM     22  C   UNL     1      44.684   7.260  11.404  0.00  0.00    +0.000 A 
ATOM     23  S   UNL     1      43.219   6.450  11.078  0.00  0.00    +0.000 S 
ATOM     24  C   UNL     1      43.839   4.977  11.664  0.00  0.00    +0.000 A 
ATOM     25  N   UNL     1      43.090   3.843  11.636  0.00  0.00    +0.000 NA
ATOM     26  C   UNL     1      43.700   2.787  12.066  0.00  0.00    +0.000 A 
ATOM     27  N   UNL     1      44.985   2.770  12.543  0.00  0.00    +0.000 N 
ATOM     28  C   UNL     1      45.745   3.906  12.670  0.00  0.00    +0.000 A 
ATOM     29  O   UNL     1      46.831   3.879  13.242  0.00  0.00    +0.000 OA
ATOM     30  C   UNL     1      45.128   5.106  12.142  0.00  0.00    +0.000 A 
ATOM     31  H   UNL     1      45.391   1.917  12.902  0.00  0.00    +0.000 HD
ENDBRANCH  18  21
ENDBRANCH   1  19
TORSDOF 6
ENDMDL
MODEL 7
REMARK VINA RESULT:    -6.852      3.747      8.453
REMARK INTER + INTRA:         -10.029
REMARK INTER:                  -8.832
REMARK INTRA:                  -1.197
REMARK UNBOUND:                -0.975
REMARK  Name = 
REMARK  6 active torsions:
REMARK  status: ('A' for Active; 'I' for Inactive)
REMARK    1  A    between atoms: C_2  and  C_19
REMARK    2  A    between atoms: N_3  and  C_4
REMARK    3  A    between atoms: C_4  and  C_5
REMARK    4  A    between atoms: C_8  and  C_9
REMARK    5  A    between atoms: C_9  and  O_10
REMARK    6  A    between atoms: C_9  and  C_11
REMARK                            x       y       z     vdW  Elec       q    Type
REMARK                         _______ _______ _______ _____ _____    ______ ____
ROOT
ATOM      1  C   UNL     1      48.557   7.936  14.984  0.00  0.00    +0.000 C 
ENDROOT
BRANCH   1   2
ATOM      2  C   UNL     1      49.308   7.131  16.015  0.00  0.00    +0.000 A 
ATOM      3  C   UNL     1      48.637   6.618  17.127  0.00  0.00    +0.000 A 
ATOM      4  C   UNL     1      49.318   5.848  18.073  0.00  0.00    +0.000 A 
ATOM      5  C   UNL     1      50.691   5.590  17.933  0.00  0.00    +0.000 A 
ATOM      6  C   UNL     1      51.371   6.154  16.843  0.00  0.00    +0.000 A 
ATOM      7  C   UNL     1      50.687   6.919  15.895  0.00  0.00    +0.000 A 
BRANCH   5   8
ATOM      8  C   UNL     1      51.403   4.706  18.943  0.00  0.00    +0.000 C 
BRANCH   8   9
ATOM      9  C   UNL     1      51.882   3.363  18.439  0.00  0.00    +0.000 A 
ATOM     10  C   UNL     1      51.076   2.566  17.614  0.00  0.00    +0.000 A 
ATOM     11  C   UNL     1      51.490   1.289  17.248  0.00  0.00    +0.000 A 
ATOM     12  C   UNL     1      52.707   0.838  17.722  0.00  0.00    +0.000 A 
ATOM     13  N   UNL     1      53.522   1.569  18.511  0.00  0.00    +0.000 NA
ATOM     14  C   UNL     1      53.089   2.806  18.857  0.00  0.00    +0.000 A 
ENDBRANCH   8   9
BRANCH   8  15
ATOM     15  O   UNL     1      50.563   4.511  20.088  0.00  0.00    +0.000 OA
ATOM     16  H   UNL     1      49.991   3.747  19.915  0.00  0.00    +0.000 HD
ENDBRANCH   8  15
ENDBRANCH   5   8
ENDBRANCH   1   2
BRANCH   1  19
ATOM     17  O   UNL     1      48.838   6.113  12.854  0.00  0.00    +0.000 OA
ATOM     18  C   UNL     1      47.738   6.249  13.383  0.00  0.00    +0.000 C 
ATOM     19  N   UNL     1      47.509   7.160  14.379  0.00  0.00    +0.000 N 
ATOM     20  H   UNL     1      46.643   7.106  14.908  0.00  0.00    +0.000 HD
BRANCH  18  21
ATOM     21  C   UNL     1      46.575   5.472  12.945  0.00  0.00    +0.000 A 
ATOM     22  C   UNL     1      46.534   4.102  13.167  0.00  0.00    +0.000 A 
ATOM     23  S   UNL     1      45.112   3.360  12.589  0.00  0.00    +0.000 S 
ATOM     24  C   UNL     1      44.481   4.852  12.066  0.00  0.00    +0.000 A 
ATOM     25  N   UNL     1      43.247   4.928  11.500  0.00  0.00    +0.000 NA
ATOM     26  C   UNL     1      42.871   6.128  11.194  0.00  0.00    +0.000 A 
ATOM     27  N   UNL     1      43.630   7.254  11.384  0.00  0.00    +0.000 N 
ATOM     28  C   UNL     1      44.912   7.211  11.871  0.00  0.00    +0.000 A 
ATOM     29  O   UNL     1      45.617   8.216  11.884  0.00  0.00    +0.000 OA
ATOM     30  C   UNL     1      45.356   5.896  12.288  0.00  0.00    +0.000 A 
ATOM     31  H   UNL     1      43.294   8.158  11.087  0.00  0.00    +0.000 HD
ENDBRANCH  18  21
ENDBRANCH   1  19
TORSDOF 6
ENDMDL
MODEL 8
REMARK VINA RESULT:    -6.788      2.087      2.630
REMARK INTER + INTRA:          -9.945
REMARK INTER:                  -9.012
REMARK INTRA:                  -0.934
REMARK UNBOUND:                -0.975
REMARK  Name = 
REMARK  6 active torsions:
REMARK  status: ('A' for Active; 'I' for Inactive)
REMARK    1  A    between atoms: C_2  and  C_19
REMARK    2  A    between atoms: N_3  and  C_4
REMARK    3  A    between atoms: C_4  and  C_5
REMARK    4  A    between atoms: C_8  and  C_9
REMARK    5  A    between atoms: C_9  and  O_10
REMARK    6  A    between atoms: C_9  and  C_11
REMARK                            x       y       z     vdW  Elec       q    Type
REMARK                         _______ _______ _______ _____ _____    ______ ____
ROOT
ATOM      1  C   UNL     1      48.398   7.965  14.355  0.00  0.00    +0.000 C 
ENDROOT
BRANCH   1   2
ATOM      2  C   UNL     1      47.346   7.267  13.528  0.00  0.00    +0.000 A 
ATOM      3  C   UNL     1      47.381   5.879  13.377  0.00  0.00    +0.000 A 
ATOM      4  C   UNL     1      46.397   5.223  12.634  0.00  0.00    +0.000 A 
ATOM      5  C   UNL     1      45.365   5.945  12.014  0.00  0.00    +0.000 A 
ATOM      6  C   UNL     1      45.366   7.344  12.125  0.00  0.00    +0.000 A 
ATOM      7  C   UNL     1      46.348   7.999  12.872  0.00  0.00    +0.000 A 
BRANCH   5   8
ATOM      8  C   UNL     1      44.273   5.208  11.258  0.00  0.00    +0.000 C 
BRANCH   8   9
ATOM      9  C   UNL     1      44.731   4.254  10.178  0.00  0.00    +0.000 A 
ATOM     10  C   UNL     1      45.451   4.708   9.064  0.00  0.00    +0.000 A 
ATOM     11  C   UNL     1      45.772   3.835   8.029  0.00  0.00    +0.000 A 
ATOM     12  C   UNL     1      45.358   2.521   8.134  0.00  0.00    +0.000 A 
ATOM     13  N   UNL     1      44.670   2.033   9.188  0.00  0.00    +0.000 NA
ATOM     14  C   UNL     1      44.367   2.909  10.177  0.00  0.00    +0.000 A 
ENDBRANCH   8   9
BRANCH   8  15
ATOM     15  O   UNL     1      43.354   6.154  10.696  0.00  0.00    +0.000 OA
ATOM     16  H   UNL     1      42.845   5.704  10.003  0.00  0.00    +0.000 HD
ENDBRANCH   8  15
ENDBRANCH   5   8
ENDBRANCH   1   2
BRANCH   1  19
ATOM     17  O   UNL     1      49.011   9.541  16.610  0.00  0.00    +0.000 OA
ATOM     18  C   UNL     1      48.596   8.397  16.775  0.00  0.00    +0.000 C 
ATOM     19  N   UNL     1      48.338   7.550  15.730  0.00  0.00    +0.000 N 
ATOM     20  H   UNL     1      47.824   6.691  15.907  0.00  0.00    +0.000 HD
BRANCH  18  21
ATOM     21  C   UNL     1      48.394   7.841  18.115  0.00  0.00    +0.000 A 
ATOM     22  C   UNL     1      47.857   8.634  19.121  0.00  0.00    +0.000 A 
ATOM     23  S   UNL     1      47.698   7.827  20.615  0.00  0.00    +0.000 S 
ATOM     24  C   UNL     1      48.296   6.375  19.956  0.00  0.00    +0.000 A 
ATOM     25  N   UNL     1      48.385   5.250  20.713  0.00  0.00    +0.000 NA
ATOM     26  C   UNL     1      48.808   4.207  20.075  0.00  0.00    +0.000 A 
ATOM     27  N   UNL     1      49.171   4.198  18.753  0.00  0.00    +0.000 N 
ATOM     28  C   UNL     1      49.180   5.329  17.978  0.00  0.00    +0.000 A 
ATOM     29  O   UNL     1      49.655   5.317  16.846  0.00  0.00    +0.000 OA
ATOM     30  C   UNL     1      48.652   6.511  18.630  0.00  0.00    +0.000 A 
ATOM     31  H   UNL     1      49.533   3.357  18.324  0.00  0.00    +0.000 HD
ENDBRANCH  18  21
ENDBRANCH   1  19
TORSDOF 6
ENDMDL
