MODEL 1
REMARK VINA RESULT:    -8.656      0.000      0.000
REMARK INTER + INTRA:         -12.990
REMARK INTER:                 -11.692
REMARK INTRA:                  -1.298
REMARK UNBOUND:                -1.298
REMARK  Name = 
REMARK  6 active torsions:
REMARK  status: ('A' for Active; 'I' for Inactive)
REMARK    1  A    between atoms: C_2  and  C_19
REMARK    2  A    between atoms: N_3  and  C_4
REMARK    3  A    between atoms: C_4  and  C_5
REMARK    4  A    between atoms: C_8  and  C_9
REMARK    5  A    between atoms: C_9  and  C_10
REMARK    6  A    between atoms: C_10  and  C_11
REMARK                            x       y       z     vdW  Elec       q    Type
REMARK                         _______ _______ _______ _____ _____    ______ ____
ROOT
ATOM      1  O   UNL     1      49.584   6.927  13.996  0.00  0.00    +0.000 OA
ATOM      2  C   UNL     1      48.681   6.713  14.801  0.00  0.00    +0.000 C 
ATOM      3  N   UNL     1      47.359   6.893  14.479  0.00  0.00    +0.000 N 
ATOM      4  H   UNL     1      46.662   6.913  15.216  0.00  0.00    +0.000 HD
ENDROOT
BRANCH   2   5
ATOM      5  C   UNL     1      48.968   6.210  16.148  0.00  0.00    +0.000 A 
ATOM      6  C   UNL     1      49.700   6.988  17.038  0.00  0.00    +0.000 A 
ATOM      7  S   UNL     1      49.947   6.239  18.552  0.00  0.00    +0.000 S 
ATOM      8  C   UNL     1      49.048   4.875  18.082  0.00  0.00    +0.000 A 
ATOM      9  N   UNL     1      48.832   3.834  18.924  0.00  0.00    +0.000 NA
ATOM     10  N   UNL     1      48.135   2.861  18.537  0.00  0.00    +0.000 NA
ATOM     11  N   UNL     1      47.624   2.871  17.270  0.00  0.00    +0.000 N 
ATOM     12  C   UNL     1      47.802   3.857  16.333  0.00  0.00    +0.000 A 
ATOM     13  O   UNL     1      47.330   3.774  15.203  0.00  0.00    +0.000 OA
ATOM     14  C   UNL     1      48.590   4.978  16.789  0.00  0.00    +0.000 A 
ATOM     15  H   UNL     1      47.078   2.060  17.009  0.00  0.00    +0.000 HD
ENDBRANCH   2   5
BRANCH   3  16
ATOM     16  C   UNL     1      46.988   7.482  13.218  0.00  0.00    +0.000 C 
BRANCH  16  17
ATOM     17  C   UNL     1      46.278   6.497  12.331  0.00  0.00    +0.000 A 
ATOM     18  C   UNL     1      45.465   5.508  12.891  0.00  0.00    +0.000 A 
ATOM     19  C   UNL     1      44.772   4.608  12.077  0.00  0.00    +0.000 A 
ATOM     20  C   UNL     1      44.863   4.678  10.679  0.00  0.00    +0.000 A 
ATOM     21  C   UNL     1      45.729   5.631  10.124  0.00  0.00    +0.000 A 
ATOM     22  C   UNL     1      46.431   6.529  10.940  0.00  0.00    +0.000 A 
BRANCH  20  23
ATOM     23  C   UNL     1      44.108   3.727   9.768  0.00  0.00    +0.000 C 
BRANCH  23  24
ATOM     24  C   UNL     1      44.805   2.376   9.544  0.00  0.00    +0.000 C 
BRANCH  24  25
ATOM     25  C   UNL     1      45.652   2.319   8.295  0.00  0.00    +0.000 A 
ATOM     26  C   UNL     1      45.683   3.411   7.416  0.00  0.00    +0.000 A 
ATOM     27  C   UNL     1      46.533   3.405   6.309  0.00  0.00    +0.000 A 
ATOM     28  C   UNL     1      47.352   2.305   6.065  0.00  0.00    +0.000 A 
ATOM     29  C   UNL     1      47.309   1.204   6.918  0.00  0.00    +0.000 A 
ATOM     30  C   UNL     1      46.459   1.207   8.026  0.00  0.00    +0.000 A 
ENDBRANCH  24  25
ENDBRANCH  23  24
ENDBRANCH  20  23
ENDBRANCH  16  17
ENDBRANCH   3  16
TORSDOF 6
ENDMDL
MODEL 2
REMARK VINA RESULT:    -8.397      1.554      2.257
REMARK INTER + INTRA:         -12.641
REMARK INTER:                 -11.545
REMARK INTRA:                  -1.096
REMARK UNBOUND:                -1.298
REMARK  Name = 
REMARK  6 active torsions:
REMARK  status: ('A' for Active; 'I' for Inactive)
REMARK    1  A    between atoms: C_2  and  C_19
REMARK    2  A    between atoms: N_3  and  C_4
REMARK    3  A    between atoms: C_4  and  C_5
REMARK    4  A    between atoms: C_8  and  C_9
REMARK    5  A    between atoms: C_9  and  C_10
REMARK    6  A    between atoms: C_10  and  C_11
REMARK                            x       y       z     vdW  Elec       q    Type
REMARK                         _______ _______ _______ _____ _____    ______ ____
ROOT
ATOM      1  O   UNL     1      50.136   5.988  15.931  0.00  0.00    +0.000 OA
ATOM      2  C   UNL     1      49.043   6.435  16.268  0.00  0.00    +0.000 C 
ATOM      3  N   UNL     1      48.075   6.761  15.352  0.00  0.00    +0.000 N 
ATOM      4  H   UNL     1      47.277   7.317  15.643  0.00  0.00    +0.000 HD
ENDROOT
BRANCH   2   5
ATOM      5  C   UNL     1      48.695   6.607  17.682  0.00  0.00    +0.000 A 
ATOM      6  C   UNL     1      48.323   7.859  18.158  0.00  0.00    +0.000 A 
ATOM      7  S   UNL     1      47.966   7.874  19.828  0.00  0.00    +0.000 S 
ATOM      8  C   UNL     1      48.255   6.204  19.957  0.00  0.00    +0.000 A 
ATOM      9  N   UNL     1      48.104   5.538  21.129  0.00  0.00    +0.000 NA
ATOM     10  N   UNL     1      48.302   4.297  21.165  0.00  0.00    +0.000 NA
ATOM     11  N   UNL     1      48.678   3.650  20.022  0.00  0.00    +0.000 N 
ATOM     12  C   UNL     1      48.882   4.228  18.794  0.00  0.00    +0.000 A 
ATOM     13  O   UNL     1      49.249   3.577  17.821  0.00  0.00    +0.000 OA
ATOM     14  C   UNL     1      48.639   5.651  18.757  0.00  0.00    +0.000 A 
ATOM     15  H   UNL     1      48.831   2.654  20.109  0.00  0.00    +0.000 HD
ENDBRANCH   2   5
BRANCH   3  16
ATOM     16  C   UNL     1      48.362   6.725  13.941  0.00  0.00    +0.000 C 
BRANCH  16  17
ATOM     17  C   UNL     1      47.288   6.006  13.173  0.00  0.00    +0.000 A 
ATOM     18  C   UNL     1      46.818   6.531  11.965  0.00  0.00    +0.000 A 
ATOM     19  C   UNL     1      45.845   5.856  11.224  0.00  0.00    +0.000 A 
ATOM     20  C   UNL     1      45.321   4.630  11.662  0.00  0.00    +0.000 A 
ATOM     21  C   UNL     1      45.749   4.140  12.904  0.00  0.00    +0.000 A 
ATOM     22  C   UNL     1      46.720   4.821  13.653  0.00  0.00    +0.000 A 
BRANCH  20  23
ATOM     23  C   UNL     1      44.277   3.864  10.869  0.00  0.00    +0.000 C 
BRANCH  23  24
ATOM     24  C   UNL     1      44.314   4.124   9.356  0.00  0.00    +0.000 C 
BRANCH  24  25
ATOM     25  C   UNL     1      45.349   3.310   8.616  0.00  0.00    +0.000 A 
ATOM     26  C   UNL     1      45.426   1.923   8.814  0.00  0.00    +0.000 A 
ATOM     27  C   UNL     1      46.315   1.150   8.066  0.00  0.00    +0.000 A 
ATOM     28  C   UNL     1      47.141   1.755   7.121  0.00  0.00    +0.000 A 
ATOM     29  C   UNL     1      47.091   3.135   6.937  0.00  0.00    +0.000 A 
ATOM     30  C   UNL     1      46.203   3.912   7.684  0.00  0.00    +0.000 A 
ENDBRANCH  24  25
ENDBRANCH  23  24
ENDBRANCH  20  23
ENDBRANCH  16  17
ENDBRANCH   3  16
TORSDOF 6
ENDMDL
MODEL 3
REMARK VINA RESULT:    -7.796      2.685      4.675
REMARK INTER + INTRA:         -11.829
REMARK INTER:                 -10.477
REMARK INTRA:                  -1.352
REMARK UNBOUND:                -1.298
REMARK  Name = 
REMARK  6 active torsions:
REMARK  status: ('A' for Active; 'I' for Inactive)
REMARK    1  A    between atoms: C_2  and  C_19
REMARK    2  A    between atoms: N_3  and  C_4
REMARK    3  A    between atoms: C_4  and  C_5
REMARK    4  A    between atoms: C_8  and  C_9
REMARK    5  A    between atoms: C_9  and  C_10
REMARK    6  A    between atoms: C_10  and  C_11
REMARK                            x       y       z     vdW  Elec       q    Type
REMARK                         _______ _______ _______ _____ _____    ______ ____
ROOT
ATOM      1  O   UNL     1      49.863   6.536  15.156  0.00  0.00    +0.000 OA
ATOM      2  C   UNL     1      49.000   7.301  14.734  0.00  0.00    +0.000 C 
ATOM      3  N   UNL     1      47.724   6.880  14.456  0.00  0.00    +0.000 N 
ATOM      4  H   UNL     1      47.105   7.478  13.917  0.00  0.00    +0.000 HD
ENDROOT
BRANCH   2   5
ATOM      5  C   UNL     1      49.279   8.728  14.542  0.00  0.00    +0.000 A 
ATOM      6  C   UNL     1      49.627   9.520  15.630  0.00  0.00    +0.000 A 
ATOM      7  S   UNL     1      49.903  11.155  15.222  0.00  0.00    +0.000 S 
ATOM      8  C   UNL     1      49.611  10.846  13.576  0.00  0.00    +0.000 A 
ATOM      9  N   UNL     1      49.707  11.820  12.636  0.00  0.00    +0.000 NA
ATOM     10  N   UNL     1      49.509  11.533  11.428  0.00  0.00    +0.000 NA
ATOM     11  N   UNL     1      49.189  10.248  11.092  0.00  0.00    +0.000 N 
ATOM     12  C   UNL     1      49.042   9.197  11.962  0.00  0.00    +0.000 A 
ATOM     13  O   UNL     1      48.723   8.075  11.580  0.00  0.00    +0.000 OA
ATOM     14  C   UNL     1      49.285   9.530  13.346  0.00  0.00    +0.000 A 
ATOM     15  H   UNL     1      49.033  10.075  10.108  0.00  0.00    +0.000 HD
ENDBRANCH   2   5
BRANCH   3  16
ATOM     16  C   UNL     1      47.388   5.481  14.514  0.00  0.00    +0.000 C 
BRANCH  16  17
ATOM     17  C   UNL     1      46.539   5.065  13.345  0.00  0.00    +0.000 A 
ATOM     18  C   UNL     1      46.195   5.996  12.360  0.00  0.00    +0.000 A 
ATOM     19  C   UNL     1      45.436   5.615  11.251  0.00  0.00    +0.000 A 
ATOM     20  C   UNL     1      45.007   4.289  11.087  0.00  0.00    +0.000 A 
ATOM     21  C   UNL     1      45.300   3.374  12.109  0.00  0.00    +0.000 A 
ATOM     22  C   UNL     1      46.055   3.757  13.226  0.00  0.00    +0.000 A 
BRANCH  20  23
ATOM     23  C   UNL     1      44.198   3.840   9.884  0.00  0.00    +0.000 C 
BRANCH  23  24
ATOM     24  C   UNL     1      44.549   2.436   9.372  0.00  0.00    +0.000 C 
BRANCH  24  25
ATOM     25  C   UNL     1      45.616   2.418   8.303  0.00  0.00    +0.000 A 
ATOM     26  C   UNL     1      46.366   1.254   8.077  0.00  0.00    +0.000 A 
ATOM     27  C   UNL     1      47.288   1.198   7.031  0.00  0.00    +0.000 A 
ATOM     28  C   UNL     1      47.478   2.307   6.208  0.00  0.00    +0.000 A 
ATOM     29  C   UNL     1      46.757   3.477   6.442  0.00  0.00    +0.000 A 
ATOM     30  C   UNL     1      45.834   3.536   7.488  0.00  0.00    +0.000 A 
ENDBRANCH  24  25
ENDBRANCH  23  24
ENDBRANCH  20  23
ENDBRANCH  16  17
ENDBRANCH   3  16
TORSDOF 6
ENDMDL
MODEL 4
REMARK VINA RESULT:    -7.438      2.205      2.874
REMARK INTER + INTRA:         -11.345
REMARK INTER:                 -10.094
REMARK INTRA:                  -1.251
REMARK UNBOUND:                -1.298
REMARK  Name = 
REMARK  6 active torsions:
REMARK  status: ('A' for Active; 'I' for Inactive)
REMARK    1  A    between atoms: C_2  and  C_19
REMARK    2  A    between atoms: N_3  and  C_4
REMARK    3  A    between atoms: C_4  and  C_5
REMARK    4  A    between atoms: C_8  and  C_9
REMARK    5  A    between atoms: C_9  and  C_10
REMARK    6  A    between atoms: C_10  and  C_11
REMARK                            x       y       z     vdW  Elec       q    Type
REMARK                         _______ _______ _______ _____ _____    ______ ____
ROOT
ATOM      1  O   UNL     1      48.193   8.112  11.695  0.00  0.00    +0.000 OA
ATOM      2  C   UNL     1      48.179   8.182  12.921  0.00  0.00    +0.000 C 
ATOM      3  N   UNL     1      47.018   8.081  13.644  0.00  0.00    +0.000 N 
ATOM      4  H   UNL     1      47.011   8.352  14.623  0.00  0.00    +0.000 HD
ENDROOT
BRANCH   2   5
ATOM      5  C   UNL     1      49.420   8.339  13.687  0.00  0.00    +0.000 A 
ATOM      6  C   UNL     1      50.316   9.349  13.358  0.00  0.00    +0.000 A 
ATOM      7  S   UNL     1      51.709   9.373  14.346  0.00  0.00    +0.000 S 
ATOM      8  C   UNL     1      51.137   8.066  15.270  0.00  0.00    +0.000 A 
ATOM      9  N   UNL     1      51.835   7.574  16.325  0.00  0.00    +0.000 NA
ATOM     10  N   UNL     1      51.355   6.624  16.994  0.00  0.00    +0.000 NA
ATOM     11  N   UNL     1      50.145   6.100  16.633  0.00  0.00    +0.000 N 
ATOM     12  C   UNL     1      49.372   6.504  15.574  0.00  0.00    +0.000 A 
ATOM     13  O   UNL     1      48.307   5.958  15.300  0.00  0.00    +0.000 OA
ATOM     14  C   UNL     1      49.922   7.605  14.819  0.00  0.00    +0.000 A 
ATOM     15  H   UNL     1      49.810   5.333  17.201  0.00  0.00    +0.000 HD
ENDBRANCH   2   5
BRANCH   3  16
ATOM     16  C   UNL     1      45.743   8.032  12.976  0.00  0.00    +0.000 C 
BRANCH  16  17
ATOM     17  C   UNL     1      45.475   6.674  12.388  0.00  0.00    +0.000 A 
ATOM     18  C   UNL     1      45.033   6.555  11.067  0.00  0.00    +0.000 A 
ATOM     19  C   UNL     1      44.813   5.298  10.498  0.00  0.00    +0.000 A 
ATOM     20  C   UNL     1      45.040   4.122  11.229  0.00  0.00    +0.000 A 
ATOM     21  C   UNL     1      45.422   4.248  12.573  0.00  0.00    +0.000 A 
ATOM     22  C   UNL     1      45.636   5.509  13.147  0.00  0.00    +0.000 A 
BRANCH  20  23
ATOM     23  C   UNL     1      44.828   2.742  10.632  0.00  0.00    +0.000 C 
BRANCH  23  24
ATOM     24  C   UNL     1      44.373   2.749   9.166  0.00  0.00    +0.000 C 
BRANCH  24  25
ATOM     25  C   UNL     1      45.486   2.511   8.173  0.00  0.00    +0.000 A 
ATOM     26  C   UNL     1      45.838   3.513   7.256  0.00  0.00    +0.000 A 
ATOM     27  C   UNL     1      46.925   3.339   6.399  0.00  0.00    +0.000 A 
ATOM     28  C   UNL     1      47.665   2.159   6.442  0.00  0.00    +0.000 A 
ATOM     29  C   UNL     1      47.307   1.147   7.331  0.00  0.00    +0.000 A 
ATOM     30  C   UNL     1      46.220   1.318   8.190  0.00  0.00    +0.000 A 
ENDBRANCH  24  25
ENDBRANCH  23  24
ENDBRANCH  20  23
ENDBRANCH  16  17
ENDBRANCH   3  16
TORSDOF 6
ENDMDL
MODEL 5
REMARK VINA RESULT:    -7.245      2.694      3.566
REMARK INTER + INTRA:         -11.085
REMARK INTER:                  -9.961
REMARK INTRA:                  -1.123
REMARK UNBOUND:                -1.298
REMARK  Name = 
REMARK  6 active torsions:
REMARK  status: ('A' for Active; 'I' for Inactive)
REMARK    1  A    between atoms: C_2  and  C_19
REMARK    2  A    between atoms: N_3  and  C_4
REMARK    3  A    between atoms: C_4  and  C_5
REMARK    4  A    between atoms: C_8  and  C_9
REMARK    5  A    between atoms: C_9  and  C_10
REMARK    6  A    between atoms: C_10  and  C_11
REMARK                            x       y       z     vdW  Elec       q    Type
REMARK                         _______ _______ _______ _____ _____    ______ ____
ROOT
ATOM      1  O   UNL     1      49.902   5.909  15.889  0.00  0.00    +0.000 OA
ATOM      2  C   UNL     1      48.869   6.565  15.791  0.00  0.00    +0.000 C 
ATOM      3  N   UNL     1      47.691   6.010  15.358  0.00  0.00    +0.000 N 
ATOM      4  H   UNL     1      46.921   6.615  15.088  0.00  0.00    +0.000 HD
ENDROOT
BRANCH   2   5
ATOM      5  C   UNL     1      48.828   7.980  16.174  0.00  0.00    +0.000 A 
ATOM      6  C   UNL     1      49.321   8.948  15.307  0.00  0.00    +0.000 A 
ATOM      7  S   UNL     1      49.203  10.537  15.922  0.00  0.00    +0.000 S 
ATOM      8  C   UNL     1      48.451   9.985  17.343  0.00  0.00    +0.000 A 
ATOM      9  N   UNL     1      48.045  10.838  18.317  0.00  0.00    +0.000 NA
ATOM     10  N   UNL     1      47.468  10.382  19.336  0.00  0.00    +0.000 NA
ATOM     11  N   UNL     1      47.274   9.033  19.444  0.00  0.00    +0.000 N 
ATOM     12  C   UNL     1      47.666   8.084  18.534  0.00  0.00    +0.000 A 
ATOM     13  O   UNL     1      47.479   6.886  18.721  0.00  0.00    +0.000 OA
ATOM     14  C   UNL     1      48.315   8.616  17.359  0.00  0.00    +0.000 A 
ATOM     15  H   UNL     1      46.811   8.720  20.288  0.00  0.00    +0.000 HD
ENDBRANCH   2   5
BRANCH   3  16
ATOM     16  C   UNL     1      47.660   4.659  14.861  0.00  0.00    +0.000 C 
BRANCH  16  17
ATOM     17  C   UNL     1      46.760   4.527  13.664  0.00  0.00    +0.000 A 
ATOM     18  C   UNL     1      46.488   5.641  12.864  0.00  0.00    +0.000 A 
ATOM     19  C   UNL     1      45.681   5.526  11.729  0.00  0.00    +0.000 A 
ATOM     20  C   UNL     1      45.131   4.291  11.353  0.00  0.00    +0.000 A 
ATOM     21  C   UNL     1      45.355   3.190  12.193  0.00  0.00    +0.000 A 
ATOM     22  C   UNL     1      46.158   3.307  13.336  0.00  0.00    +0.000 A 
BRANCH  20  23
ATOM     23  C   UNL     1      44.267   4.130  10.116  0.00  0.00    +0.000 C 
BRANCH  23  24
ATOM     24  C   UNL     1      44.972   4.488   8.799  0.00  0.00    +0.000 C 
BRANCH  24  25
ATOM     25  C   UNL     1      45.818   3.374   8.230  0.00  0.00    +0.000 A 
ATOM     26  C   UNL     1      45.608   2.050   8.643  0.00  0.00    +0.000 A 
ATOM     27  C   UNL     1      46.319   1.003   8.055  0.00  0.00    +0.000 A 
ATOM     28  C   UNL     1      47.254   1.270   7.057  0.00  0.00    +0.000 A 
ATOM     29  C   UNL     1      47.490   2.585   6.659  0.00  0.00    +0.000 A 
ATOM     30  C   UNL     1      46.780   3.634   7.246  0.00  0.00    +0.000 A 
ENDBRANCH  24  25
ENDBRANCH  23  24
ENDBRANCH  20  23
ENDBRANCH  16  17
ENDBRANCH   3  16
TORSDOF 6
ENDMDL
MODEL 6
REMARK VINA RESULT:    -7.057      2.452      3.106
REMARK INTER + INTRA:         -10.831
REMARK INTER:                  -9.574
REMARK INTRA:                  -1.257
REMARK UNBOUND:                -1.298
REMARK  Name = 
REMARK  6 active torsions:
REMARK  status: ('A' for Active; 'I' for Inactive)
REMARK    1  A    between atoms: C_2  and  C_19
REMARK    2  A    between atoms: N_3  and  C_4
REMARK    3  A    between atoms: C_4  and  C_5
REMARK    4  A    between atoms: C_8  and  C_9
REMARK    5  A    between atoms: C_9  and  C_10
REMARK    6  A    between atoms: C_10  and  C_11
REMARK                            x       y       z     vdW  Elec       q    Type
REMARK                         _______ _______ _______ _____ _____    ______ ____
ROOT
ATOM      1  O   UNL     1      48.168   7.491  16.611  0.00  0.00    +0.000 OA
ATOM      2  C   UNL     1      49.018   6.869  15.978  0.00  0.00    +0.000 C 
ATOM      3  N   UNL     1      49.068   6.893  14.608  0.00  0.00    +0.000 N 
ATOM      4  H   UNL     1      49.638   6.212  14.115  0.00  0.00    +0.000 HD
ENDROOT
BRANCH   2   5
ATOM      5  C   UNL     1      50.058   6.095  16.663  0.00  0.00    +0.000 A 
ATOM      6  C   UNL     1      49.702   5.093  17.558  0.00  0.00    +0.000 A 
ATOM      7  S   UNL     1      51.041   4.307  18.268  0.00  0.00    +0.000 S 
ATOM      8  C   UNL     1      52.135   5.248  17.370  0.00  0.00    +0.000 A 
ATOM      9  N   UNL     1      53.477   5.078  17.468  0.00  0.00    +0.000 NA
ATOM     10  N   UNL     1      54.242   5.780  16.760  0.00  0.00    +0.000 NA
ATOM     11  N   UNL     1      53.703   6.710  15.916  0.00  0.00    +0.000 N 
ATOM     12  C   UNL     1      52.366   6.981  15.759  0.00  0.00    +0.000 A 
ATOM     13  O   UNL     1      51.965   7.856  14.998  0.00  0.00    +0.000 OA
ATOM     14  C   UNL     1      51.493   6.160  16.564  0.00  0.00    +0.000 A 
ATOM     15  H   UNL     1      54.365   7.252  15.377  0.00  0.00    +0.000 HD
ENDBRANCH   2   5
BRANCH   3  16
ATOM     16  C   UNL     1      48.028   7.538  13.849  0.00  0.00    +0.000 C 
BRANCH  16  17
ATOM     17  C   UNL     1      47.127   6.539  13.178  0.00  0.00    +0.000 A 
ATOM     18  C   UNL     1      46.970   5.260  13.721  0.00  0.00    +0.000 A 
ATOM     19  C   UNL     1      46.110   4.332  13.127  0.00  0.00    +0.000 A 
ATOM     20  C   UNL     1      45.372   4.660  11.980  0.00  0.00    +0.000 A 
ATOM     21  C   UNL     1      45.580   5.921  11.403  0.00  0.00    +0.000 A 
ATOM     22  C   UNL     1      46.449   6.850  11.994  0.00  0.00    +0.000 A 
BRANCH  20  23
ATOM     23  C   UNL     1      44.415   3.681  11.324  0.00  0.00    +0.000 C 
BRANCH  23  24
ATOM     24  C   UNL     1      44.121   3.977   9.846  0.00  0.00    +0.000 C 
BRANCH  24  25
ATOM     25  C   UNL     1      45.066   3.302   8.881  0.00  0.00    +0.000 A 
ATOM     26  C   UNL     1      45.782   4.066   7.947  0.00  0.00    +0.000 A 
ATOM     27  C   UNL     1      46.727   3.464   7.115  0.00  0.00    +0.000 A 
ATOM     28  C   UNL     1      46.958   2.092   7.201  0.00  0.00    +0.000 A 
ATOM     29  C   UNL     1      46.232   1.321   8.107  0.00  0.00    +0.000 A 
ATOM     30  C   UNL     1      45.286   1.920   8.941  0.00  0.00    +0.000 A 
ENDBRANCH  24  25
ENDBRANCH  23  24
ENDBRANCH  20  23
ENDBRANCH  16  17
ENDBRANCH   3  16
TORSDOF 6
ENDMDL
MODEL 7
REMARK VINA RESULT:    -6.799      3.888      9.561
REMARK INTER + INTRA:         -10.482
REMARK INTER:                  -9.202
REMARK INTRA:                  -1.280
REMARK UNBOUND:                -1.298
REMARK  Name = 
REMARK  6 active torsions:
REMARK  status: ('A' for Active; 'I' for Inactive)
REMARK    1  A    between atoms: C_2  and  C_19
REMARK    2  A    between atoms: N_3  and  C_4
REMARK    3  A    between atoms: C_4  and  C_5
REMARK    4  A    between atoms: C_8  and  C_9
REMARK    5  A    between atoms: C_9  and  C_10
REMARK    6  A    between atoms: C_10  and  C_11
REMARK                            x       y       z     vdW  Elec       q    Type
REMARK                         _______ _______ _______ _____ _____    ______ ____
ROOT
ATOM      1  O   UNL     1      47.125   3.172  13.660  0.00  0.00    +0.000 OA
ATOM      2  C   UNL     1      46.751   4.239  14.142  0.00  0.00    +0.000 C 
ATOM      3  N   UNL     1      47.047   4.600  15.431  0.00  0.00    +0.000 N 
ATOM      4  H   UNL     1      46.553   5.376  15.861  0.00  0.00    +0.000 HD
ENDROOT
BRANCH   2   5
ATOM      5  C   UNL     1      45.997   5.209  13.342  0.00  0.00    +0.000 A 
ATOM      6  C   UNL     1      46.486   6.499  13.174  0.00  0.00    +0.000 A 
ATOM      7  S   UNL     1      45.473   7.494  12.226  0.00  0.00    +0.000 S 
ATOM      8  C   UNL     1      44.374   6.222  11.975  0.00  0.00    +0.000 A 
ATOM      9  N   UNL     1      43.262   6.375  11.213  0.00  0.00    +0.000 NA
ATOM     10  N   UNL     1      42.496   5.394  11.035  0.00  0.00    +0.000 NA
ATOM     11  N   UNL     1      42.795   4.199  11.626  0.00  0.00    +0.000 N 
ATOM     12  C   UNL     1      43.876   3.944  12.433  0.00  0.00    +0.000 A 
ATOM     13  O   UNL     1      44.056   2.846  12.950  0.00  0.00    +0.000 OA
ATOM     14  C   UNL     1      44.759   5.070  12.621  0.00  0.00    +0.000 A 
ATOM     15  H   UNL     1      42.141   3.447  11.456  0.00  0.00    +0.000 HD
ENDBRANCH   2   5
BRANCH   3  16
ATOM     16  C   UNL     1      47.691   3.668  16.322  0.00  0.00    +0.000 C 
BRANCH  16  17
ATOM     17  C   UNL     1      47.965   4.283  17.666  0.00  0.00    +0.000 A 
ATOM     18  C   UNL     1      49.186   4.054  18.307  0.00  0.00    +0.000 A 
ATOM     19  C   UNL     1      49.468   4.647  19.541  0.00  0.00    +0.000 A 
ATOM     20  C   UNL     1      48.542   5.496  20.165  0.00  0.00    +0.000 A 
ATOM     21  C   UNL     1      47.294   5.672  19.549  0.00  0.00    +0.000 A 
ATOM     22  C   UNL     1      47.008   5.072  18.315  0.00  0.00    +0.000 A 
BRANCH  20  23
ATOM     23  C   UNL     1      48.826   6.170  21.495  0.00  0.00    +0.000 C 
BRANCH  23  24
ATOM     24  C   UNL     1      49.562   7.513  21.380  0.00  0.00    +0.000 C 
BRANCH  24  25
ATOM     25  C   UNL     1      48.945   8.472  20.391  0.00  0.00    +0.000 A 
ATOM     26  C   UNL     1      49.549   8.680  19.142  0.00  0.00    +0.000 A 
ATOM     27  C   UNL     1      48.937   9.492  18.186  0.00  0.00    +0.000 A 
ATOM     28  C   UNL     1      47.722  10.111  18.471  0.00  0.00    +0.000 A 
ATOM     29  C   UNL     1      47.127   9.932  19.718  0.00  0.00    +0.000 A 
ATOM     30  C   UNL     1      47.737   9.120  20.678  0.00  0.00    +0.000 A 
ENDBRANCH  24  25
ENDBRANCH  23  24
ENDBRANCH  20  23
ENDBRANCH  16  17
ENDBRANCH   3  16
TORSDOF 6
ENDMDL
MODEL 8
REMARK VINA RESULT:    -6.701      2.354      3.444
REMARK INTER + INTRA:         -10.349
REMARK INTER:                  -9.191
REMARK INTRA:                  -1.158
REMARK UNBOUND:                -1.298
REMARK  Name = 
REMARK  6 active torsions:
REMARK  status: ('A' for Active; 'I' for Inactive)
REMARK    1  A    between atoms: C_2  and  C_19
REMARK    2  A    between atoms: N_3  and  C_4
REMARK    3  A    between atoms: C_4  and  C_5
REMARK    4  A    between atoms: C_8  and  C_9
REMARK    5  A    between atoms: C_9  and  C_10
REMARK    6  A    between atoms: C_10  and  C_11
REMARK                            x       y       z     vdW  Elec       q    Type
REMARK                         _______ _______ _______ _____ _____    ______ ____
ROOT
ATOM      1  O   UNL     1      48.428   8.935  15.467  0.00  0.00    +0.000 OA
ATOM      2  C   UNL     1      48.854   7.811  15.722  0.00  0.00    +0.000 C 
ATOM      3  N   UNL     1      49.176   6.913  14.737  0.00  0.00    +0.000 N 
ATOM      4  H   UNL     1      49.321   5.937  14.976  0.00  0.00    +0.000 HD
ENDROOT
BRANCH   2   5
ATOM      5  C   UNL     1      49.083   7.381  17.105  0.00  0.00    +0.000 A 
ATOM      6  C   UNL     1      48.416   6.269  17.605  0.00  0.00    +0.000 A 
ATOM      7  S   UNL     1      48.794   5.923  19.234  0.00  0.00    +0.000 S 
ATOM      8  C   UNL     1      49.890   7.220  19.307  0.00  0.00    +0.000 A 
ATOM      9  N   UNL     1      50.606   7.492  20.428  0.00  0.00    +0.000 NA
ATOM     10  N   UNL     1      51.425   8.445  20.421  0.00  0.00    +0.000 NA
ATOM     11  N   UNL     1      51.566   9.194  19.287  0.00  0.00    +0.000 N 
ATOM     12  C   UNL     1      50.877   9.022  18.113  0.00  0.00    +0.000 A 
ATOM     13  O   UNL     1      51.043   9.761  17.147  0.00  0.00    +0.000 OA
ATOM     14  C   UNL     1      49.949   7.917  18.123  0.00  0.00    +0.000 A 
ATOM     15  H   UNL     1      52.233   9.953  19.341  0.00  0.00    +0.000 HD
ENDBRANCH   2   5
BRANCH   3  16
ATOM     16  C   UNL     1      48.887   7.207  13.356  0.00  0.00    +0.000 C 
BRANCH  16  17
ATOM     17  C   UNL     1      47.684   6.451  12.867  0.00  0.00    +0.000 A 
ATOM     18  C   UNL     1      46.974   6.906  11.752  0.00  0.00    +0.000 A 
ATOM     19  C   UNL     1      45.874   6.194  11.265  0.00  0.00    +0.000 A 
ATOM     20  C   UNL     1      45.459   4.999  11.872  0.00  0.00    +0.000 A 
ATOM     21  C   UNL     1      46.134   4.580  13.027  0.00  0.00    +0.000 A 
ATOM     22  C   UNL     1      47.233   5.298  13.521  0.00  0.00    +0.000 A 
BRANCH  20  23
ATOM     23  C   UNL     1      44.281   4.194  11.355  0.00  0.00    +0.000 C 
BRANCH  23  24
ATOM     24  C   UNL     1      44.044   4.316   9.843  0.00  0.00    +0.000 C 
BRANCH  24  25
ATOM     25  C   UNL     1      45.054   3.574   8.999  0.00  0.00    +0.000 A 
ATOM     26  C   UNL     1      45.187   2.183   9.121  0.00  0.00    +0.000 A 
ATOM     27  C   UNL     1      46.049   1.477   8.281  0.00  0.00    +0.000 A 
ATOM     28  C   UNL     1      46.794   2.155   7.319  0.00  0.00    +0.000 A 
ATOM     29  C   UNL     1      46.690   3.541   7.208  0.00  0.00    +0.000 A 
ATOM     30  C   UNL     1      45.828   4.250   8.047  0.00  0.00    +0.000 A 
ENDBRANCH  24  25
ENDBRANCH  23  24
ENDBRANCH  20  23
ENDBRANCH  16  17
ENDBRANCH   3  16
TORSDOF 6
ENDMDL
MODEL 9
REMARK VINA RESULT:    -6.299      3.848      5.329
REMARK INTER + INTRA:          -9.807
REMARK INTER:                  -8.468
REMARK INTRA:                  -1.339
REMARK UNBOUND:                -1.298
REMARK  Name = 
REMARK  6 active torsions:
REMARK  status: ('A' for Active; 'I' for Inactive)
REMARK    1  A    between atoms: C_2  and  C_19
REMARK    2  A    between atoms: N_3  and  C_4
REMARK    3  A    between atoms: C_4  and  C_5
REMARK    4  A    between atoms: C_8  and  C_9
REMARK    5  A    between atoms: C_9  and  C_10
REMARK    6  A    between atoms: C_10  and  C_11
REMARK                            x       y       z     vdW  Elec       q    Type
REMARK                         _______ _______ _______ _____ _____    ______ ____
ROOT
ATOM      1  O   UNL     1      49.947   9.544  14.390  0.00  0.00    +0.000 OA
ATOM      2  C   UNL     1      50.517   8.581  13.883  0.00  0.00    +0.000 C 
ATOM      3  N   UNL     1      49.958   7.329  13.866  0.00  0.00    +0.000 N 
ATOM      4  H   UNL     1      50.534   6.525  13.635  0.00  0.00    +0.000 HD
ENDROOT
BRANCH   2   5
ATOM      5  C   UNL     1      51.820   8.730  13.226  0.00  0.00    +0.000 A 
ATOM      6  C   UNL     1      52.876   9.323  13.906  0.00  0.00    +0.000 A 
ATOM      7  S   UNL     1      54.310   9.423  12.984  0.00  0.00    +0.000 S 
ATOM      8  C   UNL     1      53.577   8.638  11.666  0.00  0.00    +0.000 A 
ATOM      9  N   UNL     1      54.258   8.365  10.525  0.00  0.00    +0.000 NA
ATOM     10  N   UNL     1      53.678   7.757   9.590  0.00  0.00    +0.000 NA
ATOM     11  N   UNL     1      52.369   7.395   9.742  0.00  0.00    +0.000 N 
ATOM     12  C   UNL     1      51.583   7.642  10.840  0.00  0.00    +0.000 A 
ATOM     13  O   UNL     1      50.404   7.308  10.885  0.00  0.00    +0.000 OA
ATOM     14  C   UNL     1      52.260   8.328  11.915  0.00  0.00    +0.000 A 
ATOM     15  H   UNL     1      51.950   6.915   8.957  0.00  0.00    +0.000 HD
ENDBRANCH   2   5
BRANCH   3  16
ATOM     16  C   UNL     1      48.733   7.066  14.577  0.00  0.00    +0.000 C 
BRANCH  16  17
ATOM     17  C   UNL     1      47.606   6.734  13.639  0.00  0.00    +0.000 A 
ATOM     18  C   UNL     1      47.204   5.406  13.467  0.00  0.00    +0.000 A 
ATOM     19  C   UNL     1      46.135   5.086  12.625  0.00  0.00    +0.000 A 
ATOM     20  C   UNL     1      45.430   6.086  11.939  0.00  0.00    +0.000 A 
ATOM     21  C   UNL     1      45.877   7.409  12.065  0.00  0.00    +0.000 A 
ATOM     22  C   UNL     1      46.954   7.730  12.904  0.00  0.00    +0.000 A 
BRANCH  20  23
ATOM     23  C   UNL     1      44.253   5.773  11.033  0.00  0.00    +0.000 C 
BRANCH  23  24
ATOM     24  C   UNL     1      44.043   4.275  10.762  0.00  0.00    +0.000 C 
BRANCH  24  25
ATOM     25  C   UNL     1      44.919   3.719   9.665  0.00  0.00    +0.000 A 
ATOM     26  C   UNL     1      45.083   2.332   9.531  0.00  0.00    +0.000 A 
ATOM     27  C   UNL     1      45.814   1.805   8.465  0.00  0.00    +0.000 A 
ATOM     28  C   UNL     1      46.396   2.657   7.530  0.00  0.00    +0.000 A 
ATOM     29  C   UNL     1      46.262   4.038   7.669  0.00  0.00    +0.000 A 
ATOM     30  C   UNL     1      45.531   4.568   8.735  0.00  0.00    +0.000 A 
ENDBRANCH  24  25
ENDBRANCH  23  24
ENDBRANCH  20  23
ENDBRANCH  16  17
ENDBRANCH   3  16
TORSDOF 6
ENDMDL
