MODEL 1
REMARK VINA RESULT:    -8.346      0.000      0.000
REMARK INTER + INTRA:         -12.328
REMARK INTER:                 -11.274
REMARK INTRA:                  -1.054
REMARK UNBOUND:                -1.054
REMARK  Name = 
REMARK  7 active torsions:
REMARK  status: ('A' for Active; 'I' for Inactive)
REMARK    1  A    between atoms: C_1  and  C_2
REMARK    2  A    between atoms: C_6  and  C_7
REMARK    3  A    between atoms: N_9  and  C_10
REMARK    4  A    between atoms: C_10  and  C_11
REMARK    5  A    between atoms: C_14  and  C_15
REMARK    6  A    between atoms: C_15  and  N_16
REMARK    7  A    between atoms: C_17  and  C_19
REMARK                            x       y       z     vdW  Elec       q    Type
REMARK                         _______ _______ _______ _____ _____    ______ ____
ROOT
ATOM      1  C   UNL     1      44.867   6.208  11.198  0.00  0.00    +0.000 A 
ATOM      2  C   UNL     1      46.095   5.706  11.649  0.00  0.00    +0.000 A 
ATOM      3  C   UNL     1      46.915   6.464  12.496  0.00  0.00    +0.000 A 
ATOM      4  C   UNL     1      46.514   7.735  12.928  0.00  0.00    +0.000 A 
ATOM      5  C   UNL     1      45.292   8.242  12.466  0.00  0.00    +0.000 A 
ATOM      6  C   UNL     1      44.471   7.483  11.622  0.00  0.00    +0.000 A 
ENDROOT
BRANCH   1   7
ATOM      7  C   UNL     1      44.014   5.407  10.247  0.00  0.00    +0.000 C 
BRANCH   7  10
ATOM      8  C   UNL     1      44.709   3.205   9.421  0.00  0.00    +0.000 C 
ATOM      9  O   UNL     1      44.019   2.609  10.243  0.00  0.00    +0.000 OA
ATOM     10  N   UNL     1      44.773   4.584   9.342  0.00  0.00    +0.000 N 
ATOM     11  H   UNL     1      45.383   4.987   8.638  0.00  0.00    +0.000 HD
BRANCH   8  17
ATOM     12  C   UNL     1      47.308   3.083   5.136  0.00  0.00    +0.000 C 
ATOM     13  C   UNL     1      46.789   2.407   6.369  0.00  0.00    +0.000 A 
ATOM     14  C   UNL     1      47.064   1.064   6.635  0.00  0.00    +0.000 A 
ATOM     15  C   UNL     1      46.556   0.493   7.795  0.00  0.00    +0.000 A 
ATOM     16  N   UNL     1      45.798   1.150   8.696  0.00  0.00    +0.000 NA
ATOM     17  C   UNL     1      45.543   2.459   8.421  0.00  0.00    +0.000 A 
ATOM     18  C   UNL     1      46.007   3.118   7.284  0.00  0.00    +0.000 A 
ENDBRANCH   8  17
ENDBRANCH   7  10
ENDBRANCH   1   7
BRANCH   4  19
ATOM     19  C   UNL     1      47.371   8.555  13.862  0.00  0.00    +0.000 C 
BRANCH  19  20
ATOM     20  N   UNL     1      47.775   7.805  15.025  0.00  0.00    +0.000 N 
ATOM     21  C   UNL     1      49.024   7.242  15.111  0.00  0.00    +0.000 C 
ATOM     22  O   UNL     1      49.864   7.378  14.226  0.00  0.00    +0.000 OA
ATOM     23  H   UNL     1      47.033   7.458  15.625  0.00  0.00    +0.000 HD
BRANCH  21  24
ATOM     24  C   UNL     1      49.328   6.513  16.351  0.00  0.00    +0.000 A 
ATOM     25  C   UNL     1      50.305   6.992  17.215  0.00  0.00    +0.000 A 
ATOM     26  S   UNL     1      50.487   6.049  18.626  0.00  0.00    +0.000 S 
ATOM     27  C   UNL     1      49.306   4.941  18.105  0.00  0.00    +0.000 A 
ATOM     28  N   UNL     1      48.985   3.849  18.855  0.00  0.00    +0.000 NA
ATOM     29  C   UNL     1      48.092   3.083  18.322  0.00  0.00    +0.000 A 
ATOM     30  N   UNL     1      47.481   3.314  17.117  0.00  0.00    +0.000 N 
ATOM     31  C   UNL     1      47.752   4.416  16.345  0.00  0.00    +0.000 A 
ATOM     32  O   UNL     1      47.144   4.617  15.291  0.00  0.00    +0.000 OA
ATOM     33  C   UNL     1      48.761   5.301  16.887  0.00  0.00    +0.000 A 
ATOM     34  H   UNL     1      46.777   2.682  16.763  0.00  0.00    +0.000 HD
ENDBRANCH  21  24
ENDBRANCH  19  20
ENDBRANCH   4  19
TORSDOF 6
ENDMDL
MODEL 2
REMARK VINA RESULT:    -7.684      2.129      2.853
REMARK INTER + INTRA:         -11.434
REMARK INTER:                 -10.569
REMARK INTRA:                  -0.865
REMARK UNBOUND:                -1.054
REMARK  Name = 
REMARK  7 active torsions:
REMARK  status: ('A' for Active; 'I' for Inactive)
REMARK    1  A    between atoms: C_1  and  C_2
REMARK    2  A    between atoms: C_6  and  C_7
REMARK    3  A    between atoms: N_9  and  C_10
REMARK    4  A    between atoms: C_10  and  C_11
REMARK    5  A    between atoms: C_14  and  C_15
REMARK    6  A    between atoms: C_15  and  N_16
REMARK    7  A    between atoms: C_17  and  C_19
REMARK                            x       y       z     vdW  Elec       q    Type
REMARK                         _______ _______ _______ _____ _____    ______ ____
ROOT
ATOM      1  C   UNL     1      45.653   6.819  11.557  0.00  0.00    +0.000 A 
ATOM      2  C   UNL     1      45.265   7.945  12.297  0.00  0.00    +0.000 A 
ATOM      3  C   UNL     1      46.109   8.489  13.275  0.00  0.00    +0.000 A 
ATOM      4  C   UNL     1      47.371   7.931  13.520  0.00  0.00    +0.000 A 
ATOM      5  C   UNL     1      47.752   6.797  12.789  0.00  0.00    +0.000 A 
ATOM      6  C   UNL     1      46.910   6.256  11.810  0.00  0.00    +0.000 A 
ENDROOT
BRANCH   1   7
ATOM      7  C   UNL     1      44.719   6.210  10.543  0.00  0.00    +0.000 C 
BRANCH   7  10
ATOM      8  C   UNL     1      44.906   4.081   9.340  0.00  0.00    +0.000 C 
ATOM      9  O   UNL     1      43.920   3.607   9.897  0.00  0.00    +0.000 OA
ATOM     10  N   UNL     1      45.378   5.356   9.589  0.00  0.00    +0.000 N 
ATOM     11  H   UNL     1      46.210   5.656   9.089  0.00  0.00    +0.000 HD
BRANCH   8  17
ATOM     12  C   UNL     1      46.762  -0.277   7.697  0.00  0.00    +0.000 C 
ATOM     13  C   UNL     1      46.561   1.200   7.540  0.00  0.00    +0.000 A 
ATOM     14  C   UNL     1      47.079   1.894   6.445  0.00  0.00    +0.000 A 
ATOM     15  C   UNL     1      46.861   3.263   6.353  0.00  0.00    +0.000 A 
ATOM     16  N   UNL     1      46.177   3.985   7.264  0.00  0.00    +0.000 NA
ATOM     17  C   UNL     1      45.677   3.291   8.323  0.00  0.00    +0.000 A 
ATOM     18  C   UNL     1      45.846   1.920   8.502  0.00  0.00    +0.000 A 
ENDBRANCH   8  17
ENDBRANCH   7  10
ENDBRANCH   1   7
BRANCH   4  19
ATOM     19  C   UNL     1      48.304   8.519  14.550  0.00  0.00    +0.000 C 
BRANCH  19  20
ATOM     20  N   UNL     1      48.142   7.903  15.843  0.00  0.00    +0.000 N 
ATOM     21  C   UNL     1      49.025   6.953  16.294  0.00  0.00    +0.000 C 
ATOM     22  O   UNL     1      50.007   6.611  15.642  0.00  0.00    +0.000 OA
ATOM     23  H   UNL     1      47.221   7.963  16.266  0.00  0.00    +0.000 HD
BRANCH  21  24
ATOM     24  C   UNL     1      48.766   6.405  17.634  0.00  0.00    +0.000 A 
ATOM     25  C   UNL     1      48.959   5.051  17.878  0.00  0.00    +0.000 A 
ATOM     26  S   UNL     1      48.660   4.601  19.497  0.00  0.00    +0.000 S 
ATOM     27  C   UNL     1      48.212   6.188  19.913  0.00  0.00    +0.000 A 
ATOM     28  N   UNL     1      47.809   6.497  21.179  0.00  0.00    +0.000 NA
ATOM     29  C   UNL     1      47.473   7.734  21.341  0.00  0.00    +0.000 A 
ATOM     30  N   UNL     1      47.516   8.692  20.362  0.00  0.00    +0.000 N 
ATOM     31  C   UNL     1      47.944   8.431  19.083  0.00  0.00    +0.000 A 
ATOM     32  O   UNL     1      48.018   9.330  18.244  0.00  0.00    +0.000 OA
ATOM     33  C   UNL     1      48.316   7.053  18.840  0.00  0.00    +0.000 A 
ATOM     34  H   UNL     1      47.254   9.647  20.559  0.00  0.00    +0.000 HD
ENDBRANCH  21  24
ENDBRANCH  19  20
ENDBRANCH   4  19
TORSDOF 6
ENDMDL
MODEL 3
REMARK VINA RESULT:    -7.651      2.286      2.673
REMARK INTER + INTRA:         -11.389
REMARK INTER:                 -10.544
REMARK INTRA:                  -0.845
REMARK UNBOUND:                -1.054
REMARK  Name = 
REMARK  7 active torsions:
REMARK  status: ('A' for Active; 'I' for Inactive)
REMARK    1  A    between atoms: C_1  and  C_2
REMARK    2  A    between atoms: C_6  and  C_7
REMARK    3  A    between atoms: N_9  and  C_10
REMARK    4  A    between atoms: C_10  and  C_11
REMARK    5  A    between atoms: C_14  and  C_15
REMARK    6  A    between atoms: C_15  and  N_16
REMARK    7  A    between atoms: C_17  and  C_19
REMARK                            x       y       z     vdW  Elec       q    Type
REMARK                         _______ _______ _______ _____ _____    ______ ____
ROOT
ATOM      1  C   UNL     1      45.578   6.248  12.383  0.00  0.00    +0.000 A 
ATOM      2  C   UNL     1      46.809   5.859  12.928  0.00  0.00    +0.000 A 
ATOM      3  C   UNL     1      47.637   6.788  13.572  0.00  0.00    +0.000 A 
ATOM      4  C   UNL     1      47.241   8.126  13.705  0.00  0.00    +0.000 A 
ATOM      5  C   UNL     1      46.015   8.517  13.149  0.00  0.00    +0.000 A 
ATOM      6  C   UNL     1      45.186   7.588  12.508  0.00  0.00    +0.000 A 
ENDROOT
BRANCH   1   7
ATOM      7  C   UNL     1      44.716   5.254  11.648  0.00  0.00    +0.000 C 
BRANCH   7  10
ATOM      8  C   UNL     1      44.774   4.189   9.439  0.00  0.00    +0.000 C 
ATOM      9  O   UNL     1      43.602   4.467   9.205  0.00  0.00    +0.000 OA
ATOM     10  N   UNL     1      45.415   4.534  10.614  0.00  0.00    +0.000 N 
ATOM     11  H   UNL     1      46.383   4.248  10.724  0.00  0.00    +0.000 HD
BRANCH   8  17
ATOM     12  C   UNL     1      46.715  -0.098   7.710  0.00  0.00    +0.000 C 
ATOM     13  C   UNL     1      46.534   1.387   7.615  0.00  0.00    +0.000 A 
ATOM     14  C   UNL     1      47.132   2.130   6.595  0.00  0.00    +0.000 A 
ATOM     15  C   UNL     1      46.928   3.503   6.558  0.00  0.00    +0.000 A 
ATOM     16  N   UNL     1      46.187   4.185   7.454  0.00  0.00    +0.000 NA
ATOM     17  C   UNL     1      45.610   3.444   8.440  0.00  0.00    +0.000 A 
ATOM     18  C   UNL     1      45.758   2.064   8.560  0.00  0.00    +0.000 A 
ENDBRANCH   8  17
ENDBRANCH   7  10
ENDBRANCH   1   7
BRANCH   4  19
ATOM     19  C   UNL     1      48.106   9.135  14.419  0.00  0.00    +0.000 C 
BRANCH  19  20
ATOM     20  N   UNL     1      47.870   9.141  15.842  0.00  0.00    +0.000 N 
ATOM     21  C   UNL     1      48.724   8.505  16.708  0.00  0.00    +0.000 C 
ATOM     22  O   UNL     1      49.741   7.934  16.322  0.00  0.00    +0.000 OA
ATOM     23  H   UNL     1      46.927   9.359  16.147  0.00  0.00    +0.000 HD
BRANCH  21  24
ATOM     24  C   UNL     1      48.388   8.590  18.137  0.00  0.00    +0.000 A 
ATOM     25  C   UNL     1      48.453   9.814  18.792  0.00  0.00    +0.000 A 
ATOM     26  S   UNL     1      47.981   9.736  20.430  0.00  0.00    +0.000 S 
ATOM     27  C   UNL     1      47.725   8.057  20.333  0.00  0.00    +0.000 A 
ATOM     28  N   UNL     1      47.324   7.342  21.422  0.00  0.00    +0.000 NA
ATOM     29  C   UNL     1      47.197   6.074  21.207  0.00  0.00    +0.000 A 
ATOM     30  N   UNL     1      47.419   5.459  20.003  0.00  0.00    +0.000 N 
ATOM     31  C   UNL     1      47.794   6.145  18.874  0.00  0.00    +0.000 A 
ATOM     32  O   UNL     1      47.933   5.563  17.796  0.00  0.00    +0.000 OA
ATOM     33  C   UNL     1      47.969   7.570  19.063  0.00  0.00    +0.000 A 
ATOM     34  H   UNL     1      47.286   4.463  19.897  0.00  0.00    +0.000 HD
ENDBRANCH  21  24
ENDBRANCH  19  20
ENDBRANCH   4  19
TORSDOF 6
ENDMDL
MODEL 4
REMARK VINA RESULT:    -7.336      2.579      2.913
REMARK INTER + INTRA:         -10.964
REMARK INTER:                 -10.131
REMARK INTRA:                  -0.833
REMARK UNBOUND:                -1.054
REMARK  Name = 
REMARK  7 active torsions:
REMARK  status: ('A' for Active; 'I' for Inactive)
REMARK    1  A    between atoms: C_1  and  C_2
REMARK    2  A    between atoms: C_6  and  C_7
REMARK    3  A    between atoms: N_9  and  C_10
REMARK    4  A    between atoms: C_10  and  C_11
REMARK    5  A    between atoms: C_14  and  C_15
REMARK    6  A    between atoms: C_15  and  N_16
REMARK    7  A    between atoms: C_17  and  C_19
REMARK                            x       y       z     vdW  Elec       q    Type
REMARK                         _______ _______ _______ _____ _____    ______ ____
ROOT
ATOM      1  C   UNL     1      45.525   6.559  11.821  0.00  0.00    +0.000 A 
ATOM      2  C   UNL     1      45.352   7.944  11.945  0.00  0.00    +0.000 A 
ATOM      3  C   UNL     1      46.217   8.710  12.740  0.00  0.00    +0.000 A 
ATOM      4  C   UNL     1      47.289   8.108  13.412  0.00  0.00    +0.000 A 
ATOM      5  C   UNL     1      47.455   6.721  13.297  0.00  0.00    +0.000 A 
ATOM      6  C   UNL     1      46.592   5.956  12.501  0.00  0.00    +0.000 A 
ENDROOT
BRANCH   1   7
ATOM      7  C   UNL     1      44.561   5.736  11.006  0.00  0.00    +0.000 C 
BRANCH   7  10
ATOM      8  C   UNL     1      44.704   3.647   9.730  0.00  0.00    +0.000 C 
ATOM      9  O   UNL     1      43.713   3.171  10.276  0.00  0.00    +0.000 OA
ATOM     10  N   UNL     1      45.201   4.904  10.020  0.00  0.00    +0.000 N 
ATOM     11  H   UNL     1      46.035   5.205   9.526  0.00  0.00    +0.000 HD
BRANCH   8  17
ATOM     12  C   UNL     1      47.030   3.452   5.292  0.00  0.00    +0.000 C 
ATOM     13  C   UNL     1      46.572   2.792   6.558  0.00  0.00    +0.000 A 
ATOM     14  C   UNL     1      46.830   1.444   6.811  0.00  0.00    +0.000 A 
ATOM     15  C   UNL     1      46.381   0.887   8.001  0.00  0.00    +0.000 A 
ATOM     16  N   UNL     1      45.697   1.564   8.945  0.00  0.00    +0.000 NA
ATOM     17  C   UNL     1      45.456   2.879   8.683  0.00  0.00    +0.000 A 
ATOM     18  C   UNL     1      45.866   3.523   7.517  0.00  0.00    +0.000 A 
ENDBRANCH   8  17
ENDBRANCH   7  10
ENDBRANCH   1   7
BRANCH   4  19
ATOM     19  C   UNL     1      48.247   8.920  14.249  0.00  0.00    +0.000 C 
BRANCH  19  20
ATOM     20  N   UNL     1      47.899   8.894  15.648  0.00  0.00    +0.000 N 
ATOM     21  C   UNL     1      48.330   9.874  16.507  0.00  0.00    +0.000 C 
ATOM     22  O   UNL     1      48.996  10.832  16.124  0.00  0.00    +0.000 OA
ATOM     23  H   UNL     1      47.596   8.003  16.027  0.00  0.00    +0.000 HD
BRANCH  21  24
ATOM     24  C   UNL     1      47.900   9.750  17.908  0.00  0.00    +0.000 A 
ATOM     25  C   UNL     1      47.405  10.860  18.582  0.00  0.00    +0.000 A 
ATOM     26  S   UNL     1      46.908  10.520  20.179  0.00  0.00    +0.000 S 
ATOM     27  C   UNL     1      47.387   8.894  20.041  0.00  0.00    +0.000 A 
ATOM     28  N   UNL     1      47.257   8.030  21.088  0.00  0.00    +0.000 NA
ATOM     29  C   UNL     1      47.687   6.836  20.847  0.00  0.00    +0.000 A 
ATOM     30  N   UNL     1      48.221   6.423  19.656  0.00  0.00    +0.000 N 
ATOM     31  C   UNL     1      48.343   7.251  18.566  0.00  0.00    +0.000 A 
ATOM     32  O   UNL     1      48.780   6.828  17.495  0.00  0.00    +0.000 OA
ATOM     33  C   UNL     1      47.892   8.609  18.787  0.00  0.00    +0.000 A 
ATOM     34  H   UNL     1      48.526   5.468  19.527  0.00  0.00    +0.000 HD
ENDBRANCH  21  24
ENDBRANCH  19  20
ENDBRANCH   4  19
TORSDOF 6
ENDMDL
MODEL 5
REMARK VINA RESULT:    -7.038      1.950      2.817
REMARK INTER + INTRA:         -10.560
REMARK INTER:                  -9.570
REMARK INTRA:                  -0.990
REMARK UNBOUND:                -1.054
REMARK  Name = 
REMARK  7 active torsions:
REMARK  status: ('A' for Active; 'I' for Inactive)
REMARK    1  A    between atoms: C_1  and  C_2
REMARK    2  A    between atoms: C_6  and  C_7
REMARK    3  A    between atoms: N_9  and  C_10
REMARK    4  A    between atoms: C_10  and  C_11
REMARK    5  A    between atoms: C_14  and  C_15
REMARK    6  A    between atoms: C_15  and  N_16
REMARK    7  A    between atoms: C_17  and  C_19
REMARK                            x       y       z     vdW  Elec       q    Type
REMARK                         _______ _______ _______ _____ _____    ______ ____
ROOT
ATOM      1  C   UNL     1      44.907   6.159  11.049  0.00  0.00    +0.000 A 
ATOM      2  C   UNL     1      44.298   7.100  11.889  0.00  0.00    +0.000 A 
ATOM      3  C   UNL     1      45.066   7.920  12.728  0.00  0.00    +0.000 A 
ATOM      4  C   UNL     1      46.464   7.830  12.729  0.00  0.00    +0.000 A 
ATOM      5  C   UNL     1      47.072   6.879  11.898  0.00  0.00    +0.000 A 
ATOM      6  C   UNL     1      46.305   6.063  11.057  0.00  0.00    +0.000 A 
ENDROOT
BRANCH   1   7
ATOM      7  C   UNL     1      44.072   5.247  10.187  0.00  0.00    +0.000 C 
BRANCH   7  10
ATOM      8  C   UNL     1      44.759   3.051   9.340  0.00  0.00    +0.000 C 
ATOM      9  O   UNL     1      44.037   2.450  10.129  0.00  0.00    +0.000 OA
ATOM     10  N   UNL     1      44.846   4.429   9.289  0.00  0.00    +0.000 N 
ATOM     11  H   UNL     1      45.484   4.836   8.612  0.00  0.00    +0.000 HD
BRANCH   8  17
ATOM     12  C   UNL     1      47.450   2.958   5.111  0.00  0.00    +0.000 C 
ATOM     13  C   UNL     1      46.903   2.273   6.327  0.00  0.00    +0.000 A 
ATOM     14  C   UNL     1      47.169   0.927   6.587  0.00  0.00    +0.000 A 
ATOM     15  C   UNL     1      46.634   0.348   7.730  0.00  0.00    +0.000 A 
ATOM     16  N   UNL     1      45.859   0.999   8.621  0.00  0.00    +0.000 NA
ATOM     17  C   UNL     1      45.613   2.311   8.352  0.00  0.00    +0.000 A 
ATOM     18  C   UNL     1      46.104   2.978   7.231  0.00  0.00    +0.000 A 
ENDBRANCH   8  17
ENDBRANCH   7  10
ENDBRANCH   1   7
BRANCH   4  19
ATOM     19  C   UNL     1      47.309   8.723  13.605  0.00  0.00    +0.000 C 
BRANCH  19  20
ATOM     20  N   UNL     1      48.290   7.977  14.352  0.00  0.00    +0.000 N 
ATOM     21  C   UNL     1      48.593   8.300  15.651  0.00  0.00    +0.000 C 
ATOM     22  O   UNL     1      48.023   9.209  16.248  0.00  0.00    +0.000 OA
ATOM     23  H   UNL     1      48.948   7.421  13.814  0.00  0.00    +0.000 HD
BRANCH  21  24
ATOM     24  C   UNL     1      49.601   7.460  16.315  0.00  0.00    +0.000 A 
ATOM     25  C   UNL     1      49.256   6.727  17.444  0.00  0.00    +0.000 A 
ATOM     26  S   UNL     1      50.533   5.771  18.051  0.00  0.00    +0.000 S 
ATOM     27  C   UNL     1      51.603   6.345  16.860  0.00  0.00    +0.000 A 
ATOM     28  N   UNL     1      52.902   5.934  16.822  0.00  0.00    +0.000 NA
ATOM     29  C   UNL     1      53.602   6.474  15.880  0.00  0.00    +0.000 A 
ATOM     30  N   UNL     1      53.122   7.373  14.965  0.00  0.00    +0.000 N 
ATOM     31  C   UNL     1      51.814   7.790  14.947  0.00  0.00    +0.000 A 
ATOM     32  O   UNL     1      51.407   8.561  14.076  0.00  0.00    +0.000 OA
ATOM     33  C   UNL     1      50.987   7.230  15.995  0.00  0.00    +0.000 A 
ATOM     34  H   UNL     1      53.720   7.747  14.241  0.00  0.00    +0.000 HD
ENDBRANCH  21  24
ENDBRANCH  19  20
ENDBRANCH   4  19
TORSDOF 6
ENDMDL
MODEL 6
REMARK VINA RESULT:    -6.967      4.153      6.967
REMARK INTER + INTRA:         -10.465
REMARK INTER:                  -9.723
REMARK INTRA:                  -0.742
REMARK UNBOUND:                -1.054
REMARK  Name = 
REMARK  7 active torsions:
REMARK  status: ('A' for Active; 'I' for Inactive)
REMARK    1  A    between atoms: C_1  and  C_2
REMARK    2  A    between atoms: C_6  and  C_7
REMARK    3  A    between atoms: N_9  and  C_10
REMARK    4  A    between atoms: C_10  and  C_11
REMARK    5  A    between atoms: C_14  and  C_15
REMARK    6  A    between atoms: C_15  and  N_16
REMARK    7  A    between atoms: C_17  and  C_19
REMARK                            x       y       z     vdW  Elec       q    Type
REMARK                         _______ _______ _______ _____ _____    ______ ____
ROOT
ATOM      1  C   UNL     1      44.936   7.836  11.801  0.00  0.00    +0.000 A 
ATOM      2  C   UNL     1      44.282   6.597  11.764  0.00  0.00    +0.000 A 
ATOM      3  C   UNL     1      44.779   5.499  12.479  0.00  0.00    +0.000 A 
ATOM      4  C   UNL     1      45.932   5.623  13.266  0.00  0.00    +0.000 A 
ATOM      5  C   UNL     1      46.593   6.858  13.292  0.00  0.00    +0.000 A 
ATOM      6  C   UNL     1      46.094   7.957  12.580  0.00  0.00    +0.000 A 
ENDROOT
BRANCH   1   7
ATOM      7  C   UNL     1      44.423   8.998  10.989  0.00  0.00    +0.000 C 
BRANCH   7  10
ATOM      8  C   UNL     1      42.789  10.807  11.260  0.00  0.00    +0.000 C 
ATOM      9  O   UNL     1      43.539  11.643  10.765  0.00  0.00    +0.000 OA
ATOM     10  N   UNL     1      43.133   9.477  11.414  0.00  0.00    +0.000 N 
ATOM     11  H   UNL     1      42.452   8.862  11.849  0.00  0.00    +0.000 HD
BRANCH   8  17
ATOM     12  C   UNL     1      37.871   9.880  11.558  0.00  0.00    +0.000 C 
ATOM     13  C   UNL     1      39.063  10.731  11.881  0.00  0.00    +0.000 A 
ATOM     14  C   UNL     1      38.942  11.897  12.639  0.00  0.00    +0.000 A 
ATOM     15  C   UNL     1      40.082  12.644  12.906  0.00  0.00    +0.000 A 
ATOM     16  N   UNL     1      41.318  12.323  12.474  0.00  0.00    +0.000 NA
ATOM     17  C   UNL     1      41.417  11.181  11.739  0.00  0.00    +0.000 A 
ATOM     18  C   UNL     1      40.331  10.369  11.419  0.00  0.00    +0.000 A 
ENDBRANCH   8  17
ENDBRANCH   7  10
ENDBRANCH   1   7
BRANCH   4  19
ATOM     19  C   UNL     1      46.467   4.459  14.065  0.00  0.00    +0.000 C 
BRANCH  19  20
ATOM     20  N   UNL     1      47.389   4.882  15.088  0.00  0.00    +0.000 N 
ATOM     21  C   UNL     1      47.368   4.324  16.342  0.00  0.00    +0.000 C 
ATOM     22  O   UNL     1      46.593   3.418  16.641  0.00  0.00    +0.000 OA
ATOM     23  H   UNL     1      47.835   5.785  14.957  0.00  0.00    +0.000 HD
BRANCH  21  24
ATOM     24  C   UNL     1      48.365   4.826  17.299  0.00  0.00    +0.000 A 
ATOM     25  C   UNL     1      48.159   6.042  17.940  0.00  0.00    +0.000 A 
ATOM     26  S   UNL     1      49.390   6.442  19.052  0.00  0.00    +0.000 S 
ATOM     27  C   UNL     1      50.265   5.033  18.675  0.00  0.00    +0.000 A 
ATOM     28  N   UNL     1      51.462   4.766  19.271  0.00  0.00    +0.000 NA
ATOM     29  C   UNL     1      52.024   3.676  18.867  0.00  0.00    +0.000 A 
ATOM     30  N   UNL     1      51.496   2.822  17.935  0.00  0.00    +0.000 N 
ATOM     31  C   UNL     1      50.280   3.036  17.333  0.00  0.00    +0.000 A 
ATOM     32  O   UNL     1      49.814   2.217  16.538  0.00  0.00    +0.000 OA
ATOM     33  C   UNL     1      49.613   4.256  17.736  0.00  0.00    +0.000 A 
ATOM     34  H   UNL     1      51.981   1.974  17.674  0.00  0.00    +0.000 HD
ENDBRANCH  21  24
ENDBRANCH  19  20
ENDBRANCH   4  19
TORSDOF 6
ENDMDL
MODEL 7
REMARK VINA RESULT:    -6.949      2.421      3.274
REMARK INTER + INTRA:         -10.441
REMARK INTER:                  -9.526
REMARK INTRA:                  -0.914
REMARK UNBOUND:                -1.054
REMARK  Name = 
REMARK  7 active torsions:
REMARK  status: ('A' for Active; 'I' for Inactive)
REMARK    1  A    between atoms: C_1  and  C_2
REMARK    2  A    between atoms: C_6  and  C_7
REMARK    3  A    between atoms: N_9  and  C_10
REMARK    4  A    between atoms: C_10  and  C_11
REMARK    5  A    between atoms: C_14  and  C_15
REMARK    6  A    between atoms: C_15  and  N_16
REMARK    7  A    between atoms: C_17  and  C_19
REMARK                            x       y       z     vdW  Elec       q    Type
REMARK                         _______ _______ _______ _____ _____    ______ ____
ROOT
ATOM      1  C   UNL     1      46.195   7.345  12.519  0.00  0.00    +0.000 A 
ATOM      2  C   UNL     1      46.851   6.229  13.055  0.00  0.00    +0.000 A 
ATOM      3  C   UNL     1      47.800   6.373  14.076  0.00  0.00    +0.000 A 
ATOM      4  C   UNL     1      48.099   7.638  14.599  0.00  0.00    +0.000 A 
ATOM      5  C   UNL     1      47.452   8.756  14.054  0.00  0.00    +0.000 A 
ATOM      6  C   UNL     1      46.501   8.611  13.035  0.00  0.00    +0.000 A 
ENDROOT
BRANCH   1   7
ATOM      7  C   UNL     1      45.213   7.186  11.386  0.00  0.00    +0.000 C 
BRANCH   7  10
ATOM      8  C   UNL     1      44.529   5.049  10.398  0.00  0.00    +0.000 C 
ATOM      9  O   UNL     1      43.434   5.070  10.953  0.00  0.00    +0.000 OA
ATOM     10  N   UNL     1      45.475   6.046  10.548  0.00  0.00    +0.000 N 
ATOM     11  H   UNL     1      46.358   5.933  10.061  0.00  0.00    +0.000 HD
BRANCH   8  17
ATOM     12  C   UNL     1      46.833   3.342   6.286  0.00  0.00    +0.000 C 
ATOM     13  C   UNL     1      46.028   3.102   7.527  0.00  0.00    +0.000 A 
ATOM     14  C   UNL     1      45.615   1.820   7.892  0.00  0.00    +0.000 A 
ATOM     15  C   UNL     1      44.871   1.659   9.053  0.00  0.00    +0.000 A 
ATOM     16  N   UNL     1      44.506   2.671   9.867  0.00  0.00    +0.000 NA
ATOM     17  C   UNL     1      44.920   3.915   9.497  0.00  0.00    +0.000 A 
ATOM     18  C   UNL     1      45.667   4.173   8.350  0.00  0.00    +0.000 A 
ENDBRANCH   8  17
ENDBRANCH   7  10
ENDBRANCH   1   7
BRANCH   4  19
ATOM     19  C   UNL     1      49.098   7.811  15.718  0.00  0.00    +0.000 C 
BRANCH  19  20
ATOM     20  N   UNL     1      49.768   6.576  16.041  0.00  0.00    +0.000 N 
ATOM     21  C   UNL     1      49.394   5.827  17.129  0.00  0.00    +0.000 C 
ATOM     22  O   UNL     1      48.456   6.150  17.854  0.00  0.00    +0.000 OA
ATOM     23  H   UNL     1      50.688   6.436  15.637  0.00  0.00    +0.000 HD
BRANCH  21  24
ATOM     24  C   UNL     1      50.141   4.580  17.351  0.00  0.00    +0.000 A 
ATOM     25  C   UNL     1      49.521   3.354  17.142  0.00  0.00    +0.000 A 
ATOM     26  S   UNL     1      50.551   2.018  17.397  0.00  0.00    +0.000 S 
ATOM     27  C   UNL     1      51.842   3.029  17.848  0.00  0.00    +0.000 A 
ATOM     28  N   UNL     1      53.046   2.510  18.221  0.00  0.00    +0.000 NA
ATOM     29  C   UNL     1      53.923   3.395  18.563  0.00  0.00    +0.000 A 
ATOM     30  N   UNL     1      53.713   4.749  18.551  0.00  0.00    +0.000 N 
ATOM     31  C   UNL     1      52.528   5.315  18.152  0.00  0.00    +0.000 A 
ATOM     32  O   UNL     1      52.394   6.540  18.105  0.00  0.00    +0.000 OA
ATOM     33  C   UNL     1      51.501   4.366  17.776  0.00  0.00    +0.000 A 
ATOM     34  H   UNL     1      54.448   5.390  18.815  0.00  0.00    +0.000 HD
ENDBRANCH  21  24
ENDBRANCH  19  20
ENDBRANCH   4  19
TORSDOF 6
ENDMDL
MODEL 8
REMARK VINA RESULT:    -6.948      3.419      8.974
REMARK INTER + INTRA:         -10.439
REMARK INTER:                  -9.488
REMARK INTRA:                  -0.951
REMARK UNBOUND:                -1.054
REMARK  Name = 
REMARK  7 active torsions:
REMARK  status: ('A' for Active; 'I' for Inactive)
REMARK    1  A    between atoms: C_1  and  C_2
REMARK    2  A    between atoms: C_6  and  C_7
REMARK    3  A    between atoms: N_9  and  C_10
REMARK    4  A    between atoms: C_10  and  C_11
REMARK    5  A    between atoms: C_14  and  C_15
REMARK    6  A    between atoms: C_15  and  N_16
REMARK    7  A    between atoms: C_17  and  C_19
REMARK                            x       y       z     vdW  Elec       q    Type
REMARK                         _______ _______ _______ _____ _____    ______ ____
ROOT
ATOM      1  C   UNL     1      50.321   7.436  15.395  0.00  0.00    +0.000 A 
ATOM      2  C   UNL     1      50.825   7.831  14.148  0.00  0.00    +0.000 A 
ATOM      3  C   UNL     1      49.984   7.935  13.032  0.00  0.00    +0.000 A 
ATOM      4  C   UNL     1      48.613   7.666  13.144  0.00  0.00    +0.000 A 
ATOM      5  C   UNL     1      48.112   7.259  14.387  0.00  0.00    +0.000 A 
ATOM      6  C   UNL     1      48.952   7.158  15.504  0.00  0.00    +0.000 A 
ENDROOT
BRANCH   1   7
ATOM      7  C   UNL     1      51.241   7.278  16.579  0.00  0.00    +0.000 C 
BRANCH   7  10
ATOM      8  C   UNL     1      51.027   5.054  17.589  0.00  0.00    +0.000 C 
ATOM      9  O   UNL     1      50.000   5.356  18.189  0.00  0.00    +0.000 OA
ATOM     10  N   UNL     1      51.713   5.931  16.769  0.00  0.00    +0.000 N 
ATOM     11  H   UNL     1      52.562   5.595  16.326  0.00  0.00    +0.000 HD
BRANCH   8  17
ATOM     12  C   UNL     1      54.755   2.013  19.001  0.00  0.00    +0.000 C 
ATOM     13  C   UNL     1      53.405   2.227  18.385  0.00  0.00    +0.000 A 
ATOM     14  C   UNL     1      52.647   1.159  17.900  0.00  0.00    +0.000 A 
ATOM     15  C   UNL     1      51.403   1.419  17.340  0.00  0.00    +0.000 A 
ATOM     16  N   UNL     1      50.866   2.650  17.223  0.00  0.00    +0.000 NA
ATOM     17  C   UNL     1      51.618   3.679  17.704  0.00  0.00    +0.000 A 
ATOM     18  C   UNL     1      52.876   3.516  18.280  0.00  0.00    +0.000 A 
ENDBRANCH   8  17
ENDBRANCH   7  10
ENDBRANCH   1   7
BRANCH   4  19
ATOM     19  C   UNL     1      47.687   7.799  11.959  0.00  0.00    +0.000 C 
BRANCH  19  20
ATOM     20  N   UNL     1      46.973   6.576  11.690  0.00  0.00    +0.000 N 
ATOM     21  C   UNL     1      45.627   6.469  11.938  0.00  0.00    +0.000 C 
ATOM     22  O   UNL     1      44.963   7.410  12.363  0.00  0.00    +0.000 OA
ATOM     23  H   UNL     1      47.529   5.732  11.604  0.00  0.00    +0.000 HD
BRANCH  21  24
ATOM     24  C   UNL     1      45.004   5.178  11.611  0.00  0.00    +0.000 A 
ATOM     25  C   UNL     1      44.284   4.490  12.580  0.00  0.00    +0.000 A 
ATOM     26  S   UNL     1      43.589   3.039  12.011  0.00  0.00    +0.000 S 
ATOM     27  C   UNL     1      44.270   3.253  10.468  0.00  0.00    +0.000 A 
ATOM     28  N   UNL     1      44.081   2.332   9.480  0.00  0.00    +0.000 NA
ATOM     29  C   UNL     1      44.680   2.614   8.371  0.00  0.00    +0.000 A 
ATOM     30  N   UNL     1      45.436   3.735   8.152  0.00  0.00    +0.000 N 
ATOM     31  C   UNL     1      45.627   4.702   9.108  0.00  0.00    +0.000 A 
ATOM     32  O   UNL     1      46.272   5.722   8.857  0.00  0.00    +0.000 OA
ATOM     33  C   UNL     1      44.993   4.428  10.380  0.00  0.00    +0.000 A 
ATOM     34  H   UNL     1      45.866   3.904   7.254  0.00  0.00    +0.000 HD
ENDBRANCH  21  24
ENDBRANCH  19  20
ENDBRANCH   4  19
TORSDOF 6
ENDMDL
MODEL 9
REMARK VINA RESULT:    -6.890      4.357      7.343
REMARK INTER + INTRA:         -10.361
REMARK INTER:                  -9.417
REMARK INTRA:                  -0.944
REMARK UNBOUND:                -1.054
REMARK  Name = 
REMARK  7 active torsions:
REMARK  status: ('A' for Active; 'I' for Inactive)
REMARK    1  A    between atoms: C_1  and  C_2
REMARK    2  A    between atoms: C_6  and  C_7
REMARK    3  A    between atoms: N_9  and  C_10
REMARK    4  A    between atoms: C_10  and  C_11
REMARK    5  A    between atoms: C_14  and  C_15
REMARK    6  A    between atoms: C_15  and  N_16
REMARK    7  A    between atoms: C_17  and  C_19
REMARK                            x       y       z     vdW  Elec       q    Type
REMARK                         _______ _______ _______ _____ _____    ______ ____
ROOT
ATOM      1  C   UNL     1      44.523   9.028  11.695  0.00  0.00    +0.000 A 
ATOM      2  C   UNL     1      43.964   7.808  11.291  0.00  0.00    +0.000 A 
ATOM      3  C   UNL     1      44.528   6.589  11.693  0.00  0.00    +0.000 A 
ATOM      4  C   UNL     1      45.653   6.564  12.529  0.00  0.00    +0.000 A 
ATOM      5  C   UNL     1      46.219   7.785  12.922  0.00  0.00    +0.000 A 
ATOM      6  C   UNL     1      45.653   9.002  12.523  0.00  0.00    +0.000 A 
ENDROOT
BRANCH   1   7
ATOM      7  C   UNL     1      43.941  10.334  11.218  0.00  0.00    +0.000 C 
BRANCH   7  10
ATOM      8  C   UNL     1      41.944  11.605  11.857  0.00  0.00    +0.000 C 
ATOM      9  O   UNL     1      42.593  12.609  12.132  0.00  0.00    +0.000 OA
ATOM     10  N   UNL     1      42.516  10.433  11.398  0.00  0.00    +0.000 N 
ATOM     11  H   UNL     1      41.898   9.649  11.211  0.00  0.00    +0.000 HD
BRANCH   8  17
ATOM     12  C   UNL     1      37.562   9.193  11.503  0.00  0.00    +0.000 C 
ATOM     13  C   UNL     1      38.354  10.422  11.832  0.00  0.00    +0.000 A 
ATOM     14  C   UNL     1      37.736  11.589  12.285  0.00  0.00    +0.000 A 
ATOM     15  C   UNL     1      38.522  12.696  12.574  0.00  0.00    +0.000 A 
ATOM     16  N   UNL     1      39.863  12.731  12.441  0.00  0.00    +0.000 NA
ATOM     17  C   UNL     1      40.450  11.584  12.000  0.00  0.00    +0.000 A 
ATOM     18  C   UNL     1      39.745  10.424  11.684  0.00  0.00    +0.000 A 
ENDBRANCH   8  17
ENDBRANCH   7  10
ENDBRANCH   1   7
BRANCH   4  19
ATOM     19  C   UNL     1      46.257   5.262  12.994  0.00  0.00    +0.000 C 
BRANCH  19  20
ATOM     20  N   UNL     1      46.815   5.367  14.319  0.00  0.00    +0.000 N 
ATOM     21  C   UNL     1      47.306   4.265  14.974  0.00  0.00    +0.000 C 
ATOM     22  O   UNL     1      47.328   3.152  14.455  0.00  0.00    +0.000 OA
ATOM     23  H   UNL     1      46.564   6.191  14.857  0.00  0.00    +0.000 HD
BRANCH  21  24
ATOM     24  C   UNL     1      47.863   4.496  16.315  0.00  0.00    +0.000 A 
ATOM     25  C   UNL     1      47.436   3.720  17.386  0.00  0.00    +0.000 A 
ATOM     26  S   UNL     1      48.224   4.092  18.853  0.00  0.00    +0.000 S 
ATOM     27  C   UNL     1      49.122   5.336  18.120  0.00  0.00    +0.000 A 
ATOM     28  N   UNL     1      49.996   6.094  18.841  0.00  0.00    +0.000 NA
ATOM     29  C   UNL     1      50.586   7.018  18.158  0.00  0.00    +0.000 A 
ATOM     30  N   UNL     1      50.396   7.245  16.821  0.00  0.00    +0.000 N 
ATOM     31  C   UNL     1      49.549   6.487  16.050  0.00  0.00    +0.000 A 
ATOM     32  O   UNL     1      49.443   6.690  14.839  0.00  0.00    +0.000 OA
ATOM     33  C   UNL     1      48.845   5.447  16.770  0.00  0.00    +0.000 A 
ATOM     34  H   UNL     1      50.902   7.977  16.341  0.00  0.00    +0.000 HD
ENDBRANCH  21  24
ENDBRANCH  19  20
ENDBRANCH   4  19
TORSDOF 6
ENDMDL
