MODEL 1
REMARK VINA RESULT:    -8.161      0.000      0.000
REMARK INTER + INTRA:         -12.947
REMARK INTER:                 -11.977
REMARK INTRA:                  -0.970
REMARK UNBOUND:                -0.970
REMARK  Name = 
REMARK  9 active torsions:
REMARK  status: ('A' for Active; 'I' for Inactive)
REMARK    1  A    between atoms: C_1  and  C_2
REMARK    2  A    between atoms: C_2  and  C_3
REMARK    3  A    between atoms: C_2  and  N_10
REMARK    4  A    between atoms: C_3  and  C_4
REMARK    5  A    between atoms: N_10  and  C_11
REMARK    6  A    between atoms: C_11  and  C_12
REMARK    7  A    between atoms: C_15  and  C_16
REMARK    8  A    between atoms: C_16  and  N_17
REMARK    9  A    between atoms: C_18  and  C_20
REMARK                            x       y       z     vdW  Elec       q    Type
REMARK                         _______ _______ _______ _____ _____    ______ ____
ROOT
ATOM      1  C   UNL     1      45.236   4.720  13.019  0.00  0.00    +0.000 A 
ATOM      2  C   UNL     1      45.231   6.103  12.798  0.00  0.00    +0.000 A 
ATOM      3  C   UNL     1      46.341   6.878  13.130  0.00  0.00    +0.000 A 
ATOM      4  C   UNL     1      47.476   6.281  13.693  0.00  0.00    +0.000 A 
ATOM      5  C   UNL     1      47.477   4.901  13.928  0.00  0.00    +0.000 A 
ATOM      6  C   UNL     1      46.372   4.126  13.586  0.00  0.00    +0.000 A 
ENDROOT
BRANCH   1   7
ATOM      7  C   UNL     1      44.019   3.891  12.702  0.00  0.00    +0.000 C 
BRANCH   7   8
ATOM      8  N   UNL     1      44.316   2.827  11.739  0.00  0.00    +0.000 NA
ATOM      9  H   UNL     1      45.101   2.278  12.082  0.00  0.00    +0.000 HD
BRANCH   8  11
ATOM     10  C   UNL     1      43.667   4.480  10.026  0.00  0.00    +0.000 C 
ATOM     11  C   UNL     1      44.639   3.352  10.399  0.00  0.00    +0.000 C 
BRANCH  11  12
ATOM     12  C   UNL     1      44.592   2.196   9.365  0.00  0.00    +0.000 C 
BRANCH  12  13
ATOM     13  C   UNL     1      45.676   2.294   8.309  0.00  0.00    +0.000 A 
ATOM     14  C   UNL     1      45.861   3.474   7.573  0.00  0.00    +0.000 A 
ATOM     15  C   UNL     1      46.776   3.514   6.518  0.00  0.00    +0.000 A 
ATOM     16  C   UNL     1      47.536   2.387   6.209  0.00  0.00    +0.000 A 
ATOM     17  C   UNL     1      47.392   1.225   6.962  0.00  0.00    +0.000 A 
ATOM     18  C   UNL     1      46.467   1.177   8.007  0.00  0.00    +0.000 A 
ENDBRANCH  12  13
ENDBRANCH  11  12
ENDBRANCH   8  11
ENDBRANCH   7   8
ENDBRANCH   1   7
BRANCH   4  19
ATOM     19  C   UNL     1      48.659   7.114  14.101  0.00  0.00    +0.000 C 
BRANCH  19  20
ATOM     20  N   UNL     1      48.560   7.481  15.489  0.00  0.00    +0.000 N 
ATOM     21  C   UNL     1      49.363   6.907  16.436  0.00  0.00    +0.000 C 
ATOM     22  O   UNL     1      50.215   6.068  16.153  0.00  0.00    +0.000 OA
ATOM     23  H   UNL     1      47.709   7.952  15.779  0.00  0.00    +0.000 HD
BRANCH  21  24
ATOM     24  C   UNL     1      49.200   7.401  17.806  0.00  0.00    +0.000 A 
ATOM     25  C   UNL     1      49.833   8.573  18.197  0.00  0.00    +0.000 A 
ATOM     26  S   UNL     1      49.491   9.030  19.804  0.00  0.00    +0.000 S 
ATOM     27  C   UNL     1      48.521   7.653  20.048  0.00  0.00    +0.000 A 
ATOM     28  N   UNL     1      47.934   7.414  21.252  0.00  0.00    +0.000 NA
ATOM     29  C   UNL     1      47.245   6.325  21.306  0.00  0.00    +0.000 A 
ATOM     30  N   UNL     1      47.088   5.452  20.256  0.00  0.00    +0.000 N 
ATOM     31  C   UNL     1      47.641   5.658  19.022  0.00  0.00    +0.000 A 
ATOM     32  O   UNL     1      47.446   4.880  18.096  0.00  0.00    +0.000 OA
ATOM     33  C   UNL     1      48.441   6.868  18.913  0.00  0.00    +0.000 A 
ATOM     34  H   UNL     1      46.528   4.615  20.363  0.00  0.00    +0.000 HD
ENDBRANCH  21  24
ENDBRANCH  19  20
ENDBRANCH   4  19
TORSDOF 8
ENDMDL
MODEL 2
REMARK VINA RESULT:    -8.072      1.802      2.404
REMARK INTER + INTRA:         -12.818
REMARK INTER:                 -11.549
REMARK INTRA:                  -1.268
REMARK UNBOUND:                -0.970
REMARK  Name = 
REMARK  9 active torsions:
REMARK  status: ('A' for Active; 'I' for Inactive)
REMARK    1  A    between atoms: C_1  and  C_2
REMARK    2  A    between atoms: C_2  and  C_3
REMARK    3  A    between atoms: C_2  and  N_10
REMARK    4  A    between atoms: C_3  and  C_4
REMARK    5  A    between atoms: N_10  and  C_11
REMARK    6  A    between atoms: C_11  and  C_12
REMARK    7  A    between atoms: C_15  and  C_16
REMARK    8  A    between atoms: C_16  and  N_17
REMARK    9  A    between atoms: C_18  and  C_20
REMARK                            x       y       z     vdW  Elec       q    Type
REMARK                         _______ _______ _______ _____ _____    ______ ____
ROOT
ATOM      1  C   UNL     1      44.348   6.094  11.786  0.00  0.00    +0.000 A 
ATOM      2  C   UNL     1      45.156   5.439  12.723  0.00  0.00    +0.000 A 
ATOM      3  C   UNL     1      46.228   6.100  13.320  0.00  0.00    +0.000 A 
ATOM      4  C   UNL     1      46.512   7.430  12.986  0.00  0.00    +0.000 A 
ATOM      5  C   UNL     1      45.714   8.082  12.038  0.00  0.00    +0.000 A 
ATOM      6  C   UNL     1      44.637   7.425  11.451  0.00  0.00    +0.000 A 
ENDROOT
BRANCH   1   7
ATOM      7  C   UNL     1      43.218   5.365  11.108  0.00  0.00    +0.000 C 
BRANCH   7   8
ATOM      8  N   UNL     1      43.635   4.770   9.836  0.00  0.00    +0.000 NA
ATOM      9  H   UNL     1      42.897   4.905   9.148  0.00  0.00    +0.000 HD
BRANCH   8  11
ATOM     10  C   UNL     1      43.335   2.774  11.254  0.00  0.00    +0.000 C 
ATOM     11  C   UNL     1      43.932   3.331   9.954  0.00  0.00    +0.000 C 
BRANCH  11  12
ATOM     12  C   UNL     1      45.468   3.113   9.895  0.00  0.00    +0.000 C 
BRANCH  12  13
ATOM     13  C   UNL     1      45.967   2.756   8.509  0.00  0.00    +0.000 A 
ATOM     14  C   UNL     1      46.317   1.437   8.185  0.00  0.00    +0.000 A 
ATOM     15  C   UNL     1      46.894   1.140   6.948  0.00  0.00    +0.000 A 
ATOM     16  C   UNL     1      47.099   2.152   6.012  0.00  0.00    +0.000 A 
ATOM     17  C   UNL     1      46.715   3.458   6.306  0.00  0.00    +0.000 A 
ATOM     18  C   UNL     1      46.152   3.760   7.548  0.00  0.00    +0.000 A 
ENDBRANCH  12  13
ENDBRANCH  11  12
ENDBRANCH   8  11
ENDBRANCH   7   8
ENDBRANCH   1   7
BRANCH   4  19
ATOM     19  C   UNL     1      47.696   8.137  13.586  0.00  0.00    +0.000 C 
BRANCH  19  20
ATOM     20  N   UNL     1      48.018   7.576  14.871  0.00  0.00    +0.000 N 
ATOM     21  C   UNL     1      49.304   7.246  15.202  0.00  0.00    +0.000 C 
ATOM     22  O   UNL     1      50.245   7.425  14.434  0.00  0.00    +0.000 OA
ATOM     23  H   UNL     1      47.250   7.176  15.402  0.00  0.00    +0.000 HD
BRANCH  21  24
ATOM     24  C   UNL     1      49.508   6.730  16.558  0.00  0.00    +0.000 A 
ATOM     25  C   UNL     1      50.250   7.465  17.472  0.00  0.00    +0.000 A 
ATOM     26  S   UNL     1      50.342   6.744  19.015  0.00  0.00    +0.000 S 
ATOM     27  C   UNL     1      49.432   5.401  18.502  0.00  0.00    +0.000 A 
ATOM     28  N   UNL     1      49.166   4.370  19.349  0.00  0.00    +0.000 NA
ATOM     29  C   UNL     1      48.485   3.407  18.826  0.00  0.00    +0.000 A 
ATOM     30  N   UNL     1      48.043   3.386  17.524  0.00  0.00    +0.000 N 
ATOM     31  C   UNL     1      48.267   4.405  16.641  0.00  0.00    +0.000 A 
ATOM     32  O   UNL     1      47.823   4.372  15.500  0.00  0.00    +0.000 OA
ATOM     33  C   UNL     1      49.044   5.512  17.180  0.00  0.00    +0.000 A 
ATOM     34  H   UNL     1      47.508   2.600  17.176  0.00  0.00    +0.000 HD
ENDBRANCH  21  24
ENDBRANCH  19  20
ENDBRANCH   4  19
TORSDOF 8
ENDMDL
MODEL 3
REMARK VINA RESULT:    -7.967      4.063      9.976
REMARK INTER + INTRA:         -12.663
REMARK INTER:                  -9.816
REMARK INTRA:                  -2.847
REMARK UNBOUND:                -0.970
REMARK  Name = 
REMARK  9 active torsions:
REMARK  status: ('A' for Active; 'I' for Inactive)
REMARK    1  A    between atoms: C_1  and  C_2
REMARK    2  A    between atoms: C_2  and  C_3
REMARK    3  A    between atoms: C_2  and  N_10
REMARK    4  A    between atoms: C_3  and  C_4
REMARK    5  A    between atoms: N_10  and  C_11
REMARK    6  A    between atoms: C_11  and  C_12
REMARK    7  A    between atoms: C_15  and  C_16
REMARK    8  A    between atoms: C_16  and  N_17
REMARK    9  A    between atoms: C_18  and  C_20
REMARK                            x       y       z     vdW  Elec       q    Type
REMARK                         _______ _______ _______ _____ _____    ______ ____
ROOT
ATOM      1  C   UNL     1      51.455   4.375  17.745  0.00  0.00    +0.000 A 
ATOM      2  C   UNL     1      50.954   3.067  17.756  0.00  0.00    +0.000 A 
ATOM      3  C   UNL     1      49.629   2.814  17.406  0.00  0.00    +0.000 A 
ATOM      4  C   UNL     1      48.780   3.866  17.041  0.00  0.00    +0.000 A 
ATOM      5  C   UNL     1      49.276   5.176  17.044  0.00  0.00    +0.000 A 
ATOM      6  C   UNL     1      50.603   5.428  17.383  0.00  0.00    +0.000 A 
ENDROOT
BRANCH   1   7
ATOM      7  C   UNL     1      52.874   4.653  18.166  0.00  0.00    +0.000 C 
BRANCH   7   8
ATOM      8  N   UNL     1      53.147   4.170  19.523  0.00  0.00    +0.000 NA
ATOM      9  H   UNL     1      52.566   3.355  19.708  0.00  0.00    +0.000 HD
BRANCH   8  11
ATOM     10  C   UNL     1      54.157   5.436  21.384  0.00  0.00    +0.000 C 
ATOM     11  C   UNL     1      52.891   5.195  20.550  0.00  0.00    +0.000 C 
BRANCH  11  12
ATOM     12  C   UNL     1      51.699   4.750  21.440  0.00  0.00    +0.000 C 
BRANCH  12  13
ATOM     13  C   UNL     1      50.394   5.431  21.076  0.00  0.00    +0.000 A 
ATOM     14  C   UNL     1      49.210   4.692  20.938  0.00  0.00    +0.000 A 
ATOM     15  C   UNL     1      48.042   5.306  20.480  0.00  0.00    +0.000 A 
ATOM     16  C   UNL     1      48.038   6.669  20.186  0.00  0.00    +0.000 A 
ATOM     17  C   UNL     1      49.197   7.420  20.363  0.00  0.00    +0.000 A 
ATOM     18  C   UNL     1      50.370   6.806  20.805  0.00  0.00    +0.000 A 
ENDBRANCH  12  13
ENDBRANCH  11  12
ENDBRANCH   8  11
ENDBRANCH   7   8
ENDBRANCH   1   7
BRANCH   4  19
ATOM     19  C   UNL     1      47.336   3.610  16.711  0.00  0.00    +0.000 C 
BRANCH  19  20
ATOM     20  N   UNL     1      46.863   4.571  15.749  0.00  0.00    +0.000 N 
ATOM     21  C   UNL     1      46.838   4.285  14.412  0.00  0.00    +0.000 C 
ATOM     22  O   UNL     1      47.197   3.199  13.966  0.00  0.00    +0.000 OA
ATOM     23  H   UNL     1      46.820   5.539  16.052  0.00  0.00    +0.000 HD
BRANCH  21  24
ATOM     24  C   UNL     1      46.287   5.328  13.540  0.00  0.00    +0.000 A 
ATOM     25  C   UNL     1      47.032   6.467  13.272  0.00  0.00    +0.000 A 
ATOM     26  S   UNL     1      46.264   7.548  12.199  0.00  0.00    +0.000 S 
ATOM     27  C   UNL     1      44.889   6.552  12.092  0.00  0.00    +0.000 A 
ATOM     28  N   UNL     1      43.815   6.917  11.340  0.00  0.00    +0.000 NA
ATOM     29  C   UNL     1      42.833   6.081  11.365  0.00  0.00    +0.000 A 
ATOM     30  N   UNL     1      42.831   4.905  12.076  0.00  0.00    +0.000 N 
ATOM     31  C   UNL     1      43.893   4.484  12.830  0.00  0.00    +0.000 A 
ATOM     32  O   UNL     1      43.873   3.410  13.418  0.00  0.00    +0.000 OA
ATOM     33  C   UNL     1      45.023   5.400  12.846  0.00  0.00    +0.000 A 
ATOM     34  H   UNL     1      42.028   4.289  12.049  0.00  0.00    +0.000 HD
ENDBRANCH  21  24
ENDBRANCH  19  20
ENDBRANCH   4  19
TORSDOF 8
ENDMDL
MODEL 4
REMARK VINA RESULT:    -7.874      2.501      3.124
REMARK INTER + INTRA:         -12.526
REMARK INTER:                 -11.338
REMARK INTRA:                  -1.188
REMARK UNBOUND:                -0.970
REMARK  Name = 
REMARK  9 active torsions:
REMARK  status: ('A' for Active; 'I' for Inactive)
REMARK    1  A    between atoms: C_1  and  C_2
REMARK    2  A    between atoms: C_2  and  C_3
REMARK    3  A    between atoms: C_2  and  N_10
REMARK    4  A    between atoms: C_3  and  C_4
REMARK    5  A    between atoms: N_10  and  C_11
REMARK    6  A    between atoms: C_11  and  C_12
REMARK    7  A    between atoms: C_15  and  C_16
REMARK    8  A    between atoms: C_16  and  N_17
REMARK    9  A    between atoms: C_18  and  C_20
REMARK                            x       y       z     vdW  Elec       q    Type
REMARK                         _______ _______ _______ _____ _____    ______ ____
ROOT
ATOM      1  C   UNL     1      45.710   5.221  13.070  0.00  0.00    +0.000 A 
ATOM      2  C   UNL     1      46.797   4.834  13.863  0.00  0.00    +0.000 A 
ATOM      3  C   UNL     1      47.835   5.725  14.126  0.00  0.00    +0.000 A 
ATOM      4  C   UNL     1      47.805   7.021  13.597  0.00  0.00    +0.000 A 
ATOM      5  C   UNL     1      46.726   7.406  12.791  0.00  0.00    +0.000 A 
ATOM      6  C   UNL     1      45.683   6.518  12.538  0.00  0.00    +0.000 A 
ENDROOT
BRANCH   1   7
ATOM      7  C   UNL     1      44.611   4.243  12.749  0.00  0.00    +0.000 C 
BRANCH   7   8
ATOM      8  N   UNL     1      45.049   3.219  11.797  0.00  0.00    +0.000 NA
ATOM      9  H   UNL     1      46.042   3.040  11.934  0.00  0.00    +0.000 HD
BRANCH   8  11
ATOM     10  C   UNL     1      43.570   4.506  10.298  0.00  0.00    +0.000 C 
ATOM     11  C   UNL     1      44.816   3.614  10.395  0.00  0.00    +0.000 C 
BRANCH  11  12
ATOM     12  C   UNL     1      44.675   2.343   9.515  0.00  0.00    +0.000 C 
BRANCH  12  13
ATOM     13  C   UNL     1      45.631   2.321   8.339  0.00  0.00    +0.000 A 
ATOM     14  C   UNL     1      46.387   1.177   8.044  0.00  0.00    +0.000 A 
ATOM     15  C   UNL     1      47.355   1.207   7.039  0.00  0.00    +0.000 A 
ATOM     16  C   UNL     1      47.558   2.370   6.298  0.00  0.00    +0.000 A 
ATOM     17  C   UNL     1      46.782   3.499   6.553  0.00  0.00    +0.000 A 
ATOM     18  C   UNL     1      45.824   3.476   7.568  0.00  0.00    +0.000 A 
ENDBRANCH  12  13
ENDBRANCH  11  12
ENDBRANCH   8  11
ENDBRANCH   7   8
ENDBRANCH   1   7
BRANCH   4  19
ATOM     19  C   UNL     1      48.944   7.975  13.832  0.00  0.00    +0.000 C 
BRANCH  19  20
ATOM     20  N   UNL     1      50.057   7.288  14.432  0.00  0.00    +0.000 N 
ATOM     21  C   UNL     1      50.436   7.538  15.722  0.00  0.00    +0.000 C 
ATOM     22  O   UNL     1      49.843   8.342  16.436  0.00  0.00    +0.000 OA
ATOM     23  H   UNL     1      50.712   6.837  13.800  0.00  0.00    +0.000 HD
BRANCH  21  24
ATOM     24  C   UNL     1      51.553   6.738  16.233  0.00  0.00    +0.000 A 
ATOM     25  C   UNL     1      52.859   7.139  15.985  0.00  0.00    +0.000 A 
ATOM     26  S   UNL     1      54.031   6.124  16.697  0.00  0.00    +0.000 S 
ATOM     27  C   UNL     1      52.834   5.088  17.323  0.00  0.00    +0.000 A 
ATOM     28  N   UNL     1      53.170   3.974  18.028  0.00  0.00    +0.000 NA
ATOM     29  C   UNL     1      52.167   3.267  18.425  0.00  0.00    +0.000 A 
ATOM     30  N   UNL     1      50.851   3.579  18.180  0.00  0.00    +0.000 N 
ATOM     31  C   UNL     1      50.461   4.697  17.494  0.00  0.00    +0.000 A 
ATOM     32  O   UNL     1      49.278   4.966  17.331  0.00  0.00    +0.000 OA
ATOM     33  C   UNL     1      51.559   5.522  17.012  0.00  0.00    +0.000 A 
ATOM     34  H   UNL     1      50.109   2.983  18.524  0.00  0.00    +0.000 HD
ENDBRANCH  21  24
ENDBRANCH  19  20
ENDBRANCH   4  19
TORSDOF 8
ENDMDL
MODEL 5
REMARK VINA RESULT:    -7.860      3.831      9.189
REMARK INTER + INTRA:         -12.507
REMARK INTER:                  -9.203
REMARK INTRA:                  -3.303
REMARK UNBOUND:                -0.970
REMARK  Name = 
REMARK  9 active torsions:
REMARK  status: ('A' for Active; 'I' for Inactive)
REMARK    1  A    between atoms: C_1  and  C_2
REMARK    2  A    between atoms: C_2  and  C_3
REMARK    3  A    between atoms: C_2  and  N_10
REMARK    4  A    between atoms: C_3  and  C_4
REMARK    5  A    between atoms: N_10  and  C_11
REMARK    6  A    between atoms: C_11  and  C_12
REMARK    7  A    between atoms: C_15  and  C_16
REMARK    8  A    between atoms: C_16  and  N_17
REMARK    9  A    between atoms: C_18  and  C_20
REMARK                            x       y       z     vdW  Elec       q    Type
REMARK                         _______ _______ _______ _____ _____    ______ ____
ROOT
ATOM      1  C   UNL     1      48.459   5.705  20.401  0.00  0.00    +0.000 A 
ATOM      2  C   UNL     1      47.316   6.079  19.682  0.00  0.00    +0.000 A 
ATOM      3  C   UNL     1      46.974   5.419  18.504  0.00  0.00    +0.000 A 
ATOM      4  C   UNL     1      47.772   4.375  18.020  0.00  0.00    +0.000 A 
ATOM      5  C   UNL     1      48.923   4.010  18.729  0.00  0.00    +0.000 A 
ATOM      6  C   UNL     1      49.259   4.662  19.913  0.00  0.00    +0.000 A 
ENDROOT
BRANCH   1   7
ATOM      7  C   UNL     1      48.854   6.448  21.650  0.00  0.00    +0.000 C 
BRANCH   7   8
ATOM      8  N   UNL     1      49.125   7.863  21.384  0.00  0.00    +0.000 NA
ATOM      9  H   UNL     1      48.420   8.222  20.743  0.00  0.00    +0.000 HD
BRANCH   8  11
ATOM     10  C   UNL     1      51.378   8.763  21.835  0.00  0.00    +0.000 C 
ATOM     11  C   UNL     1      50.464   8.082  20.806  0.00  0.00    +0.000 C 
BRANCH  11  12
ATOM     12  C   UNL     1      50.338   8.928  19.511  0.00  0.00    +0.000 C 
BRANCH  12  13
ATOM     13  C   UNL     1      50.115   8.088  18.268  0.00  0.00    +0.000 A 
ATOM     14  C   UNL     1      51.024   7.083  17.905  0.00  0.00    +0.000 A 
ATOM     15  C   UNL     1      50.879   6.401  16.694  0.00  0.00    +0.000 A 
ATOM     16  C   UNL     1      49.809   6.695  15.851  0.00  0.00    +0.000 A 
ATOM     17  C   UNL     1      48.876   7.660  16.223  0.00  0.00    +0.000 A 
ATOM     18  C   UNL     1      49.027   8.354  17.425  0.00  0.00    +0.000 A 
ENDBRANCH  12  13
ENDBRANCH  11  12
ENDBRANCH   8  11
ENDBRANCH   7   8
ENDBRANCH   1   7
BRANCH   4  19
ATOM     19  C   UNL     1      47.439   3.691  16.723  0.00  0.00    +0.000 C 
BRANCH  19  20
ATOM     20  N   UNL     1      46.968   4.647  15.757  0.00  0.00    +0.000 N 
ATOM     21  C   UNL     1      46.900   4.340  14.426  0.00  0.00    +0.000 C 
ATOM     22  O   UNL     1      47.219   3.237  13.990  0.00  0.00    +0.000 OA
ATOM     23  H   UNL     1      46.958   5.621  16.043  0.00  0.00    +0.000 HD
BRANCH  21  24
ATOM     24  C   UNL     1      46.355   5.382  13.551  0.00  0.00    +0.000 A 
ATOM     25  C   UNL     1      47.113   6.509  13.267  0.00  0.00    +0.000 A 
ATOM     26  S   UNL     1      46.349   7.591  12.191  0.00  0.00    +0.000 S 
ATOM     27  C   UNL     1      44.961   6.611  12.103  0.00  0.00    +0.000 A 
ATOM     28  N   UNL     1      43.886   6.984  11.357  0.00  0.00    +0.000 NA
ATOM     29  C   UNL     1      42.894   6.160  11.396  0.00  0.00    +0.000 A 
ATOM     30  N   UNL     1      42.883   4.990  12.117  0.00  0.00    +0.000 N 
ATOM     31  C   UNL     1      43.945   4.562  12.866  0.00  0.00    +0.000 A 
ATOM     32  O   UNL     1      43.917   3.493  13.462  0.00  0.00    +0.000 OA
ATOM     33  C   UNL     1      45.087   5.464  12.865  0.00  0.00    +0.000 A 
ATOM     34  H   UNL     1      42.072   4.384  12.102  0.00  0.00    +0.000 HD
ENDBRANCH  21  24
ENDBRANCH  19  20
ENDBRANCH   4  19
TORSDOF 8
ENDMDL
MODEL 6
REMARK VINA RESULT:    -7.604      1.601      2.310
REMARK INTER + INTRA:         -12.131
REMARK INTER:                 -11.281
REMARK INTRA:                  -0.849
REMARK UNBOUND:                -0.970
REMARK  Name = 
REMARK  9 active torsions:
REMARK  status: ('A' for Active; 'I' for Inactive)
REMARK    1  A    between atoms: C_1  and  C_2
REMARK    2  A    between atoms: C_2  and  C_3
REMARK    3  A    between atoms: C_2  and  N_10
REMARK    4  A    between atoms: C_3  and  C_4
REMARK    5  A    between atoms: N_10  and  C_11
REMARK    6  A    between atoms: C_11  and  C_12
REMARK    7  A    between atoms: C_15  and  C_16
REMARK    8  A    between atoms: C_16  and  N_17
REMARK    9  A    between atoms: C_18  and  C_20
REMARK                            x       y       z     vdW  Elec       q    Type
REMARK                         _______ _______ _______ _____ _____    ______ ____
ROOT
ATOM      1  C   UNL     1      46.146   6.412  12.032  0.00  0.00    +0.000 A 
ATOM      2  C   UNL     1      46.281   5.539  13.119  0.00  0.00    +0.000 A 
ATOM      3  C   UNL     1      47.325   5.696  14.029  0.00  0.00    +0.000 A 
ATOM      4  C   UNL     1      48.257   6.729  13.864  0.00  0.00    +0.000 A 
ATOM      5  C   UNL     1      48.132   7.593  12.770  0.00  0.00    +0.000 A 
ATOM      6  C   UNL     1      47.082   7.443  11.867  0.00  0.00    +0.000 A 
ENDROOT
BRANCH   1   7
ATOM      7  C   UNL     1      45.044   6.214  11.025  0.00  0.00    +0.000 C 
BRANCH   7   8
ATOM      8  N   UNL     1      45.395   5.207  10.020  0.00  0.00    +0.000 NA
ATOM      9  H   UNL     1      45.633   5.676   9.149  0.00  0.00    +0.000 HD
BRANCH   8  11
ATOM     10  C   UNL     1      43.239   4.365  10.877  0.00  0.00    +0.000 C 
ATOM     11  C   UNL     1      44.301   4.250   9.774  0.00  0.00    +0.000 C 
BRANCH  11  12
ATOM     12  C   UNL     1      44.879   2.812   9.689  0.00  0.00    +0.000 C 
BRANCH  12  13
ATOM     13  C   UNL     1      45.644   2.550   8.407  0.00  0.00    +0.000 A 
ATOM     14  C   UNL     1      46.320   1.338   8.204  0.00  0.00    +0.000 A 
ATOM     15  C   UNL     1      47.124   1.155   7.078  0.00  0.00    +0.000 A 
ATOM     16  C   UNL     1      47.237   2.168   6.127  0.00  0.00    +0.000 A 
ATOM     17  C   UNL     1      46.534   3.358   6.296  0.00  0.00    +0.000 A 
ATOM     18  C   UNL     1      45.742   3.550   7.429  0.00  0.00    +0.000 A 
ENDBRANCH  12  13
ENDBRANCH  11  12
ENDBRANCH   8  11
ENDBRANCH   7   8
ENDBRANCH   1   7
BRANCH   4  19
ATOM     19  C   UNL     1      49.416   6.877  14.810  0.00  0.00    +0.000 C 
BRANCH  19  20
ATOM     20  N   UNL     1      48.990   6.647  16.165  0.00  0.00    +0.000 N 
ATOM     21  C   UNL     1      49.770   5.951  17.047  0.00  0.00    +0.000 C 
ATOM     22  O   UNL     1      50.872   5.504  16.739  0.00  0.00    +0.000 OA
ATOM     23  H   UNL     1      48.001   6.762  16.361  0.00  0.00    +0.000 HD
BRANCH  21  24
ATOM     24  C   UNL     1      49.248   5.827  18.412  0.00  0.00    +0.000 A 
ATOM     25  C   UNL     1      49.330   4.611  19.074  0.00  0.00    +0.000 A 
ATOM     26  S   UNL     1      48.725   4.660  20.669  0.00  0.00    +0.000 S 
ATOM     27  C   UNL     1      48.291   6.298  20.513  0.00  0.00    +0.000 A 
ATOM     28  N   UNL     1      47.681   6.962  21.532  0.00  0.00    +0.000 NA
ATOM     29  C   UNL     1      47.388   8.191  21.273  0.00  0.00    +0.000 A 
ATOM     30  N   UNL     1      47.655   8.818  20.079  0.00  0.00    +0.000 N 
ATOM     31  C   UNL     1      48.284   8.201  19.033  0.00  0.00    +0.000 A 
ATOM     32  O   UNL     1      48.543   8.802  17.998  0.00  0.00    +0.000 OA
ATOM     33  C   UNL     1      48.624   6.806  19.271  0.00  0.00    +0.000 A 
ATOM     34  H   UNL     1      47.402   9.789  19.941  0.00  0.00    +0.000 HD
ENDBRANCH  21  24
ENDBRANCH  19  20
ENDBRANCH   4  19
TORSDOF 8
ENDMDL
MODEL 7
REMARK VINA RESULT:    -7.539      2.603      3.172
REMARK INTER + INTRA:         -12.035
REMARK INTER:                 -11.047
REMARK INTRA:                  -0.987
REMARK UNBOUND:                -0.970
REMARK  Name = 
REMARK  9 active torsions:
REMARK  status: ('A' for Active; 'I' for Inactive)
REMARK    1  A    between atoms: C_1  and  C_2
REMARK    2  A    between atoms: C_2  and  C_3
REMARK    3  A    between atoms: C_2  and  N_10
REMARK    4  A    between atoms: C_3  and  C_4
REMARK    5  A    between atoms: N_10  and  C_11
REMARK    6  A    between atoms: C_11  and  C_12
REMARK    7  A    between atoms: C_15  and  C_16
REMARK    8  A    between atoms: C_16  and  N_17
REMARK    9  A    between atoms: C_18  and  C_20
REMARK                            x       y       z     vdW  Elec       q    Type
REMARK                         _______ _______ _______ _____ _____    ______ ____
ROOT
ATOM      1  C   UNL     1      46.109   6.721  12.120  0.00  0.00    +0.000 A 
ATOM      2  C   UNL     1      47.067   5.890  12.715  0.00  0.00    +0.000 A 
ATOM      3  C   UNL     1      47.919   6.385  13.700  0.00  0.00    +0.000 A 
ATOM      4  C   UNL     1      47.830   7.722  14.106  0.00  0.00    +0.000 A 
ATOM      5  C   UNL     1      46.883   8.558  13.501  0.00  0.00    +0.000 A 
ATOM      6  C   UNL     1      46.024   8.060  12.525  0.00  0.00    +0.000 A 
ENDROOT
BRANCH   1   7
ATOM      7  C   UNL     1      45.218   6.197  11.024  0.00  0.00    +0.000 C 
BRANCH   7   8
ATOM      8  N   UNL     1      45.472   4.782  10.740  0.00  0.00    +0.000 NA
ATOM      9  H   UNL     1      46.250   4.708  10.089  0.00  0.00    +0.000 HD
BRANCH   8  11
ATOM     10  C   UNL     1      43.130   4.137  11.171  0.00  0.00    +0.000 C 
ATOM     11  C   UNL     1      44.295   4.099  10.173  0.00  0.00    +0.000 C 
BRANCH  11  12
ATOM     12  C   UNL     1      44.673   2.642   9.795  0.00  0.00    +0.000 C 
BRANCH  12  13
ATOM     13  C   UNL     1      45.576   2.555   8.580  0.00  0.00    +0.000 A 
ATOM     14  C   UNL     1      45.744   3.654   7.725  0.00  0.00    +0.000 A 
ATOM     15  C   UNL     1      46.475   3.526   6.542  0.00  0.00    +0.000 A 
ATOM     16  C   UNL     1      47.072   2.309   6.218  0.00  0.00    +0.000 A 
ATOM     17  C   UNL     1      46.949   1.224   7.082  0.00  0.00    +0.000 A 
ATOM     18  C   UNL     1      46.205   1.344   8.257  0.00  0.00    +0.000 A 
ENDBRANCH  12  13
ENDBRANCH  11  12
ENDBRANCH   8  11
ENDBRANCH   7   8
ENDBRANCH   1   7
BRANCH   4  19
ATOM     19  C   UNL     1      48.778   8.279  15.131  0.00  0.00    +0.000 C 
BRANCH  19  20
ATOM     20  N   UNL     1      49.690   7.260  15.577  0.00  0.00    +0.000 N 
ATOM     21  C   UNL     1      49.834   6.966  16.906  0.00  0.00    +0.000 C 
ATOM     22  O   UNL     1      49.187   7.539  17.778  0.00  0.00    +0.000 OA
ATOM     23  H   UNL     1      50.412   6.972  14.924  0.00  0.00    +0.000 HD
BRANCH  21  24
ATOM     24  C   UNL     1      50.757   5.874  17.228  0.00  0.00    +0.000 A 
ATOM     25  C   UNL     1      52.061   6.161  17.604  0.00  0.00    +0.000 A 
ATOM     26  S   UNL     1      52.979   4.778  17.996  0.00  0.00    +0.000 S 
ATOM     27  C   UNL     1      51.678   3.743  17.632  0.00  0.00    +0.000 A 
ATOM     28  N   UNL     1      51.808   2.392  17.729  0.00  0.00    +0.000 NA
ATOM     29  C   UNL     1      50.752   1.727  17.404  0.00  0.00    +0.000 A 
ATOM     30  N   UNL     1      49.571   2.296  16.990  0.00  0.00    +0.000 N 
ATOM     31  C   UNL     1      49.384   3.648  16.896  0.00  0.00    +0.000 A 
ATOM     32  O   UNL     1      48.306   4.122  16.564  0.00  0.00    +0.000 OA
ATOM     33  C   UNL     1      50.553   4.444  17.240  0.00  0.00    +0.000 A 
ATOM     34  H   UNL     1      48.776   1.715  16.753  0.00  0.00    +0.000 HD
ENDBRANCH  21  24
ENDBRANCH  19  20
ENDBRANCH   4  19
TORSDOF 8
ENDMDL
MODEL 8
REMARK VINA RESULT:    -7.367      4.222      9.451
REMARK INTER + INTRA:         -11.782
REMARK INTER:                  -9.772
REMARK INTRA:                  -2.010
REMARK UNBOUND:                -0.970
REMARK  Name = 
REMARK  9 active torsions:
REMARK  status: ('A' for Active; 'I' for Inactive)
REMARK    1  A    between atoms: C_1  and  C_2
REMARK    2  A    between atoms: C_2  and  C_3
REMARK    3  A    between atoms: C_2  and  N_10
REMARK    4  A    between atoms: C_3  and  C_4
REMARK    5  A    between atoms: N_10  and  C_11
REMARK    6  A    between atoms: C_11  and  C_12
REMARK    7  A    between atoms: C_15  and  C_16
REMARK    8  A    between atoms: C_16  and  N_17
REMARK    9  A    between atoms: C_18  and  C_20
REMARK                            x       y       z     vdW  Elec       q    Type
REMARK                         _______ _______ _______ _____ _____    ______ ____
ROOT
ATOM      1  C   UNL     1      50.140   6.042  19.188  0.00  0.00    +0.000 A 
ATOM      2  C   UNL     1      49.329   5.019  19.695  0.00  0.00    +0.000 A 
ATOM      3  C   UNL     1      48.492   4.293  18.850  0.00  0.00    +0.000 A 
ATOM      4  C   UNL     1      48.449   4.582  17.480  0.00  0.00    +0.000 A 
ATOM      5  C   UNL     1      49.247   5.614  16.973  0.00  0.00    +0.000 A 
ATOM      6  C   UNL     1      50.092   6.331  17.817  0.00  0.00    +0.000 A 
ENDROOT
BRANCH   1   7
ATOM      7  C   UNL     1      51.011   6.855  20.109  0.00  0.00    +0.000 C 
BRANCH   7   8
ATOM      8  N   UNL     1      52.436   6.661  19.829  0.00  0.00    +0.000 NA
ATOM      9  H   UNL     1      52.628   6.944  18.871  0.00  0.00    +0.000 HD
BRANCH   8  11
ATOM     10  C   UNL     1      53.849   5.166  21.193  0.00  0.00    +0.000 C 
ATOM     11  C   UNL     1      52.864   5.263  20.019  0.00  0.00    +0.000 C 
BRANCH  11  12
ATOM     12  C   UNL     1      53.492   4.730  18.704  0.00  0.00    +0.000 C 
BRANCH  12  13
ATOM     13  C   UNL     1      53.067   3.313  18.369  0.00  0.00    +0.000 A 
ATOM     14  C   UNL     1      53.940   2.233  18.565  0.00  0.00    +0.000 A 
ATOM     15  C   UNL     1      53.587   0.951  18.137  0.00  0.00    +0.000 A 
ATOM     16  C   UNL     1      52.348   0.731  17.538  0.00  0.00    +0.000 A 
ATOM     17  C   UNL     1      51.456   1.788  17.380  0.00  0.00    +0.000 A 
ATOM     18  C   UNL     1      51.813   3.073  17.792  0.00  0.00    +0.000 A 
ENDBRANCH  12  13
ENDBRANCH  11  12
ENDBRANCH   8  11
ENDBRANCH   7   8
ENDBRANCH   1   7
BRANCH   4  19
ATOM     19  C   UNL     1      47.512   3.840  16.567  0.00  0.00    +0.000 C 
BRANCH  19  20
ATOM     20  N   UNL     1      46.926   4.740  15.610  0.00  0.00    +0.000 N 
ATOM     21  C   UNL     1      46.805   4.396  14.292  0.00  0.00    +0.000 C 
ATOM     22  O   UNL     1      47.172   3.306  13.861  0.00  0.00    +0.000 OA
ATOM     23  H   UNL     1      46.867   5.718  15.876  0.00  0.00    +0.000 HD
BRANCH  21  24
ATOM     24  C   UNL     1      46.145   5.379  13.427  0.00  0.00    +0.000 A 
ATOM     25  C   UNL     1      46.806   6.550  13.084  0.00  0.00    +0.000 A 
ATOM     26  S   UNL     1      45.915   7.554  12.030  0.00  0.00    +0.000 S 
ATOM     27  C   UNL     1      44.596   6.478  12.032  0.00  0.00    +0.000 A 
ATOM     28  N   UNL     1      43.461   6.759  11.336  0.00  0.00    +0.000 NA
ATOM     29  C   UNL     1      42.533   5.870  11.441  0.00  0.00    +0.000 A 
ATOM     30  N   UNL     1      42.641   4.718  12.183  0.00  0.00    +0.000 N 
ATOM     31  C   UNL     1      43.767   4.380  12.883  0.00  0.00    +0.000 A 
ATOM     32  O   UNL     1      43.844   3.325  13.499  0.00  0.00    +0.000 OA
ATOM     33  C   UNL     1      44.841   5.359  12.807  0.00  0.00    +0.000 A 
ATOM     34  H   UNL     1      41.875   4.057  12.220  0.00  0.00    +0.000 HD
ENDBRANCH  21  24
ENDBRANCH  19  20
ENDBRANCH   4  19
TORSDOF 8
ENDMDL
MODEL 9
REMARK VINA RESULT:    -7.100      4.812      6.933
REMARK INTER + INTRA:         -11.390
REMARK INTER:                 -10.411
REMARK INTRA:                  -0.979
REMARK UNBOUND:                -0.970
REMARK  Name = 
REMARK  9 active torsions:
REMARK  status: ('A' for Active; 'I' for Inactive)
REMARK    1  A    between atoms: C_1  and  C_2
REMARK    2  A    between atoms: C_2  and  C_3
REMARK    3  A    between atoms: C_2  and  N_10
REMARK    4  A    between atoms: C_3  and  C_4
REMARK    5  A    between atoms: N_10  and  C_11
REMARK    6  A    between atoms: C_11  and  C_12
REMARK    7  A    between atoms: C_15  and  C_16
REMARK    8  A    between atoms: C_16  and  N_17
REMARK    9  A    between atoms: C_18  and  C_20
REMARK                            x       y       z     vdW  Elec       q    Type
REMARK                         _______ _______ _______ _____ _____    ______ ____
ROOT
ATOM      1  C   UNL     1      44.933   7.748  11.895  0.00  0.00    +0.000 A 
ATOM      2  C   UNL     1      44.240   6.534  11.806  0.00  0.00    +0.000 A 
ATOM      3  C   UNL     1      44.676   5.416  12.515  0.00  0.00    +0.000 A 
ATOM      4  C   UNL     1      45.817   5.492  13.323  0.00  0.00    +0.000 A 
ATOM      5  C   UNL     1      46.520   6.701  13.401  0.00  0.00    +0.000 A 
ATOM      6  C   UNL     1      46.077   7.821  12.702  0.00  0.00    +0.000 A 
ENDROOT
BRANCH   1   7
ATOM      7  C   UNL     1      44.487   8.943  11.094  0.00  0.00    +0.000 C 
BRANCH   7   8
ATOM      8  N   UNL     1      43.048   8.911  10.818  0.00  0.00    +0.000 NA
ATOM      9  H   UNL     1      42.848   8.141  10.183  0.00  0.00    +0.000 HD
BRANCH   8  11
ATOM     10  C   UNL     1      43.629  10.773   9.306  0.00  0.00    +0.000 C 
ATOM     11  C   UNL     1      42.558  10.170  10.226  0.00  0.00    +0.000 C 
BRANCH  11  12
ATOM     12  C   UNL     1      42.160  11.155  11.358  0.00  0.00    +0.000 C 
BRANCH  12  13
ATOM     13  C   UNL     1      40.673  11.156  11.654  0.00  0.00    +0.000 A 
ATOM     14  C   UNL     1      40.161  11.823  12.777  0.00  0.00    +0.000 A 
ATOM     15  C   UNL     1      38.810  11.713  13.111  0.00  0.00    +0.000 A 
ATOM     16  C   UNL     1      37.951  10.962  12.310  0.00  0.00    +0.000 A 
ATOM     17  C   UNL     1      38.440  10.333  11.168  0.00  0.00    +0.000 A 
ATOM     18  C   UNL     1      39.794  10.428  10.841  0.00  0.00    +0.000 A 
ENDBRANCH  12  13
ENDBRANCH  11  12
ENDBRANCH   8  11
ENDBRANCH   7   8
ENDBRANCH   1   7
BRANCH   4  19
ATOM     19  C   UNL     1      46.326   4.280  14.051  0.00  0.00    +0.000 C 
BRANCH  19  20
ATOM     20  N   UNL     1      47.376   4.646  14.964  0.00  0.00    +0.000 N 
ATOM     21  C   UNL     1      47.378   4.207  16.260  0.00  0.00    +0.000 C 
ATOM     22  O   UNL     1      46.502   3.471  16.705  0.00  0.00    +0.000 OA
ATOM     23  H   UNL     1      47.946   5.447  14.710  0.00  0.00    +0.000 HD
BRANCH  21  24
ATOM     24  C   UNL     1      48.529   4.608  17.074  0.00  0.00    +0.000 A 
ATOM     25  C   UNL     1      48.560   5.870  17.651  0.00  0.00    +0.000 A 
ATOM     26  S   UNL     1      49.944   6.150  18.609  0.00  0.00    +0.000 S 
ATOM     27  C   UNL     1      50.572   4.610  18.248  0.00  0.00    +0.000 A 
ATOM     28  N   UNL     1      51.778   4.212  18.738  0.00  0.00    +0.000 NA
ATOM     29  C   UNL     1      52.144   3.032  18.370  0.00  0.00    +0.000 A 
ATOM     30  N   UNL     1      51.406   2.208  17.553  0.00  0.00    +0.000 N 
ATOM     31  C   UNL     1      50.181   2.554  17.052  0.00  0.00    +0.000 A 
ATOM     32  O   UNL     1      49.531   1.779  16.361  0.00  0.00    +0.000 OA
ATOM     33  C   UNL     1      49.728   3.884  17.428  0.00  0.00    +0.000 A 
ATOM     34  H   UNL     1      51.749   1.289  17.304  0.00  0.00    +0.000 HD
ENDBRANCH  21  24
ENDBRANCH  19  20
ENDBRANCH   4  19
TORSDOF 8
ENDMDL
