MODEL 1
REMARK VINA RESULT:    -8.246      0.000      0.000
REMARK INTER + INTRA:         -12.782
REMARK INTER:                 -11.621
REMARK INTRA:                  -1.161
REMARK UNBOUND:                -1.161
REMARK  Name = 
REMARK  9 active torsions:
REMARK  status: ('A' for Active; 'I' for Inactive)
REMARK    1  A    between atoms: C_1  and  C_2
REMARK    2  A    between atoms: C_2  and  N_3
REMARK    3  A    between atoms: C_2  and  C_11
REMARK    4  A    between atoms: N_3  and  C_4
REMARK    5  A    between atoms: C_4  and  C_5
REMARK    6  A    between atoms: C_14  and  C_15
REMARK    7  A    between atoms: C_15  and  N_16
REMARK    8  A    between atoms: N_16  and  C_17
REMARK    9  A    between atoms: C_18  and  C_20
REMARK                            x       y       z     vdW  Elec       q    Type
REMARK                         _______ _______ _______ _____ _____    ______ ____
ROOT
ATOM      1  C   UNL     1      45.600   4.851  12.238  0.00  0.00    +0.000 A 
ATOM      2  C   UNL     1      46.106   5.979  11.578  0.00  0.00    +0.000 A 
ATOM      3  C   UNL     1      47.117   6.760  12.140  0.00  0.00    +0.000 A 
ATOM      4  C   UNL     1      47.679   6.430  13.378  0.00  0.00    +0.000 A 
ATOM      5  C   UNL     1      47.163   5.336  14.073  0.00  0.00    +0.000 A 
ATOM      6  C   UNL     1      46.115   4.582  13.523  0.00  0.00    +0.000 A 
ENDROOT
BRANCH   1   8
ATOM      7  C   UNL     1      43.615   4.734  10.626  0.00  0.00    +0.000 C 
ATOM      8  C   UNL     1      44.494   3.975  11.636  0.00  0.00    +0.000 C 
BRANCH   8   9
ATOM      9  N   UNL     1      44.979   2.778  10.918  0.00  0.00    +0.000 NA
ATOM     10  H   UNL     1      44.722   1.943  11.445  0.00  0.00    +0.000 HD
BRANCH   9  11
ATOM     11  C   UNL     1      44.455   2.651   9.555  0.00  0.00    +0.000 C 
BRANCH  11  12
ATOM     12  C   UNL     1      45.511   2.482   8.482  0.00  0.00    +0.000 A 
ATOM     13  C   UNL     1      45.798   3.500   7.577  0.00  0.00    +0.000 A 
ATOM     14  C   UNL     1      46.719   3.253   6.560  0.00  0.00    +0.000 A 
ATOM     15  C   UNL     1      47.326   2.005   6.473  0.00  0.00    +0.000 A 
ATOM     16  C   UNL     1      46.989   1.049   7.413  0.00  0.00    +0.000 A 
ATOM     17  N   UNL     1      46.104   1.260   8.409  0.00  0.00    +0.000 NA
ENDBRANCH  11  12
ENDBRANCH   9  11
ENDBRANCH   8   9
ENDBRANCH   1   8
BRANCH   4  18
ATOM     18  C   UNL     1      48.832   7.238  13.918  0.00  0.00    +0.000 C 
BRANCH  18  19
ATOM     19  N   UNL     1      48.741   7.651  15.319  0.00  0.00    +0.000 N 
ATOM     20  C   UNL     1      48.030   8.883  15.641  0.00  0.00    +0.000 C 
ATOM     21  C   UNL     1      49.593   6.969  16.208  0.00  0.00    +0.000 C 
ATOM     22  O   UNL     1      50.313   6.056  15.812  0.00  0.00    +0.000 OA
BRANCH  21  23
ATOM     23  C   UNL     1      49.580   7.308  17.638  0.00  0.00    +0.000 A 
ATOM     24  C   UNL     1      50.315   8.333  18.208  0.00  0.00    +0.000 A 
ATOM     25  S   UNL     1      50.050   8.513  19.884  0.00  0.00    +0.000 S 
ATOM     26  C   UNL     1      48.837   7.322  19.875  0.00  0.00    +0.000 A 
ATOM     27  N   UNL     1      48.116   7.050  20.997  0.00  0.00    +0.000 NA
ATOM     28  C   UNL     1      47.189   6.167  20.825  0.00  0.00    +0.000 A 
ATOM     29  N   UNL     1      46.937   5.512  19.645  0.00  0.00    +0.000 N 
ATOM     30  C   UNL     1      47.730   5.655  18.526  0.00  0.00    +0.000 A 
ATOM     31  O   UNL     1      47.626   4.877  17.583  0.00  0.00    +0.000 OA
ATOM     32  C   UNL     1      48.707   6.726  18.634  0.00  0.00    +0.000 A 
ATOM     33  H   UNL     1      46.244   4.781  19.600  0.00  0.00    +0.000 HD
ENDBRANCH  21  23
ENDBRANCH  18  19
ENDBRANCH   4  18
TORSDOF 7
ENDMDL
MODEL 2
REMARK VINA RESULT:    -7.387      1.439      1.681
REMARK INTER + INTRA:         -11.571
REMARK INTER:                 -10.517
REMARK INTRA:                  -1.054
REMARK UNBOUND:                -1.161
REMARK  Name = 
REMARK  9 active torsions:
REMARK  status: ('A' for Active; 'I' for Inactive)
REMARK    1  A    between atoms: C_1  and  C_2
REMARK    2  A    between atoms: C_2  and  N_3
REMARK    3  A    between atoms: C_2  and  C_11
REMARK    4  A    between atoms: N_3  and  C_4
REMARK    5  A    between atoms: C_4  and  C_5
REMARK    6  A    between atoms: C_14  and  C_15
REMARK    7  A    between atoms: C_15  and  N_16
REMARK    8  A    between atoms: N_16  and  C_17
REMARK    9  A    between atoms: C_18  and  C_20
REMARK                            x       y       z     vdW  Elec       q    Type
REMARK                         _______ _______ _______ _____ _____    ______ ____
ROOT
ATOM      1  C   UNL     1      45.291   6.180  11.966  0.00  0.00    +0.000 A 
ATOM      2  C   UNL     1      46.521   5.655  12.387  0.00  0.00    +0.000 A 
ATOM      3  C   UNL     1      47.504   6.467  12.954  0.00  0.00    +0.000 A 
ATOM      4  C   UNL     1      47.287   7.835  13.145  0.00  0.00    +0.000 A 
ATOM      5  C   UNL     1      46.087   8.389  12.697  0.00  0.00    +0.000 A 
ATOM      6  C   UNL     1      45.121   7.575  12.086  0.00  0.00    +0.000 A 
ENDROOT
BRANCH   1   8
ATOM      7  C   UNL     1      42.810   5.978  11.371  0.00  0.00    +0.000 C 
ATOM      8  C   UNL     1      44.194   5.306  11.347  0.00  0.00    +0.000 C 
BRANCH   8   9
ATOM      9  N   UNL     1      44.427   4.931   9.936  0.00  0.00    +0.000 NA
ATOM     10  H   UNL     1      45.348   5.262   9.649  0.00  0.00    +0.000 HD
BRANCH   9  11
ATOM     11  C   UNL     1      44.349   3.490   9.685  0.00  0.00    +0.000 C 
BRANCH  11  12
ATOM     12  C   UNL     1      45.371   2.962   8.697  0.00  0.00    +0.000 A 
ATOM     13  C   UNL     1      45.901   3.772   7.697  0.00  0.00    +0.000 A 
ATOM     14  C   UNL     1      46.771   3.205   6.767  0.00  0.00    +0.000 A 
ATOM     15  C   UNL     1      47.087   1.854   6.858  0.00  0.00    +0.000 A 
ATOM     16  C   UNL     1      46.521   1.120   7.883  0.00  0.00    +0.000 A 
ATOM     17  N   UNL     1      45.679   1.641   8.798  0.00  0.00    +0.000 NA
ENDBRANCH  11  12
ENDBRANCH   9  11
ENDBRANCH   8   9
ENDBRANCH   1   8
BRANCH   4  18
ATOM     18  C   UNL     1      48.330   8.671  13.844  0.00  0.00    +0.000 C 
BRANCH  18  19
ATOM     19  N   UNL     1      48.603   8.340  15.243  0.00  0.00    +0.000 N 
ATOM     20  C   UNL     1      47.874   9.052  16.287  0.00  0.00    +0.000 C 
ATOM     21  C   UNL     1      49.753   7.560  15.467  0.00  0.00    +0.000 C 
ATOM     22  O   UNL     1      50.431   7.156  14.527  0.00  0.00    +0.000 OA
BRANCH  21  23
ATOM     23  C   UNL     1      50.117   7.172  16.838  0.00  0.00    +0.000 A 
ATOM     24  C   UNL     1      50.957   7.901  17.663  0.00  0.00    +0.000 A 
ATOM     25  S   UNL     1      51.148   7.221  19.216  0.00  0.00    +0.000 S 
ATOM     26  C   UNL     1      50.002   6.009  18.884  0.00  0.00    +0.000 A 
ATOM     27  N   UNL     1      49.615   5.131  19.849  0.00  0.00    +0.000 NA
ATOM     28  C   UNL     1      48.695   4.306  19.471  0.00  0.00    +0.000 A 
ATOM     29  N   UNL     1      48.149   4.262  18.213  0.00  0.00    +0.000 N 
ATOM     30  C   UNL     1      48.609   5.037  17.170  0.00  0.00    +0.000 A 
ATOM     31  O   UNL     1      48.272   4.795  16.015  0.00  0.00    +0.000 OA
ATOM     32  C   UNL     1      49.556   6.062  17.576  0.00  0.00    +0.000 A 
ATOM     33  H   UNL     1      47.484   3.545  17.965  0.00  0.00    +0.000 HD
ENDBRANCH  21  23
ENDBRANCH  18  19
ENDBRANCH   4  18
TORSDOF 7
ENDMDL
MODEL 3
REMARK VINA RESULT:    -7.335      1.539      2.457
REMARK INTER + INTRA:         -11.498
REMARK INTER:                 -10.446
REMARK INTRA:                  -1.052
REMARK UNBOUND:                -1.161
REMARK  Name = 
REMARK  9 active torsions:
REMARK  status: ('A' for Active; 'I' for Inactive)
REMARK    1  A    between atoms: C_1  and  C_2
REMARK    2  A    between atoms: C_2  and  N_3
REMARK    3  A    between atoms: C_2  and  C_11
REMARK    4  A    between atoms: N_3  and  C_4
REMARK    5  A    between atoms: C_4  and  C_5
REMARK    6  A    between atoms: C_14  and  C_15
REMARK    7  A    between atoms: C_15  and  N_16
REMARK    8  A    between atoms: N_16  and  C_17
REMARK    9  A    between atoms: C_18  and  C_20
REMARK                            x       y       z     vdW  Elec       q    Type
REMARK                         _______ _______ _______ _____ _____    ______ ____
ROOT
ATOM      1  C   UNL     1      45.447   5.451  11.992  0.00  0.00    +0.000 A 
ATOM      2  C   UNL     1      45.866   4.919  13.220  0.00  0.00    +0.000 A 
ATOM      3  C   UNL     1      47.021   5.376  13.856  0.00  0.00    +0.000 A 
ATOM      4  C   UNL     1      47.793   6.401  13.299  0.00  0.00    +0.000 A 
ATOM      5  C   UNL     1      47.419   6.918  12.058  0.00  0.00    +0.000 A 
ATOM      6  C   UNL     1      46.282   6.422  11.403  0.00  0.00    +0.000 A 
ENDROOT
BRANCH   1   8
ATOM      7  C   UNL     1      43.013   5.970  11.392  0.00  0.00    +0.000 C 
ATOM      8  C   UNL     1      44.177   4.969  11.280  0.00  0.00    +0.000 C 
BRANCH   8   9
ATOM      9  N   UNL     1      44.342   4.714   9.833  0.00  0.00    +0.000 NA
ATOM     10  H   UNL     1      45.216   5.132   9.516  0.00  0.00    +0.000 HD
BRANCH   9  11
ATOM     11  C   UNL     1      44.348   3.292   9.479  0.00  0.00    +0.000 C 
BRANCH  11  12
ATOM     12  C   UNL     1      45.365   2.905   8.424  0.00  0.00    +0.000 A 
ATOM     13  C   UNL     1      45.961   1.648   8.415  0.00  0.00    +0.000 A 
ATOM     14  C   UNL     1      46.952   1.383   7.471  0.00  0.00    +0.000 A 
ATOM     15  C   UNL     1      47.319   2.373   6.566  0.00  0.00    +0.000 A 
ATOM     16  C   UNL     1      46.676   3.594   6.639  0.00  0.00    +0.000 A 
ATOM     17  N   UNL     1      45.713   3.878   7.539  0.00  0.00    +0.000 NA
ENDBRANCH  11  12
ENDBRANCH   9  11
ENDBRANCH   8   9
ENDBRANCH   1   8
BRANCH   4  18
ATOM     18  C   UNL     1      48.984   6.938  14.052  0.00  0.00    +0.000 C 
BRANCH  18  19
ATOM     19  N   UNL     1      48.738   7.408  15.416  0.00  0.00    +0.000 N 
ATOM     20  C   UNL     1      48.340   8.797  15.618  0.00  0.00    +0.000 C 
ATOM     21  C   UNL     1      49.182   6.552  16.441  0.00  0.00    +0.000 C 
ATOM     22  O   UNL     1      49.689   5.465  16.175  0.00  0.00    +0.000 OA
BRANCH  21  23
ATOM     23  C   UNL     1      48.983   6.930  17.847  0.00  0.00    +0.000 A 
ATOM     24  C   UNL     1      47.842   6.652  18.580  0.00  0.00    +0.000 A 
ATOM     25  S   UNL     1      47.928   7.174  20.202  0.00  0.00    +0.000 S 
ATOM     26  C   UNL     1      49.547   7.658  20.016  0.00  0.00    +0.000 A 
ATOM     27  N   UNL     1      50.267   8.113  21.079  0.00  0.00    +0.000 NA
ATOM     28  C   UNL     1      51.499   8.386  20.801  0.00  0.00    +0.000 A 
ATOM     29  N   UNL     1      52.067   8.272  19.556  0.00  0.00    +0.000 N 
ATOM     30  C   UNL     1      51.341   7.951  18.429  0.00  0.00    +0.000 A 
ATOM     31  O   UNL     1      51.824   8.102  17.311  0.00  0.00    +0.000 OA
ATOM     32  C   UNL     1      49.983   7.517  18.712  0.00  0.00    +0.000 A 
ATOM     33  H   UNL     1      53.017   8.571  19.395  0.00  0.00    +0.000 HD
ENDBRANCH  21  23
ENDBRANCH  18  19
ENDBRANCH   4  18
TORSDOF 7
ENDMDL
MODEL 4
REMARK VINA RESULT:    -7.123      3.809      4.443
REMARK INTER + INTRA:         -11.199
REMARK INTER:                 -10.163
REMARK INTRA:                  -1.036
REMARK UNBOUND:                -1.161
REMARK  Name = 
REMARK  9 active torsions:
REMARK  status: ('A' for Active; 'I' for Inactive)
REMARK    1  A    between atoms: C_1  and  C_2
REMARK    2  A    between atoms: C_2  and  N_3
REMARK    3  A    between atoms: C_2  and  C_11
REMARK    4  A    between atoms: N_3  and  C_4
REMARK    5  A    between atoms: C_4  and  C_5
REMARK    6  A    between atoms: C_14  and  C_15
REMARK    7  A    between atoms: C_15  and  N_16
REMARK    8  A    between atoms: N_16  and  C_17
REMARK    9  A    between atoms: C_18  and  C_20
REMARK                            x       y       z     vdW  Elec       q    Type
REMARK                         _______ _______ _______ _____ _____    ______ ____
ROOT
ATOM      1  C   UNL     1      46.995   5.053  14.153  0.00  0.00    +0.000 A 
ATOM      2  C   UNL     1      47.739   6.241  14.117  0.00  0.00    +0.000 A 
ATOM      3  C   UNL     1      48.481   6.670  15.218  0.00  0.00    +0.000 A 
ATOM      4  C   UNL     1      48.527   5.915  16.395  0.00  0.00    +0.000 A 
ATOM      5  C   UNL     1      47.762   4.750  16.469  0.00  0.00    +0.000 A 
ATOM      6  C   UNL     1      46.982   4.349  15.374  0.00  0.00    +0.000 A 
ENDROOT
BRANCH   1   8
ATOM      7  C   UNL     1      44.697   4.320  13.296  0.00  0.00    +0.000 C 
ATOM      8  C   UNL     1      46.178   4.560  12.953  0.00  0.00    +0.000 C 
BRANCH   8   9
ATOM      9  N   UNL     1      46.172   5.476  11.793  0.00  0.00    +0.000 NA
ATOM     10  H   UNL     1      47.028   5.343  11.255  0.00  0.00    +0.000 HD
BRANCH   9  11
ATOM     11  C   UNL     1      45.025   5.293  10.899  0.00  0.00    +0.000 C 
BRANCH  11  12
ATOM     12  C   UNL     1      45.274   4.360   9.731  0.00  0.00    +0.000 A 
ATOM     13  C   UNL     1      44.948   3.008   9.798  0.00  0.00    +0.000 A 
ATOM     14  C   UNL     1      45.281   2.185   8.723  0.00  0.00    +0.000 A 
ATOM     15  C   UNL     1      45.924   2.728   7.617  0.00  0.00    +0.000 A 
ATOM     16  C   UNL     1      46.209   4.080   7.627  0.00  0.00    +0.000 A 
ATOM     17  N   UNL     1      45.898   4.902   8.651  0.00  0.00    +0.000 NA
ENDBRANCH  11  12
ENDBRANCH   9  11
ENDBRANCH   8   9
ENDBRANCH   1   8
BRANCH   4  18
ATOM     18  C   UNL     1      49.410   6.355  17.535  0.00  0.00    +0.000 C 
BRANCH  18  19
ATOM     19  N   UNL     1      50.336   5.356  18.069  0.00  0.00    +0.000 N 
ATOM     20  C   UNL     1      50.102   4.828  19.409  0.00  0.00    +0.000 C 
ATOM     21  C   UNL     1      51.536   5.199  17.351  0.00  0.00    +0.000 C 
ATOM     22  O   UNL     1      51.739   5.834  16.320  0.00  0.00    +0.000 OA
BRANCH  21  23
ATOM     23  C   UNL     1      52.535   4.219  17.803  0.00  0.00    +0.000 A 
ATOM     24  C   UNL     1      53.727   4.546  18.426  0.00  0.00    +0.000 A 
ATOM     25  S   UNL     1      54.655   3.188  18.879  0.00  0.00    +0.000 S 
ATOM     26  C   UNL     1      53.429   2.118  18.387  0.00  0.00    +0.000 A 
ATOM     27  N   UNL     1      53.545   0.778  18.595  0.00  0.00    +0.000 NA
ATOM     28  C   UNL     1      52.511   0.097  18.226  0.00  0.00    +0.000 A 
ATOM     29  N   UNL     1      51.387   0.629  17.644  0.00  0.00    +0.000 N 
ATOM     30  C   UNL     1      51.286   1.957  17.289  0.00  0.00    +0.000 A 
ATOM     31  O   UNL     1      50.380   2.340  16.555  0.00  0.00    +0.000 OA
ATOM     32  C   UNL     1      52.370   2.782  17.795  0.00  0.00    +0.000 A 
ATOM     33  H   UNL     1      50.645   0.030  17.315  0.00  0.00    +0.000 HD
ENDBRANCH  21  23
ENDBRANCH  18  19
ENDBRANCH   4  18
TORSDOF 7
ENDMDL
MODEL 5
REMARK VINA RESULT:    -6.376      4.495      6.130
REMARK INTER + INTRA:         -10.146
REMARK INTER:                  -9.036
REMARK INTRA:                  -1.110
REMARK UNBOUND:                -1.161
REMARK  Name = 
REMARK  9 active torsions:
REMARK  status: ('A' for Active; 'I' for Inactive)
REMARK    1  A    between atoms: C_1  and  C_2
REMARK    2  A    between atoms: C_2  and  N_3
REMARK    3  A    between atoms: C_2  and  C_11
REMARK    4  A    between atoms: N_3  and  C_4
REMARK    5  A    between atoms: C_4  and  C_5
REMARK    6  A    between atoms: C_14  and  C_15
REMARK    7  A    between atoms: C_15  and  N_16
REMARK    8  A    between atoms: N_16  and  C_17
REMARK    9  A    between atoms: C_18  and  C_20
REMARK                            x       y       z     vdW  Elec       q    Type
REMARK                         _______ _______ _______ _____ _____    ______ ____
ROOT
ATOM      1  C   UNL     1      45.465   6.575  12.351  0.00  0.00    +0.000 A 
ATOM      2  C   UNL     1      44.973   7.887  12.368  0.00  0.00    +0.000 A 
ATOM      3  C   UNL     1      45.795   8.970  12.684  0.00  0.00    +0.000 A 
ATOM      4  C   UNL     1      47.151   8.785  12.974  0.00  0.00    +0.000 A 
ATOM      5  C   UNL     1      47.655   7.483  13.004  0.00  0.00    +0.000 A 
ATOM      6  C   UNL     1      46.811   6.396  12.730  0.00  0.00    +0.000 A 
ENDROOT
BRANCH   1   8
ATOM      7  C   UNL     1      43.257   5.780  11.331  0.00  0.00    +0.000 C 
ATOM      8  C   UNL     1      44.582   5.372  11.999  0.00  0.00    +0.000 C 
BRANCH   8   9
ATOM      9  N   UNL     1      45.205   4.397  11.080  0.00  0.00    +0.000 NA
ATOM     10  H   UNL     1      44.909   3.455  11.338  0.00  0.00    +0.000 HD
BRANCH   9  11
ATOM     11  C   UNL     1      44.878   4.619   9.669  0.00  0.00    +0.000 C 
BRANCH  11  12
ATOM     12  C   UNL     1      45.536   3.652   8.705  0.00  0.00    +0.000 A 
ATOM     13  C   UNL     1      45.543   2.281   8.942  0.00  0.00    +0.000 A 
ATOM     14  C   UNL     1      46.239   1.452   8.062  0.00  0.00    +0.000 A 
ATOM     15  C   UNL     1      46.904   2.010   6.977  0.00  0.00    +0.000 A 
ATOM     16  C   UNL     1      46.845   3.381   6.809  0.00  0.00    +0.000 A 
ATOM     17  N   UNL     1      46.179   4.207   7.642  0.00  0.00    +0.000 NA
ENDBRANCH  11  12
ENDBRANCH   9  11
ENDBRANCH   8   9
ENDBRANCH   1   8
BRANCH   4  18
ATOM     18  C   UNL     1      48.036   9.980  13.222  0.00  0.00    +0.000 C 
BRANCH  18  19
ATOM     19  N   UNL     1      49.432   9.859  12.799  0.00  0.00    +0.000 N 
ATOM     20  C   UNL     1      50.447   9.572  13.807  0.00  0.00    +0.000 C 
ATOM     21  C   UNL     1      49.711  10.311  11.496  0.00  0.00    +0.000 C 
ATOM     22  O   UNL     1      48.812  10.723  10.768  0.00  0.00    +0.000 OA
BRANCH  21  23
ATOM     23  C   UNL     1      51.084  10.233  10.974  0.00  0.00    +0.000 A 
ATOM     24  C   UNL     1      51.920  11.322  10.800  0.00  0.00    +0.000 A 
ATOM     25  S   UNL     1      53.471  10.908  10.224  0.00  0.00    +0.000 S 
ATOM     26  C   UNL     1      53.123   9.246  10.325  0.00  0.00    +0.000 A 
ATOM     27  N   UNL     1      54.080   8.315  10.063  0.00  0.00    +0.000 NA
ATOM     28  C   UNL     1      53.690   7.096  10.239  0.00  0.00    +0.000 A 
ATOM     29  N   UNL     1      52.426   6.724  10.624  0.00  0.00    +0.000 N 
ATOM     30  C   UNL     1      51.391   7.624  10.763  0.00  0.00    +0.000 A 
ATOM     31  O   UNL     1      50.232   7.234  10.862  0.00  0.00    +0.000 OA
ATOM     32  C   UNL     1      51.811   9.014  10.696  0.00  0.00    +0.000 A 
ATOM     33  H   UNL     1      52.168   5.750  10.674  0.00  0.00    +0.000 HD
ENDBRANCH  21  23
ENDBRANCH  18  19
ENDBRANCH   4  18
TORSDOF 7
ENDMDL
MODEL 6
REMARK VINA RESULT:    -6.347      3.706      4.742
REMARK INTER + INTRA:         -10.105
REMARK INTER:                  -9.072
REMARK INTRA:                  -1.033
REMARK UNBOUND:                -1.161
REMARK  Name = 
REMARK  9 active torsions:
REMARK  status: ('A' for Active; 'I' for Inactive)
REMARK    1  A    between atoms: C_1  and  C_2
REMARK    2  A    between atoms: C_2  and  N_3
REMARK    3  A    between atoms: C_2  and  C_11
REMARK    4  A    between atoms: N_3  and  C_4
REMARK    5  A    between atoms: C_4  and  C_5
REMARK    6  A    between atoms: C_14  and  C_15
REMARK    7  A    between atoms: C_15  and  N_16
REMARK    8  A    between atoms: N_16  and  C_17
REMARK    9  A    between atoms: C_18  and  C_20
REMARK                            x       y       z     vdW  Elec       q    Type
REMARK                         _______ _______ _______ _____ _____    ______ ____
ROOT
ATOM      1  C   UNL     1      47.881   7.312  13.944  0.00  0.00    +0.000 A 
ATOM      2  C   UNL     1      48.252   8.471  14.639  0.00  0.00    +0.000 A 
ATOM      3  C   UNL     1      48.773   8.410  15.932  0.00  0.00    +0.000 A 
ATOM      4  C   UNL     1      48.964   7.183  16.575  0.00  0.00    +0.000 A 
ATOM      5  C   UNL     1      48.564   6.018  15.920  0.00  0.00    +0.000 A 
ATOM      6  C   UNL     1      47.999   6.090  14.638  0.00  0.00    +0.000 A 
ENDROOT
BRANCH   1   8
ATOM      7  C   UNL     1      48.388   7.647  11.458  0.00  0.00    +0.000 C 
ATOM      8  C   UNL     1      47.313   7.355  12.520  0.00  0.00    +0.000 C 
BRANCH   8   9
ATOM      9  N   UNL     1      46.653   6.107  12.082  0.00  0.00    +0.000 NA
ATOM     10  H   UNL     1      46.176   5.682  12.877  0.00  0.00    +0.000 HD
BRANCH   9  11
ATOM     11  C   UNL     1      45.680   6.299  11.002  0.00  0.00    +0.000 C 
BRANCH  11  12
ATOM     12  C   UNL     1      45.366   5.050  10.202  0.00  0.00    +0.000 A 
ATOM     13  C   UNL     1      45.720   4.937   8.861  0.00  0.00    +0.000 A 
ATOM     14  C   UNL     1      45.328   3.799   8.158  0.00  0.00    +0.000 A 
ATOM     15  C   UNL     1      44.598   2.810   8.806  0.00  0.00    +0.000 A 
ATOM     16  C   UNL     1      44.290   2.996  10.141  0.00  0.00    +0.000 A 
ATOM     17  N   UNL     1      44.657   4.085  10.847  0.00  0.00    +0.000 NA
ENDBRANCH  11  12
ENDBRANCH   9  11
ENDBRANCH   8   9
ENDBRANCH   1   8
BRANCH   4  18
ATOM     18  C   UNL     1      49.614   7.141  17.935  0.00  0.00    +0.000 C 
BRANCH  18  19
ATOM     19  N   UNL     1      50.846   6.360  18.048  0.00  0.00    +0.000 N 
ATOM     20  C   UNL     1      51.971   6.697  17.182  0.00  0.00    +0.000 C 
ATOM     21  C   UNL     1      50.740   5.166  18.785  0.00  0.00    +0.000 C 
ATOM     22  O   UNL     1      49.685   4.856  19.331  0.00  0.00    +0.000 OA
BRANCH  21  23
ATOM     23  C   UNL     1      51.921   4.307  18.958  0.00  0.00    +0.000 A 
ATOM     24  C   UNL     1      52.959   4.568  19.835  0.00  0.00    +0.000 A 
ATOM     25  S   UNL     1      54.163   3.360  19.848  0.00  0.00    +0.000 S 
ATOM     26  C   UNL     1      53.265   2.379  18.789  0.00  0.00    +0.000 A 
ATOM     27  N   UNL     1      53.694   1.129  18.462  0.00  0.00    +0.000 NA
ATOM     28  C   UNL     1      52.881   0.477  17.698  0.00  0.00    +0.000 A 
ATOM     29  N   UNL     1      51.696   0.971  17.210  0.00  0.00    +0.000 N 
ATOM     30  C   UNL     1      51.294   2.275  17.402  0.00  0.00    +0.000 A 
ATOM     31  O   UNL     1      50.366   2.745  16.750  0.00  0.00    +0.000 OA
ATOM     32  C   UNL     1      52.112   3.007  18.354  0.00  0.00    +0.000 A 
ATOM     33  H   UNL     1      51.143   0.433  16.560  0.00  0.00    +0.000 HD
ENDBRANCH  21  23
ENDBRANCH  18  19
ENDBRANCH   4  18
TORSDOF 7
ENDMDL
MODEL 7
REMARK VINA RESULT:    -6.226      3.889      8.188
REMARK INTER + INTRA:          -9.935
REMARK INTER:                  -8.142
REMARK INTRA:                  -1.794
REMARK UNBOUND:                -1.161
REMARK  Name = 
REMARK  9 active torsions:
REMARK  status: ('A' for Active; 'I' for Inactive)
REMARK    1  A    between atoms: C_1  and  C_2
REMARK    2  A    between atoms: C_2  and  N_3
REMARK    3  A    between atoms: C_2  and  C_11
REMARK    4  A    between atoms: N_3  and  C_4
REMARK    5  A    between atoms: C_4  and  C_5
REMARK    6  A    between atoms: C_14  and  C_15
REMARK    7  A    between atoms: C_15  and  N_16
REMARK    8  A    between atoms: N_16  and  C_17
REMARK    9  A    between atoms: C_18  and  C_20
REMARK                            x       y       z     vdW  Elec       q    Type
REMARK                         _______ _______ _______ _____ _____    ______ ____
ROOT
ATOM      1  C   UNL     1      52.247   6.710  16.585  0.00  0.00    +0.000 A 
ATOM      2  C   UNL     1      50.870   6.897  16.775  0.00  0.00    +0.000 A 
ATOM      3  C   UNL     1      50.103   7.632  15.870  0.00  0.00    +0.000 A 
ATOM      4  C   UNL     1      50.678   8.191  14.724  0.00  0.00    +0.000 A 
ATOM      5  C   UNL     1      52.054   8.053  14.535  0.00  0.00    +0.000 A 
ATOM      6  C   UNL     1      52.827   7.352  15.473  0.00  0.00    +0.000 A 
ENDROOT
BRANCH   1   8
ATOM      7  C   UNL     1      52.803   6.228  19.036  0.00  0.00    +0.000 C 
ATOM      8  C   UNL     1      53.107   5.901  17.563  0.00  0.00    +0.000 C 
BRANCH   8   9
ATOM      9  N   UNL     1      52.962   4.435  17.445  0.00  0.00    +0.000 NA
ATOM     10  H   UNL     1      53.881   4.000  17.515  0.00  0.00    +0.000 HD
BRANCH   9  11
ATOM     11  C   UNL     1      52.086   3.842  18.460  0.00  0.00    +0.000 C 
BRANCH  11  12
ATOM     12  C   UNL     1      50.683   3.526  17.980  0.00  0.00    +0.000 A 
ATOM     13  C   UNL     1      49.569   4.158  18.523  0.00  0.00    +0.000 A 
ATOM     14  C   UNL     1      48.301   3.761  18.100  0.00  0.00    +0.000 A 
ATOM     15  C   UNL     1      48.179   2.751  17.153  0.00  0.00    +0.000 A 
ATOM     16  C   UNL     1      49.335   2.177  16.660  0.00  0.00    +0.000 A 
ATOM     17  N   UNL     1      50.574   2.541  17.048  0.00  0.00    +0.000 NA
ENDBRANCH  11  12
ENDBRANCH   9  11
ENDBRANCH   8   9
ENDBRANCH   1   8
BRANCH   4  18
ATOM     18  C   UNL     1      49.809   8.901  13.717  0.00  0.00    +0.000 C 
BRANCH  18  19
ATOM     19  N   UNL     1      48.817   8.083  13.018  0.00  0.00    +0.000 N 
ATOM     20  C   UNL     1      49.176   7.492  11.733  0.00  0.00    +0.000 C 
ATOM     21  C   UNL     1      47.503   8.171  13.513  0.00  0.00    +0.000 C 
ATOM     22  O   UNL     1      47.248   8.855  14.501  0.00  0.00    +0.000 OA
BRANCH  21  23
ATOM     23  C   UNL     1      46.430   7.389  12.882  0.00  0.00    +0.000 A 
ATOM     24  C   UNL     1      45.517   7.899  11.975  0.00  0.00    +0.000 A 
ATOM     25  S   UNL     1      44.423   6.733  11.378  0.00  0.00    +0.000 S 
ATOM     26  C   UNL     1      45.225   5.481  12.202  0.00  0.00    +0.000 A 
ATOM     27  N   UNL     1      44.849   4.183  12.037  0.00  0.00    +0.000 NA
ATOM     28  C   UNL     1      45.586   3.337  12.677  0.00  0.00    +0.000 A 
ATOM     29  N   UNL     1      46.644   3.671  13.486  0.00  0.00    +0.000 N 
ATOM     30  C   UNL     1      46.970   4.975  13.790  0.00  0.00    +0.000 A 
ATOM     31  O   UNL     1      47.753   5.227  14.702  0.00  0.00    +0.000 OA
ATOM     32  C   UNL     1      46.249   5.958  12.999  0.00  0.00    +0.000 A 
ATOM     33  H   UNL     1      47.133   2.963  14.013  0.00  0.00    +0.000 HD
ENDBRANCH  21  23
ENDBRANCH  18  19
ENDBRANCH   4  18
TORSDOF 7
ENDMDL
MODEL 8
REMARK VINA RESULT:    -6.078      4.982      8.582
REMARK INTER + INTRA:          -9.726
REMARK INTER:                  -8.808
REMARK INTRA:                  -0.917
REMARK UNBOUND:                -1.161
REMARK  Name = 
REMARK  9 active torsions:
REMARK  status: ('A' for Active; 'I' for Inactive)
REMARK    1  A    between atoms: C_1  and  C_2
REMARK    2  A    between atoms: C_2  and  N_3
REMARK    3  A    between atoms: C_2  and  C_11
REMARK    4  A    between atoms: N_3  and  C_4
REMARK    5  A    between atoms: C_4  and  C_5
REMARK    6  A    between atoms: C_14  and  C_15
REMARK    7  A    between atoms: C_15  and  N_16
REMARK    8  A    between atoms: N_16  and  C_17
REMARK    9  A    between atoms: C_18  and  C_20
REMARK                            x       y       z     vdW  Elec       q    Type
REMARK                         _______ _______ _______ _____ _____    ______ ____
ROOT
ATOM      1  C   UNL     1      50.482   9.482  12.261  0.00  0.00    +0.000 A 
ATOM      2  C   UNL     1      49.801   8.582  11.429  0.00  0.00    +0.000 A 
ATOM      3  C   UNL     1      48.497   8.173  11.711  0.00  0.00    +0.000 A 
ATOM      4  C   UNL     1      47.811   8.666  12.826  0.00  0.00    +0.000 A 
ATOM      5  C   UNL     1      48.483   9.532  13.691  0.00  0.00    +0.000 A 
ATOM      6  C   UNL     1      49.810   9.902  13.427  0.00  0.00    +0.000 A 
ENDROOT
BRANCH   1   8
ATOM      7  C   UNL     1      52.978   9.082  12.659  0.00  0.00    +0.000 C 
ATOM      8  C   UNL     1      51.912   9.949  11.967  0.00  0.00    +0.000 C 
BRANCH   8   9
ATOM      9  N   UNL     1      52.277   9.955  10.534  0.00  0.00    +0.000 NA
ATOM     10  H   UNL     1      52.448  10.915  10.235  0.00  0.00    +0.000 HD
BRANCH   9  11
ATOM     11  C   UNL     1      53.460   9.149  10.220  0.00  0.00    +0.000 C 
BRANCH  11  12
ATOM     12  C   UNL     1      53.236   8.074   9.175  0.00  0.00    +0.000 A 
ATOM     13  C   UNL     1      53.429   6.727   9.465  0.00  0.00    +0.000 A 
ATOM     14  C   UNL     1      53.290   5.794   8.439  0.00  0.00    +0.000 A 
ATOM     15  C   UNL     1      52.964   6.227   7.159  0.00  0.00    +0.000 A 
ATOM     16  C   UNL     1      52.785   7.582   6.954  0.00  0.00    +0.000 A 
ATOM     17  N   UNL     1      52.911   8.507   7.927  0.00  0.00    +0.000 NA
ENDBRANCH  11  12
ENDBRANCH   9  11
ENDBRANCH   8   9
ENDBRANCH   1   8
BRANCH   4  18
ATOM     18  C   UNL     1      46.372   8.279  13.055  0.00  0.00    +0.000 C 
BRANCH  18  19
ATOM     19  N   UNL     1      46.044   6.862  12.898  0.00  0.00    +0.000 N 
ATOM     20  C   UNL     1      46.947   5.866  13.465  0.00  0.00    +0.000 C 
ATOM     21  C   UNL     1      45.029   6.575  11.966  0.00  0.00    +0.000 C 
ATOM     22  O   UNL     1      44.441   7.480  11.380  0.00  0.00    +0.000 OA
BRANCH  21  23
ATOM     23  C   UNL     1      44.623   5.181  11.733  0.00  0.00    +0.000 A 
ATOM     24  C   UNL     1      43.872   4.426  12.617  0.00  0.00    +0.000 A 
ATOM     25  S   UNL     1      43.517   2.858  12.044  0.00  0.00    +0.000 S 
ATOM     26  C   UNL     1      44.231   3.189  10.537  0.00  0.00    +0.000 A 
ATOM     27  N   UNL     1      44.181   2.280   9.525  0.00  0.00    +0.000 NA
ATOM     28  C   UNL     1      44.711   2.692   8.421  0.00  0.00    +0.000 A 
ATOM     29  N   UNL     1      45.310   3.915   8.246  0.00  0.00    +0.000 N 
ATOM     30  C   UNL     1      45.506   4.806   9.279  0.00  0.00    +0.000 A 
ATOM     31  O   UNL     1      46.258   5.767   9.142  0.00  0.00    +0.000 OA
ATOM     32  C   UNL     1      44.820   4.440  10.507  0.00  0.00    +0.000 A 
ATOM     33  H   UNL     1      45.768   4.144   7.377  0.00  0.00    +0.000 HD
ENDBRANCH  21  23
ENDBRANCH  18  19
ENDBRANCH   4  18
TORSDOF 7
ENDMDL
MODEL 9
REMARK VINA RESULT:    -6.072      3.275      9.194
REMARK INTER + INTRA:          -9.717
REMARK INTER:                  -8.118
REMARK INTRA:                  -1.599
REMARK UNBOUND:                -1.161
REMARK  Name = 
REMARK  9 active torsions:
REMARK  status: ('A' for Active; 'I' for Inactive)
REMARK    1  A    between atoms: C_1  and  C_2
REMARK    2  A    between atoms: C_2  and  N_3
REMARK    3  A    between atoms: C_2  and  C_11
REMARK    4  A    between atoms: N_3  and  C_4
REMARK    5  A    between atoms: C_4  and  C_5
REMARK    6  A    between atoms: C_14  and  C_15
REMARK    7  A    between atoms: C_15  and  N_16
REMARK    8  A    between atoms: N_16  and  C_17
REMARK    9  A    between atoms: C_18  and  C_20
REMARK                            x       y       z     vdW  Elec       q    Type
REMARK                         _______ _______ _______ _____ _____    ______ ____
ROOT
ATOM      1  C   UNL     1      49.856   9.250  16.059  0.00  0.00    +0.000 A 
ATOM      2  C   UNL     1      48.460   9.227  16.191  0.00  0.00    +0.000 A 
ATOM      3  C   UNL     1      47.629   8.983  15.097  0.00  0.00    +0.000 A 
ATOM      4  C   UNL     1      48.162   8.730  13.829  0.00  0.00    +0.000 A 
ATOM      5  C   UNL     1      49.547   8.789  13.664  0.00  0.00    +0.000 A 
ATOM      6  C   UNL     1      50.374   9.079  14.759  0.00  0.00    +0.000 A 
ENDROOT
BRANCH   1   8
ATOM      7  C   UNL     1      50.527  10.865  17.928  0.00  0.00    +0.000 C 
ATOM      8  C   UNL     1      50.788   9.508  17.249  0.00  0.00    +0.000 C 
BRANCH   8   9
ATOM      9  N   UNL     1      50.703   8.502  18.329  0.00  0.00    +0.000 NA
ATOM     10  H   UNL     1      49.779   8.548  18.758  0.00  0.00    +0.000 HD
BRANCH   9  11
ATOM     11  C   UNL     1      50.941   7.128  17.879  0.00  0.00    +0.000 C 
BRANCH  11  12
ATOM     12  C   UNL     1      49.710   6.244  17.860  0.00  0.00    +0.000 A 
ATOM     13  C   UNL     1      49.253   5.659  16.683  0.00  0.00    +0.000 A 
ATOM     14  C   UNL     1      48.067   4.927  16.716  0.00  0.00    +0.000 A 
ATOM     15  C   UNL     1      47.373   4.799  17.913  0.00  0.00    +0.000 A 
ATOM     16  C   UNL     1      47.896   5.407  19.039  0.00  0.00    +0.000 A 
ATOM     17  N   UNL     1      49.041   6.120  19.038  0.00  0.00    +0.000 NA
ENDBRANCH  11  12
ENDBRANCH   9  11
ENDBRANCH   8   9
ENDBRANCH   1   8
BRANCH   4  18
ATOM     18  C   UNL     1      47.245   8.379  12.684  0.00  0.00    +0.000 C 
BRANCH  18  19
ATOM     19  N   UNL     1      46.773   6.996  12.625  0.00  0.00    +0.000 N 
ATOM     20  C   UNL     1      47.712   5.921  12.930  0.00  0.00    +0.000 C 
ATOM     21  C   UNL     1      45.525   6.807  12.002  0.00  0.00    +0.000 C 
ATOM     22  O   UNL     1      44.876   7.767  11.594  0.00  0.00    +0.000 OA
BRANCH  21  23
ATOM     23  C   UNL     1      44.961   5.454  11.891  0.00  0.00    +0.000 A 
ATOM     24  C   UNL     1      44.242   4.820  12.889  0.00  0.00    +0.000 A 
ATOM     25  S   UNL     1      43.673   3.275  12.444  0.00  0.00    +0.000 S 
ATOM     26  C   UNL     1      44.244   3.463  10.854  0.00  0.00    +0.000 A 
ATOM     27  N   UNL     1      43.992   2.521   9.905  0.00  0.00    +0.000 NA
ATOM     28  C   UNL     1      44.433   2.827   8.730  0.00  0.00    +0.000 A 
ATOM     29  N   UNL     1      45.127   3.972   8.425  0.00  0.00    +0.000 N 
ATOM     30  C   UNL     1      45.524   4.882   9.381  0.00  0.00    +0.000 A 
ATOM     31  O   UNL     1      46.347   5.753   9.112  0.00  0.00    +0.000 OA
ATOM     32  C   UNL     1      44.946   4.644  10.693  0.00  0.00    +0.000 A 
ATOM     33  H   UNL     1      45.505   4.114   7.501  0.00  0.00    +0.000 HD
ENDBRANCH  21  23
ENDBRANCH  18  19
ENDBRANCH   4  18
TORSDOF 7
ENDMDL
