MODEL 1
REMARK VINA RESULT:    -8.152      0.000      0.000
REMARK INTER + INTRA:         -10.758
REMARK INTER:                 -10.535
REMARK INTRA:                  -0.223
REMARK UNBOUND:                -0.223
REMARK  Name = 
REMARK  5 active torsions:
REMARK  status: ('A' for Active; 'I' for Inactive)
REMARK    1  A    between atoms: C_2  and  C_4
REMARK    2  A    between atoms: C_8  and  O_9
REMARK    3  A    between atoms: O_9  and  C_10
REMARK    4  A    between atoms: C_10  and  C_11
REMARK    5  A    between atoms: C_16  and  C_17
REMARK                            x       y       z     vdW  Elec       q    Type
REMARK                         _______ _______ _______ _____ _____    ______ ____
ROOT
ATOM      1  C   UNL     1      44.804   4.505  12.086  0.00  0.00    +0.000 A 
ATOM      2  C   UNL     1      45.511   3.569  12.842  0.00  0.00    +0.000 A 
ATOM      3  C   UNL     1      46.598   3.984  13.597  0.00  0.00    +0.000 A 
ATOM      4  F   UNL     1      47.281   3.084  14.317  0.00  0.00    +0.000 F 
ATOM      5  C   UNL     1      47.020   5.310  13.585  0.00  0.00    +0.000 A 
ATOM      6  C   UNL     1      46.371   6.258  12.786  0.00  0.00    +0.000 A 
ATOM      7  C   UNL     1      45.212   5.848  12.101  0.00  0.00    +0.000 A 
ENDROOT
BRANCH   6   8
ATOM      8  C   UNL     1      46.884   7.681  12.573  0.00  0.00    +0.000 C 
ATOM      9  C   UNL     1      48.149   7.691  11.684  0.00  0.00    +0.000 C 
ATOM     10  C   UNL     1      49.379   7.198  12.448  0.00  0.00    +0.000 C 
ATOM     11  N   UNL     1      49.643   8.013  13.636  0.00  0.00    +0.000 NA
ATOM     12  C   UNL     1      48.493   8.044  14.536  0.00  0.00    +0.000 C 
ATOM     13  C   UNL     1      47.205   8.495  13.844  0.00  0.00    +0.000 C 
ATOM     14  H   UNL     1      49.870   8.964  13.344  0.00  0.00    +0.000 HD
ENDBRANCH   6   8
BRANCH   1  15
ATOM     15  C   UNL     1      43.637   4.078  11.240  0.00  0.00    +0.000 C 
BRANCH  15  16
ATOM     16  O   UNL     1      44.024   2.946  10.471  0.00  0.00    +0.000 OA
BRANCH  16  21
ATOM     17  C   UNL     1      46.403   2.180   7.848  0.00  0.00    +0.000 A 
ATOM     18  C   UNL     1      46.651   3.431   7.281  0.00  0.00    +0.000 A 
ATOM     19  C   UNL     1      45.999   4.561   7.775  0.00  0.00    +0.000 A 
ATOM     20  C   UNL     1      45.107   4.442   8.843  0.00  0.00    +0.000 A 
ATOM     21  C   UNL     1      44.868   3.195   9.424  0.00  0.00    +0.000 A 
ATOM     22  C   UNL     1      45.522   2.065   8.930  0.00  0.00    +0.000 A 
BRANCH  17  24
ATOM     23  N   UNL     1      46.624  -0.233   7.656  0.00  0.00    +0.000 N 
ATOM     24  C   UNL     1      47.100   0.993   7.291  0.00  0.00    +0.000 C 
ATOM     25  O   UNL     1      48.028   1.107   6.502  0.00  0.00    +0.000 OA
ATOM     26  H   UNL     1      47.033  -1.034   7.195  0.00  0.00    +0.000 HD
ATOM     27  H   UNL     1      45.727  -0.358   8.112  0.00  0.00    +0.000 HD
ENDBRANCH  17  24
ENDBRANCH  16  21
ENDBRANCH  15  16
ENDBRANCH   1  15
TORSDOF 5
ENDMDL
MODEL 2
REMARK VINA RESULT:    -8.093      1.543      2.123
REMARK INTER + INTRA:         -10.682
REMARK INTER:                  -9.851
REMARK INTRA:                  -0.831
REMARK UNBOUND:                -0.223
REMARK  Name = 
REMARK  5 active torsions:
REMARK  status: ('A' for Active; 'I' for Inactive)
REMARK    1  A    between atoms: C_2  and  C_4
REMARK    2  A    between atoms: C_8  and  O_9
REMARK    3  A    between atoms: O_9  and  C_10
REMARK    4  A    between atoms: C_10  and  C_11
REMARK    5  A    between atoms: C_16  and  C_17
REMARK                            x       y       z     vdW  Elec       q    Type
REMARK                         _______ _______ _______ _____ _____    ______ ____
ROOT
ATOM      1  C   UNL     1      45.599   5.620  11.774  0.00  0.00    +0.000 A 
ATOM      2  C   UNL     1      45.688   4.676  12.799  0.00  0.00    +0.000 A 
ATOM      3  C   UNL     1      46.695   4.790  13.746  0.00  0.00    +0.000 A 
ATOM      4  F   UNL     1      46.785   3.880  14.724  0.00  0.00    +0.000 F 
ATOM      5  C   UNL     1      47.641   5.808  13.672  0.00  0.00    +0.000 A 
ATOM      6  C   UNL     1      47.616   6.731  12.620  0.00  0.00    +0.000 A 
ATOM      7  C   UNL     1      46.534   6.664  11.721  0.00  0.00    +0.000 A 
ENDROOT
BRANCH   6   8
ATOM      8  C   UNL     1      48.720   7.756  12.364  0.00  0.00    +0.000 C 
ATOM      9  C   UNL     1      49.411   8.172  13.683  0.00  0.00    +0.000 C 
ATOM     10  C   UNL     1      48.527   9.104  14.512  0.00  0.00    +0.000 C 
ATOM     11  N   UNL     1      48.172  10.318  13.774  0.00  0.00    +0.000 NA
ATOM     12  C   UNL     1      47.500  10.007  12.514  0.00  0.00    +0.000 C 
ATOM     13  C   UNL     1      48.303   9.048  11.631  0.00  0.00    +0.000 C 
ATOM     14  H   UNL     1      49.020  10.852  13.582  0.00  0.00    +0.000 HD
ENDBRANCH   6   8
BRANCH   1  15
ATOM     15  C   UNL     1      44.531   5.505  10.723  0.00  0.00    +0.000 C 
BRANCH  15  16
ATOM     16  O   UNL     1      45.158   5.332   9.458  0.00  0.00    +0.000 OA
BRANCH  16  21
ATOM     17  C   UNL     1      46.543   2.609   7.510  0.00  0.00    +0.000 A 
ATOM     18  C   UNL     1      45.885   1.492   8.030  0.00  0.00    +0.000 A 
ATOM     19  C   UNL     1      44.965   1.646   9.066  0.00  0.00    +0.000 A 
ATOM     20  C   UNL     1      44.694   2.918   9.577  0.00  0.00    +0.000 A 
ATOM     21  C   UNL     1      45.337   4.039   9.050  0.00  0.00    +0.000 A 
ATOM     22  C   UNL     1      46.257   3.884   8.011  0.00  0.00    +0.000 A 
BRANCH  17  24
ATOM     23  N   UNL     1      47.366   3.168   5.293  0.00  0.00    +0.000 N 
ATOM     24  C   UNL     1      47.528   2.412   6.418  0.00  0.00    +0.000 C 
ATOM     25  O   UNL     1      48.472   1.643   6.537  0.00  0.00    +0.000 OA
ATOM     26  H   UNL     1      48.095   3.108   4.596  0.00  0.00    +0.000 HD
ATOM     27  H   UNL     1      46.744   3.969   5.257  0.00  0.00    +0.000 HD
ENDBRANCH  17  24
ENDBRANCH  16  21
ENDBRANCH  15  16
ENDBRANCH   1  15
TORSDOF 5
ENDMDL
MODEL 3
REMARK VINA RESULT:    -7.684      4.114      7.633
REMARK INTER + INTRA:         -10.154
REMARK INTER:                 -10.043
REMARK INTRA:                  -0.111
REMARK UNBOUND:                -0.223
REMARK  Name = 
REMARK  5 active torsions:
REMARK  status: ('A' for Active; 'I' for Inactive)
REMARK    1  A    between atoms: C_2  and  C_4
REMARK    2  A    between atoms: C_8  and  O_9
REMARK    3  A    between atoms: O_9  and  C_10
REMARK    4  A    between atoms: C_10  and  C_11
REMARK    5  A    between atoms: C_16  and  C_17
REMARK                            x       y       z     vdW  Elec       q    Type
REMARK                         _______ _______ _______ _____ _____    ______ ____
ROOT
ATOM      1  C   UNL     1      46.744   4.736  13.411  0.00  0.00    +0.000 A 
ATOM      2  C   UNL     1      47.574   5.826  13.140  0.00  0.00    +0.000 A 
ATOM      3  C   UNL     1      47.217   6.725  12.147  0.00  0.00    +0.000 A 
ATOM      4  F   UNL     1      48.017   7.765  11.882  0.00  0.00    +0.000 F 
ATOM      5  C   UNL     1      46.064   6.542  11.390  0.00  0.00    +0.000 A 
ATOM      6  C   UNL     1      45.246   5.425  11.594  0.00  0.00    +0.000 A 
ATOM      7  C   UNL     1      45.565   4.572  12.668  0.00  0.00    +0.000 A 
ENDROOT
BRANCH   6   8
ATOM      8  C   UNL     1      44.074   5.053  10.686  0.00  0.00    +0.000 C 
ATOM      9  C   UNL     1      42.987   4.279  11.468  0.00  0.00    +0.000 C 
ATOM     10  C   UNL     1      43.418   2.841  11.757  0.00  0.00    +0.000 C 
ATOM     11  N   UNL     1      43.716   2.104  10.528  0.00  0.00    +0.000 NA
ATOM     12  C   UNL     1      44.748   2.769   9.736  0.00  0.00    +0.000 C 
ATOM     13  C   UNL     1      44.413   4.230   9.426  0.00  0.00    +0.000 C 
ATOM     14  H   UNL     1      42.863   2.023   9.972  0.00  0.00    +0.000 HD
ENDBRANCH   6   8
BRANCH   1  15
ATOM     15  C   UNL     1      47.121   3.734  14.466  0.00  0.00    +0.000 C 
BRANCH  15  16
ATOM     16  O   UNL     1      46.585   4.164  15.711  0.00  0.00    +0.000 OA
BRANCH  16  21
ATOM     17  C   UNL     1      49.518   3.212  17.612  0.00  0.00    +0.000 A 
ATOM     18  C   UNL     1      49.371   3.941  18.794  0.00  0.00    +0.000 A 
ATOM     19  C   UNL     1      48.272   4.784  18.959  0.00  0.00    +0.000 A 
ATOM     20  C   UNL     1      47.314   4.890  17.947  0.00  0.00    +0.000 A 
ATOM     21  C   UNL     1      47.449   4.151  16.771  0.00  0.00    +0.000 A 
ATOM     22  C   UNL     1      48.549   3.306  16.607  0.00  0.00    +0.000 A 
BRANCH  17  24
ATOM     23  N   UNL     1      51.800   2.635  18.218  0.00  0.00    +0.000 N 
ATOM     24  C   UNL     1      50.706   2.335  17.459  0.00  0.00    +0.000 C 
ATOM     25  O   UNL     1      50.692   1.359  16.721  0.00  0.00    +0.000 OA
ATOM     26  H   UNL     1      52.567   1.978  18.188  0.00  0.00    +0.000 HD
ATOM     27  H   UNL     1      51.765   3.283  18.997  0.00  0.00    +0.000 HD
ENDBRANCH  17  24
ENDBRANCH  16  21
ENDBRANCH  15  16
ENDBRANCH   1  15
TORSDOF 5
ENDMDL
MODEL 4
REMARK VINA RESULT:    -7.442      2.476      3.183
REMARK INTER + INTRA:          -9.841
REMARK INTER:                  -9.288
REMARK INTRA:                  -0.553
REMARK UNBOUND:                -0.223
REMARK  Name = 
REMARK  5 active torsions:
REMARK  status: ('A' for Active; 'I' for Inactive)
REMARK    1  A    between atoms: C_2  and  C_4
REMARK    2  A    between atoms: C_8  and  O_9
REMARK    3  A    between atoms: O_9  and  C_10
REMARK    4  A    between atoms: C_10  and  C_11
REMARK    5  A    between atoms: C_16  and  C_17
REMARK                            x       y       z     vdW  Elec       q    Type
REMARK                         _______ _______ _______ _____ _____    ______ ____
ROOT
ATOM      1  C   UNL     1      45.468   6.941  11.363  0.00  0.00    +0.000 A 
ATOM      2  C   UNL     1      44.604   8.035  11.438  0.00  0.00    +0.000 A 
ATOM      3  C   UNL     1      45.084   9.252  11.897  0.00  0.00    +0.000 A 
ATOM      4  F   UNL     1      44.252  10.299  11.976  0.00  0.00    +0.000 F 
ATOM      5  C   UNL     1      46.402   9.395  12.318  0.00  0.00    +0.000 A 
ATOM      6  C   UNL     1      47.274   8.301  12.315  0.00  0.00    +0.000 A 
ATOM      7  C   UNL     1      46.806   7.096  11.758  0.00  0.00    +0.000 A 
ENDROOT
BRANCH   6   8
ATOM      8  C   UNL     1      48.672   8.327  12.934  0.00  0.00    +0.000 C 
ATOM      9  C   UNL     1      49.065   6.936  13.482  0.00  0.00    +0.000 C 
ATOM     10  C   UNL     1      48.328   6.613  14.782  0.00  0.00    +0.000 C 
ATOM     11  N   UNL     1      48.595   7.611  15.820  0.00  0.00    +0.000 NA
ATOM     12  C   UNL     1      48.236   8.957  15.381  0.00  0.00    +0.000 C 
ATOM     13  C   UNL     1      48.905   9.353  14.062  0.00  0.00    +0.000 C 
ATOM     14  H   UNL     1      49.587   7.587  16.059  0.00  0.00    +0.000 HD
ENDBRANCH   6   8
BRANCH   1  15
ATOM     15  C   UNL     1      44.967   5.604  10.892  0.00  0.00    +0.000 C 
BRANCH  15  16
ATOM     16  O   UNL     1      45.358   5.425   9.537  0.00  0.00    +0.000 OA
BRANCH  16  21
ATOM     17  C   UNL     1      46.520   2.655   7.511  0.00  0.00    +0.000 A 
ATOM     18  C   UNL     1      45.815   1.571   8.036  0.00  0.00    +0.000 A 
ATOM     19  C   UNL     1      44.938   1.763   9.103  0.00  0.00    +0.000 A 
ATOM     20  C   UNL     1      44.757   3.040   9.639  0.00  0.00    +0.000 A 
ATOM     21  C   UNL     1      45.448   4.130   9.107  0.00  0.00    +0.000 A 
ATOM     22  C   UNL     1      46.325   3.937   8.037  0.00  0.00    +0.000 A 
BRANCH  17  24
ATOM     23  N   UNL     1      47.344   3.238   5.300  0.00  0.00    +0.000 N 
ATOM     24  C   UNL     1      47.458   2.418   6.385  0.00  0.00    +0.000 C 
ATOM     25  O   UNL     1      48.326   1.558   6.444  0.00  0.00    +0.000 OA
ATOM     26  H   UNL     1      48.049   3.142   4.582  0.00  0.00    +0.000 HD
ATOM     27  H   UNL     1      46.801   4.095   5.316  0.00  0.00    +0.000 HD
ENDBRANCH  17  24
ENDBRANCH  16  21
ENDBRANCH  15  16
ENDBRANCH   1  15
TORSDOF 5
ENDMDL
MODEL 5
REMARK VINA RESULT:    -7.291      3.619      7.130
REMARK INTER + INTRA:          -9.646
REMARK INTER:                  -9.165
REMARK INTRA:                  -0.481
REMARK UNBOUND:                -0.223
REMARK  Name = 
REMARK  5 active torsions:
REMARK  status: ('A' for Active; 'I' for Inactive)
REMARK    1  A    between atoms: C_2  and  C_4
REMARK    2  A    between atoms: C_8  and  O_9
REMARK    3  A    between atoms: O_9  and  C_10
REMARK    4  A    between atoms: C_10  and  C_11
REMARK    5  A    between atoms: C_16  and  C_17
REMARK                            x       y       z     vdW  Elec       q    Type
REMARK                         _______ _______ _______ _____ _____    ______ ____
ROOT
ATOM      1  C   UNL     1      47.409   6.688  12.432  0.00  0.00    +0.000 A 
ATOM      2  C   UNL     1      47.445   6.030  13.662  0.00  0.00    +0.000 A 
ATOM      3  C   UNL     1      46.572   4.979  13.898  0.00  0.00    +0.000 A 
ATOM      4  F   UNL     1      46.601   4.353  15.082  0.00  0.00    +0.000 F 
ATOM      5  C   UNL     1      45.635   4.591  12.944  0.00  0.00    +0.000 A 
ATOM      6  C   UNL     1      45.533   5.274  11.727  0.00  0.00    +0.000 A 
ATOM      7  C   UNL     1      46.486   6.274  11.459  0.00  0.00    +0.000 A 
ENDROOT
BRANCH   6   8
ATOM      8  C   UNL     1      44.416   5.035  10.712  0.00  0.00    +0.000 C 
ATOM      9  C   UNL     1      43.213   4.314  11.365  0.00  0.00    +0.000 C 
ATOM     10  C   UNL     1      43.511   2.836  11.616  0.00  0.00    +0.000 C 
ATOM     11  N   UNL     1      43.854   2.132  10.380  0.00  0.00    +0.000 NA
ATOM     12  C   UNL     1      44.995   2.748   9.706  0.00  0.00    +0.000 C 
ATOM     13  C   UNL     1      44.797   4.243   9.443  0.00  0.00    +0.000 C 
ATOM     14  H   UNL     1      43.047   2.142   9.755  0.00  0.00    +0.000 HD
ENDBRANCH   6   8
BRANCH   1  15
ATOM     15  C   UNL     1      48.328   7.846  12.159  0.00  0.00    +0.000 C 
BRANCH  15  16
ATOM     16  O   UNL     1      47.838   8.987  12.852  0.00  0.00    +0.000 OA
BRANCH  16  21
ATOM     17  C   UNL     1      44.946  10.589  11.370  0.00  0.00    +0.000 A 
ATOM     18  C   UNL     1      45.515  11.625  10.626  0.00  0.00    +0.000 A 
ATOM     19  C   UNL     1      46.897  11.805  10.627  0.00  0.00    +0.000 A 
ATOM     20  C   UNL     1      47.714  10.943  11.363  0.00  0.00    +0.000 A 
ATOM     21  C   UNL     1      47.152   9.897  12.096  0.00  0.00    +0.000 A 
ATOM     22  C   UNL     1      45.767   9.716  12.094  0.00  0.00    +0.000 A 
BRANCH  17  24
ATOM     23  N   UNL     1      42.973   9.274  10.838  0.00  0.00    +0.000 N 
ATOM     24  C   UNL     1      43.470  10.432  11.363  0.00  0.00    +0.000 C 
ATOM     25  O   UNL     1      42.732  11.279  11.848  0.00  0.00    +0.000 OA
ATOM     26  H   UNL     1      41.978   9.125  10.929  0.00  0.00    +0.000 HD
ATOM     27  H   UNL     1      43.555   8.466  10.647  0.00  0.00    +0.000 HD
ENDBRANCH  17  24
ENDBRANCH  16  21
ENDBRANCH  15  16
ENDBRANCH   1  15
TORSDOF 5
ENDMDL
MODEL 6
REMARK VINA RESULT:    -7.084      4.164      7.583
REMARK INTER + INTRA:          -9.378
REMARK INTER:                  -8.598
REMARK INTRA:                  -0.780
REMARK UNBOUND:                -0.223
REMARK  Name = 
REMARK  5 active torsions:
REMARK  status: ('A' for Active; 'I' for Inactive)
REMARK    1  A    between atoms: C_2  and  C_4
REMARK    2  A    between atoms: C_8  and  O_9
REMARK    3  A    between atoms: O_9  and  C_10
REMARK    4  A    between atoms: C_10  and  C_11
REMARK    5  A    between atoms: C_16  and  C_17
REMARK                            x       y       z     vdW  Elec       q    Type
REMARK                         _______ _______ _______ _____ _____    ______ ____
ROOT
ATOM      1  C   UNL     1      47.422   7.413  12.529  0.00  0.00    +0.000 A 
ATOM      2  C   UNL     1      46.968   8.733  12.535  0.00  0.00    +0.000 A 
ATOM      3  C   UNL     1      45.670   9.010  12.132  0.00  0.00    +0.000 A 
ATOM      4  F   UNL     1      45.238  10.278  12.131  0.00  0.00    +0.000 F 
ATOM      5  C   UNL     1      44.823   8.000  11.687  0.00  0.00    +0.000 A 
ATOM      6  C   UNL     1      45.270   6.677  11.608  0.00  0.00    +0.000 A 
ATOM      7  C   UNL     1      46.555   6.392  12.110  0.00  0.00    +0.000 A 
ENDROOT
BRANCH   6   8
ATOM      8  C   UNL     1      44.471   5.548  10.958  0.00  0.00    +0.000 C 
ATOM      9  C   UNL     1      43.026   5.500  11.507  0.00  0.00    +0.000 C 
ATOM     10  C   UNL     1      42.981   4.924  12.923  0.00  0.00    +0.000 C 
ATOM     11  N   UNL     1      43.541   3.572  12.979  0.00  0.00    +0.000 NA
ATOM     12  C   UNL     1      44.916   3.536  12.485  0.00  0.00    +0.000 C 
ATOM     13  C   UNL     1      45.061   4.127  11.080  0.00  0.00    +0.000 C 
ATOM     14  H   UNL     1      42.963   2.948  12.415  0.00  0.00    +0.000 HD
ENDBRANCH   6   8
BRANCH   1  15
ATOM     15  C   UNL     1      48.831   7.089  12.937  0.00  0.00    +0.000 C 
BRANCH  15  16
ATOM     16  O   UNL     1      49.121   7.774  14.150  0.00  0.00    +0.000 OA
BRANCH  16  21
ATOM     17  C   UNL     1      48.557   5.327  16.762  0.00  0.00    +0.000 A 
ATOM     18  C   UNL     1      49.792   5.277  17.410  0.00  0.00    +0.000 A 
ATOM     19  C   UNL     1      50.847   6.069  16.959  0.00  0.00    +0.000 A 
ATOM     20  C   UNL     1      50.666   6.919  15.865  0.00  0.00    +0.000 A 
ATOM     21  C   UNL     1      49.427   6.984  15.224  0.00  0.00    +0.000 A 
ATOM     22  C   UNL     1      48.371   6.192  15.677  0.00  0.00    +0.000 A 
BRANCH  17  24
ATOM     23  N   UNL     1      46.976   4.722  18.505  0.00  0.00    +0.000 N 
ATOM     24  C   UNL     1      47.457   4.461  17.255  0.00  0.00    +0.000 C 
ATOM     25  O   UNL     1      46.970   3.582  16.556  0.00  0.00    +0.000 OA
ATOM     26  H   UNL     1      46.160   4.200  18.796  0.00  0.00    +0.000 HD
ATOM     27  H   UNL     1      47.193   5.575  19.008  0.00  0.00    +0.000 HD
ENDBRANCH  17  24
ENDBRANCH  16  21
ENDBRANCH  15  16
ENDBRANCH   1  15
TORSDOF 5
ENDMDL
MODEL 7
REMARK VINA RESULT:    -7.054      4.366      8.446
REMARK INTER + INTRA:          -9.338
REMARK INTER:                  -8.960
REMARK INTRA:                  -0.378
REMARK UNBOUND:                -0.223
REMARK  Name = 
REMARK  5 active torsions:
REMARK  status: ('A' for Active; 'I' for Inactive)
REMARK    1  A    between atoms: C_2  and  C_4
REMARK    2  A    between atoms: C_8  and  O_9
REMARK    3  A    between atoms: O_9  and  C_10
REMARK    4  A    between atoms: C_10  and  C_11
REMARK    5  A    between atoms: C_16  and  C_17
REMARK                            x       y       z     vdW  Elec       q    Type
REMARK                         _______ _______ _______ _____ _____    ______ ____
ROOT
ATOM      1  C   UNL     1      46.824   5.341  13.819  0.00  0.00    +0.000 A 
ATOM      2  C   UNL     1      47.776   6.076  13.110  0.00  0.00    +0.000 A 
ATOM      3  C   UNL     1      47.425   6.666  11.905  0.00  0.00    +0.000 A 
ATOM      4  F   UNL     1      48.341   7.364  11.223  0.00  0.00    +0.000 F 
ATOM      5  C   UNL     1      46.149   6.508  11.371  0.00  0.00    +0.000 A 
ATOM      6  C   UNL     1      45.193   5.723  12.026  0.00  0.00    +0.000 A 
ATOM      7  C   UNL     1      45.529   5.211  13.293  0.00  0.00    +0.000 A 
ENDROOT
BRANCH   6   8
ATOM      8  C   UNL     1      43.842   5.348  11.418  0.00  0.00    +0.000 C 
ATOM      9  C   UNL     1      43.029   4.451  12.379  0.00  0.00    +0.000 C 
ATOM     10  C   UNL     1      43.579   3.025  12.420  0.00  0.00    +0.000 C 
ATOM     11  N   UNL     1      43.578   2.402  11.095  0.00  0.00    +0.000 NA
ATOM     12  C   UNL     1      44.340   3.188  10.128  0.00  0.00    +0.000 C 
ATOM     13  C   UNL     1      43.877   4.645  10.045  0.00  0.00    +0.000 C 
ATOM     14  H   UNL     1      42.614   2.310  10.771  0.00  0.00    +0.000 HD
ENDBRANCH   6   8
BRANCH   1  15
ATOM     15  C   UNL     1      47.187   4.672  15.115  0.00  0.00    +0.000 C 
BRANCH  15  16
ATOM     16  O   UNL     1      48.492   5.092  15.493  0.00  0.00    +0.000 OA
BRANCH  16  21
ATOM     17  C   UNL     1      48.379   5.893  19.024  0.00  0.00    +0.000 A 
ATOM     18  C   UNL     1      48.658   7.261  19.040  0.00  0.00    +0.000 A 
ATOM     19  C   UNL     1      48.904   7.934  17.844  0.00  0.00    +0.000 A 
ATOM     20  C   UNL     1      48.861   7.244  16.631  0.00  0.00    +0.000 A 
ATOM     21  C   UNL     1      48.567   5.879  16.609  0.00  0.00    +0.000 A 
ATOM     22  C   UNL     1      48.319   5.205  17.807  0.00  0.00    +0.000 A 
BRANCH  17  24
ATOM     23  N   UNL     1      48.591   3.918  20.424  0.00  0.00    +0.000 N 
ATOM     24  C   UNL     1      48.136   5.199  20.314  0.00  0.00    +0.000 C 
ATOM     25  O   UNL     1      47.594   5.765  21.255  0.00  0.00    +0.000 OA
ATOM     26  H   UNL     1      48.517   3.486  21.335  0.00  0.00    +0.000 HD
ATOM     27  H   UNL     1      49.239   3.508  19.760  0.00  0.00    +0.000 HD
ENDBRANCH  17  24
ENDBRANCH  16  21
ENDBRANCH  15  16
ENDBRANCH   1  15
TORSDOF 5
ENDMDL
MODEL 8
REMARK VINA RESULT:    -7.038      3.283      4.957
REMARK INTER + INTRA:          -9.319
REMARK INTER:                  -8.557
REMARK INTRA:                  -0.762
REMARK UNBOUND:                -0.223
REMARK  Name = 
REMARK  5 active torsions:
REMARK  status: ('A' for Active; 'I' for Inactive)
REMARK    1  A    between atoms: C_2  and  C_4
REMARK    2  A    between atoms: C_8  and  O_9
REMARK    3  A    between atoms: O_9  and  C_10
REMARK    4  A    between atoms: C_10  and  C_11
REMARK    5  A    between atoms: C_16  and  C_17
REMARK                            x       y       z     vdW  Elec       q    Type
REMARK                         _______ _______ _______ _____ _____    ______ ____
ROOT
ATOM      1  C   UNL     1      48.126   6.797  13.655  0.00  0.00    +0.000 A 
ATOM      2  C   UNL     1      49.300   7.544  13.543  0.00  0.00    +0.000 A 
ATOM      3  C   UNL     1      50.209   7.548  14.590  0.00  0.00    +0.000 A 
ATOM      4  F   UNL     1      51.332   8.271  14.485  0.00  0.00    +0.000 F 
ATOM      5  C   UNL     1      49.955   6.851  15.768  0.00  0.00    +0.000 A 
ATOM      6  C   UNL     1      48.757   6.146  15.935  0.00  0.00    +0.000 A 
ATOM      7  C   UNL     1      47.888   6.069  14.830  0.00  0.00    +0.000 A 
ENDROOT
BRANCH   6   8
ATOM      8  C   UNL     1      48.321   5.516  17.257  0.00  0.00    +0.000 C 
ATOM      9  C   UNL     1      49.543   5.037  18.076  0.00  0.00    +0.000 C 
ATOM     10  C   UNL     1      50.149   3.762  17.490  0.00  0.00    +0.000 C 
ATOM     11  N   UNL     1      49.175   2.671  17.436  0.00  0.00    +0.000 NA
ATOM     12  C   UNL     1      47.990   3.042  16.665  0.00  0.00    +0.000 C 
ATOM     13  C   UNL     1      47.335   4.333  17.163  0.00  0.00    +0.000 C 
ATOM     14  H   UNL     1      48.895   2.425  18.387  0.00  0.00    +0.000 HD
ENDBRANCH   6   8
BRANCH   1  15
ATOM     15  C   UNL     1      47.114   6.795  12.544  0.00  0.00    +0.000 C 
BRANCH  15  16
ATOM     16  O   UNL     1      45.855   6.406  13.078  0.00  0.00    +0.000 OA
BRANCH  16  21
ATOM     17  C   UNL     1      44.876   4.371  10.244  0.00  0.00    +0.000 A 
ATOM     18  C   UNL     1      44.006   3.442  10.817  0.00  0.00    +0.000 A 
ATOM     19  C   UNL     1      43.746   3.484  12.186  0.00  0.00    +0.000 A 
ATOM     20  C   UNL     1      44.349   4.461  12.982  0.00  0.00    +0.000 A 
ATOM     21  C   UNL     1      45.208   5.402  12.412  0.00  0.00    +0.000 A 
ATOM     22  C   UNL     1      45.466   5.360  11.040  0.00  0.00    +0.000 A 
BRANCH  17  24
ATOM     23  N   UNL     1      44.326   3.489   8.047  0.00  0.00    +0.000 N 
ATOM     24  C   UNL     1      45.145   4.293   8.786  0.00  0.00    +0.000 C 
ATOM     25  O   UNL     1      46.031   4.954   8.261  0.00  0.00    +0.000 OA
ATOM     26  H   UNL     1      44.446   3.519   7.044  0.00  0.00    +0.000 HD
ATOM     27  H   UNL     1      43.454   3.118   8.407  0.00  0.00    +0.000 HD
ENDBRANCH  17  24
ENDBRANCH  16  21
ENDBRANCH  15  16
ENDBRANCH   1  15
TORSDOF 5
ENDMDL
MODEL 9
REMARK VINA RESULT:    -6.647      4.345      6.119
REMARK INTER + INTRA:          -8.813
REMARK INTER:                  -8.136
REMARK INTRA:                  -0.677
REMARK UNBOUND:                -0.223
REMARK  Name = 
REMARK  5 active torsions:
REMARK  status: ('A' for Active; 'I' for Inactive)
REMARK    1  A    between atoms: C_2  and  C_4
REMARK    2  A    between atoms: C_8  and  O_9
REMARK    3  A    between atoms: O_9  and  C_10
REMARK    4  A    between atoms: C_10  and  C_11
REMARK    5  A    between atoms: C_16  and  C_17
REMARK                            x       y       z     vdW  Elec       q    Type
REMARK                         _______ _______ _______ _____ _____    ______ ____
ROOT
ATOM      1  C   UNL     1      48.134   5.425  16.165  0.00  0.00    +0.000 A 
ATOM      2  C   UNL     1      47.472   4.203  16.292  0.00  0.00    +0.000 A 
ATOM      3  C   UNL     1      47.508   3.531  17.505  0.00  0.00    +0.000 A 
ATOM      4  F   UNL     1      46.879   2.355  17.625  0.00  0.00    +0.000 F 
ATOM      5  C   UNL     1      48.222   4.036  18.588  0.00  0.00    +0.000 A 
ATOM      6  C   UNL     1      48.949   5.226  18.470  0.00  0.00    +0.000 A 
ATOM      7  C   UNL     1      48.827   5.948  17.268  0.00  0.00    +0.000 A 
ENDROOT
BRANCH   6   8
ATOM      8  C   UNL     1      49.904   5.746  19.544  0.00  0.00    +0.000 C 
ATOM      9  C   UNL     1      49.540   5.180  20.936  0.00  0.00    +0.000 C 
ATOM     10  C   UNL     1      48.289   5.849  21.507  0.00  0.00    +0.000 C 
ATOM     11  N   UNL     1      48.455   7.299  21.627  0.00  0.00    +0.000 NA
ATOM     12  C   UNL     1      48.790   7.913  20.345  0.00  0.00    +0.000 C 
ATOM     13  C   UNL     1      50.016   7.279  19.682  0.00  0.00    +0.000 C 
ATOM     14  H   UNL     1      49.197   7.496  22.300  0.00  0.00    +0.000 HD
ENDBRANCH   6   8
BRANCH   1  15
ATOM     15  C   UNL     1      48.131   6.161  14.854  0.00  0.00    +0.000 C 
BRANCH  15  16
ATOM     16  O   UNL     1      47.881   5.228  13.811  0.00  0.00    +0.000 OA
BRANCH  16  21
ATOM     17  C   UNL     1      44.797   4.676  11.991  0.00  0.00    +0.000 A 
ATOM     18  C   UNL     1      44.614   5.885  11.319  0.00  0.00    +0.000 A 
ATOM     19  C   UNL     1      45.535   6.919  11.484  0.00  0.00    +0.000 A 
ATOM     20  C   UNL     1      46.644   6.742  12.314  0.00  0.00    +0.000 A 
ATOM     21  C   UNL     1      46.839   5.528  12.977  0.00  0.00    +0.000 A 
ATOM     22  C   UNL     1      45.918   4.493  12.809  0.00  0.00    +0.000 A 
BRANCH  17  24
ATOM     23  N   UNL     1      43.948   2.471  12.560  0.00  0.00    +0.000 N 
ATOM     24  C   UNL     1      43.792   3.598  11.808  0.00  0.00    +0.000 C 
ATOM     25  O   UNL     1      42.840   3.732  11.051  0.00  0.00    +0.000 OA
ATOM     26  H   UNL     1      43.207   1.785  12.509  0.00  0.00    +0.000 HD
ATOM     27  H   UNL     1      44.579   2.424  13.352  0.00  0.00    +0.000 HD
ENDBRANCH  17  24
ENDBRANCH  16  21
ENDBRANCH  15  16
ENDBRANCH   1  15
TORSDOF 5
ENDMDL
