MODEL 1
REMARK VINA RESULT:    -7.541      0.000      0.000
REMARK INTER + INTRA:         -10.031
REMARK INTER:                  -9.745
REMARK INTRA:                  -0.286
REMARK UNBOUND:                -0.286
REMARK  Name = 
REMARK  6 active torsions:
REMARK  status: ('A' for Active; 'I' for Inactive)
REMARK    1  A    between atoms: C_1  and  C_2
REMARK    2  A    between atoms: C_2  and  C_3
REMARK    3  A    between atoms: C_3  and  C_4
REMARK    4  A    between atoms: C_8  and  C_9
REMARK    5  A    between atoms: C_9  and  N_10
REMARK    6  A    between atoms: C_14  and  C_15
REMARK                            x       y       z     vdW  Elec       q    Type
REMARK                         _______ _______ _______ _____ _____    ______ ____
ROOT
ATOM      1  N   UNL     1      43.818   3.602  10.537  0.00  0.00    +0.000 N 
ATOM      2  C   UNL     1      44.751   3.300   9.534  0.00  0.00    +0.000 A 
ATOM      3  C   UNL     1      44.985   1.968   9.205  0.00  0.00    +0.000 A 
ATOM      4  C   UNL     1      45.884   1.659   8.182  0.00  0.00    +0.000 A 
ATOM      5  C   UNL     1      46.540   2.683   7.502  0.00  0.00    +0.000 A 
ATOM      6  C   UNL     1      46.268   3.978   7.909  0.00  0.00    +0.000 A 
ATOM      7  N   UNL     1      45.404   4.298   8.906  0.00  0.00    +0.000 NA
ATOM      8  H   UNL     1      42.922   3.198  10.284  0.00  0.00    +0.000 HD
ENDROOT
BRANCH   5   9
ATOM      9  C   UNL     1      47.466   2.359   6.394  0.00  0.00    +0.000 C 
ATOM     10  N   UNL     1      47.459   3.142   5.271  0.00  0.00    +0.000 N 
ATOM     11  O   UNL     1      48.229   1.404   6.466  0.00  0.00    +0.000 OA
ATOM     12  H   UNL     1      46.877   3.949   5.102  0.00  0.00    +0.000 HD
ATOM     13  H   UNL     1      48.107   2.877   4.536  0.00  0.00    +0.000 HD
ENDBRANCH   5   9
BRANCH   1  14
ATOM     14  C   UNL     1      43.687   5.042  10.777  0.00  0.00    +0.000 C 
BRANCH  14  19
ATOM     15  C   UNL     1      46.383   5.052  13.495  0.00  0.00    +0.000 A 
ATOM     16  C   UNL     1      46.910   6.340  13.334  0.00  0.00    +0.000 A 
ATOM     17  C   UNL     1      46.355   7.226  12.412  0.00  0.00    +0.000 A 
ATOM     18  C   UNL     1      45.283   6.825  11.614  0.00  0.00    +0.000 A 
ATOM     19  C   UNL     1      44.757   5.530  11.729  0.00  0.00    +0.000 A 
ATOM     20  C   UNL     1      45.306   4.660  12.685  0.00  0.00    +0.000 A 
BRANCH  15  21
ATOM     21  C   UNL     1      47.010   4.075  14.460  0.00  0.00    +0.000 C 
BRANCH  21  23
ATOM     22  C   UNL     1      47.382   3.598  16.902  0.00  0.00    +0.000 C 
ATOM     23  C   UNL     1      47.325   4.678  15.832  0.00  0.00    +0.000 C 
ENDBRANCH  21  23
ENDBRANCH  15  21
ENDBRANCH  14  19
ENDBRANCH   1  14
TORSDOF 5
ENDMDL
MODEL 2
REMARK VINA RESULT:    -7.299      1.098      2.537
REMARK INTER + INTRA:          -9.719
REMARK INTER:                  -9.354
REMARK INTRA:                  -0.365
REMARK UNBOUND:                -0.286
REMARK  Name = 
REMARK  6 active torsions:
REMARK  status: ('A' for Active; 'I' for Inactive)
REMARK    1  A    between atoms: C_1  and  C_2
REMARK    2  A    between atoms: C_2  and  C_3
REMARK    3  A    between atoms: C_3  and  C_4
REMARK    4  A    between atoms: C_8  and  C_9
REMARK    5  A    between atoms: C_9  and  N_10
REMARK    6  A    between atoms: C_14  and  C_15
REMARK                            x       y       z     vdW  Elec       q    Type
REMARK                         _______ _______ _______ _____ _____    ______ ____
ROOT
ATOM      1  N   UNL     1      43.894   3.408  10.410  0.00  0.00    +0.000 N 
ATOM      2  C   UNL     1      44.833   3.158   9.400  0.00  0.00    +0.000 A 
ATOM      3  C   UNL     1      45.102   1.841   9.035  0.00  0.00    +0.000 A 
ATOM      4  C   UNL     1      46.007   1.583   8.004  0.00  0.00    +0.000 A 
ATOM      5  C   UNL     1      46.636   2.642   7.352  0.00  0.00    +0.000 A 
ATOM      6  C   UNL     1      46.331   3.918   7.794  0.00  0.00    +0.000 A 
ATOM      7  N   UNL     1      45.460   4.188   8.799  0.00  0.00    +0.000 NA
ATOM      8  H   UNL     1      43.008   2.987  10.147  0.00  0.00    +0.000 HD
ENDROOT
BRANCH   5   9
ATOM      9  C   UNL     1      47.569   2.371   6.236  0.00  0.00    +0.000 C 
ATOM     10  N   UNL     1      47.438   3.082   5.072  0.00  0.00    +0.000 N 
ATOM     11  O   UNL     1      48.448   1.525   6.336  0.00  0.00    +0.000 OA
ATOM     12  H   UNL     1      46.755   3.799   4.878  0.00  0.00    +0.000 HD
ATOM     13  H   UNL     1      48.097   2.858   4.333  0.00  0.00    +0.000 HD
ENDBRANCH   5   9
BRANCH   1  14
ATOM     14  C   UNL     1      43.726   4.836  10.690  0.00  0.00    +0.000 C 
BRANCH  14  19
ATOM     15  C   UNL     1      46.272   7.147  12.373  0.00  0.00    +0.000 A 
ATOM     16  C   UNL     1      46.628   6.376  13.487  0.00  0.00    +0.000 A 
ATOM     17  C   UNL     1      46.111   5.092  13.657  0.00  0.00    +0.000 A 
ATOM     18  C   UNL     1      45.207   4.572  12.731  0.00  0.00    +0.000 A 
ATOM     19  C   UNL     1      44.806   5.335  11.624  0.00  0.00    +0.000 A 
ATOM     20  C   UNL     1      45.359   6.614  11.449  0.00  0.00    +0.000 A 
BRANCH  15  21
ATOM     21  C   UNL     1      46.793   8.554  12.208  0.00  0.00    +0.000 C 
BRANCH  21  23
ATOM     22  C   UNL     1      49.010   7.714  11.367  0.00  0.00    +0.000 C 
ATOM     23  C   UNL     1      48.315   8.667  12.328  0.00  0.00    +0.000 C 
ENDBRANCH  21  23
ENDBRANCH  15  21
ENDBRANCH  14  19
ENDBRANCH   1  14
TORSDOF 5
ENDMDL
MODEL 3
REMARK VINA RESULT:    -7.094      3.219      7.205
REMARK INTER + INTRA:          -9.454
REMARK INTER:                  -8.980
REMARK INTRA:                  -0.474
REMARK UNBOUND:                -0.286
REMARK  Name = 
REMARK  6 active torsions:
REMARK  status: ('A' for Active; 'I' for Inactive)
REMARK    1  A    between atoms: C_1  and  C_2
REMARK    2  A    between atoms: C_2  and  C_3
REMARK    3  A    between atoms: C_3  and  C_4
REMARK    4  A    between atoms: C_8  and  C_9
REMARK    5  A    between atoms: C_9  and  N_10
REMARK    6  A    between atoms: C_14  and  C_15
REMARK                            x       y       z     vdW  Elec       q    Type
REMARK                         _______ _______ _______ _____ _____    ______ ____
ROOT
ATOM      1  N   UNL     1      45.545   6.307  11.306  0.00  0.00    +0.000 N 
ATOM      2  C   UNL     1      46.167   5.902  12.496  0.00  0.00    +0.000 A 
ATOM      3  C   UNL     1      47.342   6.534  12.896  0.00  0.00    +0.000 A 
ATOM      4  C   UNL     1      47.948   6.163  14.097  0.00  0.00    +0.000 A 
ATOM      5  C   UNL     1      47.377   5.164  14.884  0.00  0.00    +0.000 A 
ATOM      6  C   UNL     1      46.224   4.570  14.400  0.00  0.00    +0.000 A 
ATOM      7  N   UNL     1      45.624   4.911  13.231  0.00  0.00    +0.000 NA
ATOM      8  H   UNL     1      45.342   7.300  11.364  0.00  0.00    +0.000 HD
ENDROOT
BRANCH   5   9
ATOM      9  C   UNL     1      47.999   4.795  16.175  0.00  0.00    +0.000 C 
ATOM     10  N   UNL     1      48.030   5.718  17.186  0.00  0.00    +0.000 N 
ATOM     11  O   UNL     1      48.487   3.686  16.348  0.00  0.00    +0.000 OA
ATOM     12  H   UNL     1      47.662   6.657  17.157  0.00  0.00    +0.000 HD
ATOM     13  H   UNL     1      48.471   5.421  18.051  0.00  0.00    +0.000 HD
ENDBRANCH   5   9
BRANCH   1  14
ATOM     14  C   UNL     1      44.328   5.546  11.013  0.00  0.00    +0.000 C 
BRANCH  14  19
ATOM     15  C   UNL     1      45.760   3.648   8.012  0.00  0.00    +0.000 A 
ATOM     16  C   UNL     1      45.352   2.342   8.310  0.00  0.00    +0.000 A 
ATOM     17  C   UNL     1      44.559   2.083   9.427  0.00  0.00    +0.000 A 
ATOM     18  C   UNL     1      44.187   3.123  10.279  0.00  0.00    +0.000 A 
ATOM     19  C   UNL     1      44.610   4.435  10.024  0.00  0.00    +0.000 A 
ATOM     20  C   UNL     1      45.382   4.687   8.879  0.00  0.00    +0.000 A 
BRANCH  15  21
ATOM     21  C   UNL     1      46.657   3.928   6.830  0.00  0.00    +0.000 C 
BRANCH  21  23
ATOM     22  C   UNL     1      48.023   1.960   6.062  0.00  0.00    +0.000 C 
ATOM     23  C   UNL     1      46.752   2.765   5.839  0.00  0.00    +0.000 C 
ENDBRANCH  21  23
ENDBRANCH  15  21
ENDBRANCH  14  19
ENDBRANCH   1  14
TORSDOF 5
ENDMDL
MODEL 4
REMARK VINA RESULT:    -6.816      3.356      6.827
REMARK INTER + INTRA:          -9.094
REMARK INTER:                  -8.565
REMARK INTRA:                  -0.529
REMARK UNBOUND:                -0.286
REMARK  Name = 
REMARK  6 active torsions:
REMARK  status: ('A' for Active; 'I' for Inactive)
REMARK    1  A    between atoms: C_1  and  C_2
REMARK    2  A    between atoms: C_2  and  C_3
REMARK    3  A    between atoms: C_3  and  C_4
REMARK    4  A    between atoms: C_8  and  C_9
REMARK    5  A    between atoms: C_9  and  N_10
REMARK    6  A    between atoms: C_14  and  C_15
REMARK                            x       y       z     vdW  Elec       q    Type
REMARK                         _______ _______ _______ _____ _____    ______ ____
ROOT
ATOM      1  N   UNL     1      45.013   4.965  12.511  0.00  0.00    +0.000 N 
ATOM      2  C   UNL     1      46.198   5.686  12.719  0.00  0.00    +0.000 A 
ATOM      3  C   UNL     1      46.937   5.456  13.876  0.00  0.00    +0.000 A 
ATOM      4  C   UNL     1      48.137   6.141  14.074  0.00  0.00    +0.000 A 
ATOM      5  C   UNL     1      48.583   7.051  13.117  0.00  0.00    +0.000 A 
ATOM      6  C   UNL     1      47.775   7.238  12.008  0.00  0.00    +0.000 A 
ATOM      7  N   UNL     1      46.601   6.587  11.802  0.00  0.00    +0.000 NA
ATOM      8  H   UNL     1      45.225   3.972  12.534  0.00  0.00    +0.000 HD
ENDROOT
BRANCH   5   9
ATOM      9  C   UNL     1      49.872   7.752  13.309  0.00  0.00    +0.000 C 
ATOM     10  N   UNL     1      50.847   7.624  12.355  0.00  0.00    +0.000 N 
ATOM     11  O   UNL     1      50.079   8.436  14.303  0.00  0.00    +0.000 OA
ATOM     12  H   UNL     1      50.788   7.089  11.501  0.00  0.00    +0.000 HD
ATOM     13  H   UNL     1      51.715   8.118  12.533  0.00  0.00    +0.000 HD
ENDBRANCH   5   9
BRANCH   1  14
ATOM     14  C   UNL     1      44.342   5.321  11.258  0.00  0.00    +0.000 C 
BRANCH  14  19
ATOM     15  C   UNL     1      45.703   3.608   8.116  0.00  0.00    +0.000 A 
ATOM     16  C   UNL     1      45.280   2.291   8.333  0.00  0.00    +0.000 A 
ATOM     17  C   UNL     1      44.499   1.968   9.442  0.00  0.00    +0.000 A 
ATOM     18  C   UNL     1      44.155   2.955  10.367  0.00  0.00    +0.000 A 
ATOM     19  C   UNL     1      44.594   4.275  10.194  0.00  0.00    +0.000 A 
ATOM     20  C   UNL     1      45.353   4.591   9.056  0.00  0.00    +0.000 A 
BRANCH  15  21
ATOM     21  C   UNL     1      46.587   3.953   6.942  0.00  0.00    +0.000 C 
BRANCH  21  23
ATOM     22  C   UNL     1      47.992   2.071   6.041  0.00  0.00    +0.000 C 
ATOM     23  C   UNL     1      46.687   2.839   5.896  0.00  0.00    +0.000 C 
ENDBRANCH  21  23
ENDBRANCH  15  21
ENDBRANCH  14  19
ENDBRANCH   1  14
TORSDOF 5
ENDMDL
MODEL 5
REMARK VINA RESULT:    -6.582      4.066      7.407
REMARK INTER + INTRA:          -8.792
REMARK INTER:                  -8.267
REMARK INTRA:                  -0.526
REMARK UNBOUND:                -0.286
REMARK  Name = 
REMARK  6 active torsions:
REMARK  status: ('A' for Active; 'I' for Inactive)
REMARK    1  A    between atoms: C_1  and  C_2
REMARK    2  A    between atoms: C_2  and  C_3
REMARK    3  A    between atoms: C_3  and  C_4
REMARK    4  A    between atoms: C_8  and  C_9
REMARK    5  A    between atoms: C_9  and  N_10
REMARK    6  A    between atoms: C_14  and  C_15
REMARK                            x       y       z     vdW  Elec       q    Type
REMARK                         _______ _______ _______ _____ _____    ______ ____
ROOT
ATOM      1  N   UNL     1      45.263   5.921  12.052  0.00  0.00    +0.000 N 
ATOM      2  C   UNL     1      45.362   7.319  11.998  0.00  0.00    +0.000 A 
ATOM      3  C   UNL     1      46.459   7.944  12.587  0.00  0.00    +0.000 A 
ATOM      4  C   UNL     1      46.586   9.331  12.506  0.00  0.00    +0.000 A 
ATOM      5  C   UNL     1      45.616  10.080  11.842  0.00  0.00    +0.000 A 
ATOM      6  C   UNL     1      44.546   9.382  11.307  0.00  0.00    +0.000 A 
ATOM      7  N   UNL     1      44.401   8.035  11.383  0.00  0.00    +0.000 NA
ATOM      8  H   UNL     1      46.094   5.517  11.633  0.00  0.00    +0.000 HD
ENDROOT
BRANCH   5   9
ATOM      9  C   UNL     1      45.768  11.547  11.725  0.00  0.00    +0.000 C 
ATOM     10  N   UNL     1      46.728  12.178  12.471  0.00  0.00    +0.000 N 
ATOM     11  O   UNL     1      45.050  12.200  10.979  0.00  0.00    +0.000 OA
ATOM     12  H   UNL     1      47.372  11.745  13.115  0.00  0.00    +0.000 HD
ATOM     13  H   UNL     1      46.790  13.185  12.360  0.00  0.00    +0.000 HD
ENDBRANCH   5   9
BRANCH   1  14
ATOM     14  C   UNL     1      44.054   5.412  11.400  0.00  0.00    +0.000 C 
BRANCH  14  19
ATOM     15  C   UNL     1      45.647   3.703   8.367  0.00  0.00    +0.000 A 
ATOM     16  C   UNL     1      45.253   2.375   8.579  0.00  0.00    +0.000 A 
ATOM     17  C   UNL     1      44.420   2.042   9.646  0.00  0.00    +0.000 A 
ATOM     18  C   UNL     1      43.992   3.029  10.535  0.00  0.00    +0.000 A 
ATOM     19  C   UNL     1      44.399   4.361  10.368  0.00  0.00    +0.000 A 
ATOM     20  C   UNL     1      45.212   4.686   9.270  0.00  0.00    +0.000 A 
BRANCH  15  21
ATOM     21  C   UNL     1      46.585   4.061   7.240  0.00  0.00    +0.000 C 
BRANCH  21  23
ATOM     22  C   UNL     1      48.087   2.218   6.417  0.00  0.00    +0.000 C 
ATOM     23  C   UNL     1      46.766   2.944   6.209  0.00  0.00    +0.000 C 
ENDBRANCH  21  23
ENDBRANCH  15  21
ENDBRANCH  14  19
ENDBRANCH   1  14
TORSDOF 5
ENDMDL
MODEL 6
REMARK VINA RESULT:    -6.532      4.655      8.225
REMARK INTER + INTRA:          -8.727
REMARK INTER:                  -8.223
REMARK INTRA:                  -0.504
REMARK UNBOUND:                -0.286
REMARK  Name = 
REMARK  6 active torsions:
REMARK  status: ('A' for Active; 'I' for Inactive)
REMARK    1  A    between atoms: C_1  and  C_2
REMARK    2  A    between atoms: C_2  and  C_3
REMARK    3  A    between atoms: C_3  and  C_4
REMARK    4  A    between atoms: C_8  and  C_9
REMARK    5  A    between atoms: C_9  and  N_10
REMARK    6  A    between atoms: C_14  and  C_15
REMARK                            x       y       z     vdW  Elec       q    Type
REMARK                         _______ _______ _______ _____ _____    ______ ____
ROOT
ATOM      1  N   UNL     1      46.512   3.928  14.816  0.00  0.00    +0.000 N 
ATOM      2  C   UNL     1      47.359   4.248  15.886  0.00  0.00    +0.000 A 
ATOM      3  C   UNL     1      47.361   3.435  17.017  0.00  0.00    +0.000 A 
ATOM      4  C   UNL     1      48.228   3.724  18.071  0.00  0.00    +0.000 A 
ATOM      5  C   UNL     1      49.081   4.823  17.987  0.00  0.00    +0.000 A 
ATOM      6  C   UNL     1      48.997   5.593  16.840  0.00  0.00    +0.000 A 
ATOM      7  N   UNL     1      48.155   5.333  15.807  0.00  0.00    +0.000 NA
ATOM      8  H   UNL     1      46.721   2.986  14.502  0.00  0.00    +0.000 HD
ENDROOT
BRANCH   5   9
ATOM      9  C   UNL     1      50.026   5.110  19.089  0.00  0.00    +0.000 C 
ATOM     10  N   UNL     1      50.085   4.252  20.156  0.00  0.00    +0.000 N 
ATOM     11  O   UNL     1      50.748   6.098  19.062  0.00  0.00    +0.000 OA
ATOM     12  H   UNL     1      49.541   3.413  20.284  0.00  0.00    +0.000 HD
ATOM     13  H   UNL     1      50.745   4.494  20.888  0.00  0.00    +0.000 HD
ENDBRANCH   5   9
BRANCH   1  14
ATOM     14  C   UNL     1      46.613   4.878  13.705  0.00  0.00    +0.000 C 
BRANCH  14  19
ATOM     15  C   UNL     1      44.258   3.550  10.995  0.00  0.00    +0.000 A 
ATOM     16  C   UNL     1      43.130   4.350  11.215  0.00  0.00    +0.000 A 
ATOM     17  C   UNL     1      43.151   5.360  12.176  0.00  0.00    +0.000 A 
ATOM     18  C   UNL     1      44.291   5.565  12.952  0.00  0.00    +0.000 A 
ATOM     19  C   UNL     1      45.424   4.756  12.778  0.00  0.00    +0.000 A 
ATOM     20  C   UNL     1      45.399   3.764  11.785  0.00  0.00    +0.000 A 
BRANCH  15  21
ATOM     21  C   UNL     1      44.225   2.426   9.988  0.00  0.00    +0.000 C 
BRANCH  21  23
ATOM     22  C   UNL     1      45.194   3.795   8.113  0.00  0.00    +0.000 C 
ATOM     23  C   UNL     1      45.325   2.516   8.926  0.00  0.00    +0.000 C 
ENDBRANCH  21  23
ENDBRANCH  15  21
ENDBRANCH  14  19
ENDBRANCH   1  14
TORSDOF 5
ENDMDL
MODEL 7
REMARK VINA RESULT:    -6.436      3.292      5.657
REMARK INTER + INTRA:          -8.604
REMARK INTER:                  -8.163
REMARK INTRA:                  -0.441
REMARK UNBOUND:                -0.286
REMARK  Name = 
REMARK  6 active torsions:
REMARK  status: ('A' for Active; 'I' for Inactive)
REMARK    1  A    between atoms: C_1  and  C_2
REMARK    2  A    between atoms: C_2  and  C_3
REMARK    3  A    between atoms: C_3  and  C_4
REMARK    4  A    between atoms: C_8  and  C_9
REMARK    5  A    between atoms: C_9  and  N_10
REMARK    6  A    between atoms: C_14  and  C_15
REMARK                            x       y       z     vdW  Elec       q    Type
REMARK                         _______ _______ _______ _____ _____    ______ ____
ROOT
ATOM      1  N   UNL     1      47.031   5.208  14.820  0.00  0.00    +0.000 N 
ATOM      2  C   UNL     1      46.361   4.853  13.641  0.00  0.00    +0.000 A 
ATOM      3  C   UNL     1      46.272   5.781  12.606  0.00  0.00    +0.000 A 
ATOM      4  C   UNL     1      45.639   5.425  11.414  0.00  0.00    +0.000 A 
ATOM      5  C   UNL     1      45.099   4.148  11.270  0.00  0.00    +0.000 A 
ATOM      6  C   UNL     1      45.209   3.296  12.356  0.00  0.00    +0.000 A 
ATOM      7  N   UNL     1      45.813   3.627  13.526  0.00  0.00    +0.000 NA
ATOM      8  H   UNL     1      47.980   5.484  14.588  0.00  0.00    +0.000 HD
ENDROOT
BRANCH   5   9
ATOM      9  C   UNL     1      44.459   3.757   9.994  0.00  0.00    +0.000 C 
ATOM     10  N   UNL     1      43.816   4.712   9.252  0.00  0.00    +0.000 N 
ATOM     11  O   UNL     1      44.494   2.600   9.597  0.00  0.00    +0.000 OA
ATOM     12  H   UNL     1      43.724   5.691   9.480  0.00  0.00    +0.000 HD
ATOM     13  H   UNL     1      43.388   4.395   8.388  0.00  0.00    +0.000 HD
ENDBRANCH   5   9
BRANCH   1  14
ATOM     14  C   UNL     1      47.034   4.135  15.818  0.00  0.00    +0.000 C 
BRANCH  14  19
ATOM     15  C   UNL     1      50.297   2.801  17.311  0.00  0.00    +0.000 A 
ATOM     16  C   UNL     1      50.916   3.998  17.695  0.00  0.00    +0.000 A 
ATOM     17  C   UNL     1      50.260   5.218  17.544  0.00  0.00    +0.000 A 
ATOM     18  C   UNL     1      48.985   5.263  16.980  0.00  0.00    +0.000 A 
ATOM     19  C   UNL     1      48.354   4.084  16.554  0.00  0.00    +0.000 A 
ATOM     20  C   UNL     1      49.015   2.860  16.741  0.00  0.00    +0.000 A 
BRANCH  15  21
ATOM     21  C   UNL     1      51.022   1.482  17.429  0.00  0.00    +0.000 C 
BRANCH  21  23
ATOM     22  C   UNL     1      53.174   0.316  18.008  0.00  0.00    +0.000 C 
ATOM     23  C   UNL     1      52.542   1.622  17.551  0.00  0.00    +0.000 C 
ENDBRANCH  21  23
ENDBRANCH  15  21
ENDBRANCH  14  19
ENDBRANCH   1  14
TORSDOF 5
ENDMDL
MODEL 8
REMARK VINA RESULT:    -6.272      4.992      7.967
REMARK INTER + INTRA:          -8.392
REMARK INTER:                  -7.836
REMARK INTRA:                  -0.556
REMARK UNBOUND:                -0.286
REMARK  Name = 
REMARK  6 active torsions:
REMARK  status: ('A' for Active; 'I' for Inactive)
REMARK    1  A    between atoms: C_1  and  C_2
REMARK    2  A    between atoms: C_2  and  C_3
REMARK    3  A    between atoms: C_3  and  C_4
REMARK    4  A    between atoms: C_8  and  C_9
REMARK    5  A    between atoms: C_9  and  N_10
REMARK    6  A    between atoms: C_14  and  C_15
REMARK                            x       y       z     vdW  Elec       q    Type
REMARK                         _______ _______ _______ _____ _____    ______ ____
ROOT
ATOM      1  N   UNL     1      47.678   4.973  16.313  0.00  0.00    +0.000 N 
ATOM      2  C   UNL     1      48.732   4.110  16.645  0.00  0.00    +0.000 A 
ATOM      3  C   UNL     1      49.737   4.561  17.497  0.00  0.00    +0.000 A 
ATOM      4  C   UNL     1      50.770   3.697  17.862  0.00  0.00    +0.000 A 
ATOM      5  C   UNL     1      50.791   2.393  17.370  0.00  0.00    +0.000 A 
ATOM      6  C   UNL     1      49.768   2.033  16.509  0.00  0.00    +0.000 A 
ATOM      7  N   UNL     1      48.759   2.862  16.136  0.00  0.00    +0.000 NA
ATOM      8  H   UNL     1      47.225   5.281  17.168  0.00  0.00    +0.000 HD
ENDROOT
BRANCH   5   9
ATOM      9  C   UNL     1      51.866   1.465  17.785  0.00  0.00    +0.000 C 
ATOM     10  N   UNL     1      51.534   0.197  18.183  0.00  0.00    +0.000 N 
ATOM     11  O   UNL     1      53.040   1.813  17.781  0.00  0.00    +0.000 OA
ATOM     12  H   UNL     1      50.606  -0.197  18.226  0.00  0.00    +0.000 HD
ATOM     13  H   UNL     1      52.304  -0.401  18.463  0.00  0.00    +0.000 HD
ENDBRANCH   5   9
BRANCH   1  14
ATOM     14  C   UNL     1      46.706   4.362  15.403  0.00  0.00    +0.000 C 
BRANCH  14  19
ATOM     15  C   UNL     1      45.731   5.389  11.847  0.00  0.00    +0.000 A 
ATOM     16  C   UNL     1      46.648   6.422  11.613  0.00  0.00    +0.000 A 
ATOM     17  C   UNL     1      47.622   6.736  12.560  0.00  0.00    +0.000 A 
ATOM     18  C   UNL     1      47.673   6.042  13.769  0.00  0.00    +0.000 A 
ATOM     19  C   UNL     1      46.746   5.026  14.045  0.00  0.00    +0.000 A 
ATOM     20  C   UNL     1      45.791   4.700  13.069  0.00  0.00    +0.000 A 
BRANCH  15  21
ATOM     21  C   UNL     1      44.647   5.076  10.844  0.00  0.00    +0.000 C 
BRANCH  21  23
ATOM     22  C   UNL     1      42.382   5.458  11.870  0.00  0.00    +0.000 C 
ATOM     23  C   UNL     1      43.410   4.415  11.459  0.00  0.00    +0.000 C 
ENDBRANCH  21  23
ENDBRANCH  15  21
ENDBRANCH  14  19
ENDBRANCH   1  14
TORSDOF 5
ENDMDL
MODEL 9
REMARK VINA RESULT:    -6.133      3.357      5.967
REMARK INTER + INTRA:          -8.212
REMARK INTER:                  -7.723
REMARK INTRA:                  -0.489
REMARK UNBOUND:                -0.286
REMARK  Name = 
REMARK  6 active torsions:
REMARK  status: ('A' for Active; 'I' for Inactive)
REMARK    1  A    between atoms: C_1  and  C_2
REMARK    2  A    between atoms: C_2  and  C_3
REMARK    3  A    between atoms: C_3  and  C_4
REMARK    4  A    between atoms: C_8  and  C_9
REMARK    5  A    between atoms: C_9  and  N_10
REMARK    6  A    between atoms: C_14  and  C_15
REMARK                            x       y       z     vdW  Elec       q    Type
REMARK                         _______ _______ _______ _____ _____    ______ ____
ROOT
ATOM      1  N   UNL     1      47.296   5.338  15.032  0.00  0.00    +0.000 N 
ATOM      2  C   UNL     1      46.588   5.063  13.854  0.00  0.00    +0.000 A 
ATOM      3  C   UNL     1      46.470   6.057  12.886  0.00  0.00    +0.000 A 
ATOM      4  C   UNL     1      45.799   5.781  11.693  0.00  0.00    +0.000 A 
ATOM      5  C   UNL     1      45.250   4.518  11.482  0.00  0.00    +0.000 A 
ATOM      6  C   UNL     1      45.391   3.596  12.506  0.00  0.00    +0.000 A 
ATOM      7  N   UNL     1      46.033   3.848  13.675  0.00  0.00    +0.000 NA
ATOM      8  H   UNL     1      48.238   5.627  14.789  0.00  0.00    +0.000 HD
ENDROOT
BRANCH   5   9
ATOM      9  C   UNL     1      44.569   4.212  10.204  0.00  0.00    +0.000 C 
ATOM     10  N   UNL     1      45.022   4.800   9.052  0.00  0.00    +0.000 N 
ATOM     11  O   UNL     1      43.612   3.451  10.163  0.00  0.00    +0.000 OA
ATOM     12  H   UNL     1      45.797   5.440   8.967  0.00  0.00    +0.000 HD
ATOM     13  H   UNL     1      44.520   4.564   8.202  0.00  0.00    +0.000 HD
ENDBRANCH   5   9
BRANCH   1  14
ATOM     14  C   UNL     1      47.326   4.202  15.956  0.00  0.00    +0.000 C 
BRANCH  14  19
ATOM     15  C   UNL     1      48.013   5.461  19.506  0.00  0.00    +0.000 A 
ATOM     16  C   UNL     1      49.327   5.014  19.692  0.00  0.00    +0.000 A 
ATOM     17  C   UNL     1      50.014   4.378  18.659  0.00  0.00    +0.000 A 
ATOM     18  C   UNL     1      49.386   4.154  17.433  0.00  0.00    +0.000 A 
ATOM     19  C   UNL     1      48.059   4.560  17.230  0.00  0.00    +0.000 A 
ATOM     20  C   UNL     1      47.390   5.227  18.269  0.00  0.00    +0.000 A 
BRANCH  15  21
ATOM     21  C   UNL     1      47.249   6.109  20.635  0.00  0.00    +0.000 C 
BRANCH  21  23
ATOM     22  C   UNL     1      47.558   8.509  19.946  0.00  0.00    +0.000 C 
ATOM     23  C   UNL     1      47.794   7.480  21.043  0.00  0.00    +0.000 C 
ENDBRANCH  21  23
ENDBRANCH  15  21
ENDBRANCH  14  19
ENDBRANCH   1  14
TORSDOF 5
ENDMDL
