MODEL 1
REMARK VINA RESULT:    -8.966      0.000      0.000
REMARK INTER + INTRA:         -12.891
REMARK INTER:                 -12.111
REMARK INTRA:                  -0.780
REMARK UNBOUND:                -0.780
REMARK  Name = 
REMARK  6 active torsions:
REMARK  status: ('A' for Active; 'I' for Inactive)
REMARK    1  A    between atoms: C_2  and  C_4
REMARK    2  A    between atoms: N_8  and  C_9
REMARK    3  A    between atoms: C_9  and  C_10
REMARK    4  A    between atoms: C_10  and  C_11
REMARK    5  A    between atoms: C_15  and  O_16
REMARK    6  A    between atoms: O_16  and  C_17
REMARK                            x       y       z     vdW  Elec       q    Type
REMARK                         _______ _______ _______ _____ _____    ______ ____
ROOT
ATOM      1  C   UNL     1      43.213   4.413  11.130  0.00  0.00    +0.000 C 
ENDROOT
BRANCH   1   6
ATOM      2  C   UNL     1      46.502   2.525   7.745  0.00  0.00    +0.000 A 
ATOM      3  C   UNL     1      45.624   1.865   8.597  0.00  0.00    +0.000 A 
ATOM      4  C   UNL     1      44.689   2.607   9.317  0.00  0.00    +0.000 A 
ATOM      5  C   UNL     1      44.658   3.994   9.196  0.00  0.00    +0.000 A 
ATOM      6  N   UNL     1      43.692   4.787   9.804  0.00  0.00    +0.000 N 
ATOM      7  N   UNL     1      45.535   4.649   8.407  0.00  0.00    +0.000 NA
ATOM      8  C   UNL     1      46.436   3.909   7.705  0.00  0.00    +0.000 A 
ATOM      9  H   UNL     1      43.988   5.755   9.687  0.00  0.00    +0.000 HD
BRANCH   2  11
ATOM     10  N   UNL     1      48.502   2.560   6.373  0.00  0.00    +0.000 N 
ATOM     11  C   UNL     1      47.478   1.816   6.888  0.00  0.00    +0.000 C 
ATOM     12  O   UNL     1      47.396   0.615   6.685  0.00  0.00    +0.000 OA
ATOM     13  H   UNL     1      49.230   2.050   5.887  0.00  0.00    +0.000 HD
ATOM     14  H   UNL     1      48.740   3.479   6.722  0.00  0.00    +0.000 HD
ENDBRANCH   2  11
ENDBRANCH   1   6
BRANCH   1  15
ATOM     15  C   UNL     1      43.370   5.576  12.122  0.00  0.00    +0.000 C 
BRANCH  15  16
ATOM     16  C   UNL     1      44.780   5.616  12.667  0.00  0.00    +0.000 A 
ATOM     17  C   UNL     1      45.643   6.649  12.275  0.00  0.00    +0.000 A 
ATOM     18  C   UNL     1      46.977   6.640  12.675  0.00  0.00    +0.000 A 
ATOM     19  C   UNL     1      47.461   5.616  13.487  0.00  0.00    +0.000 A 
ATOM     20  C   UNL     1      46.604   4.611  13.938  0.00  0.00    +0.000 A 
ATOM     21  C   UNL     1      45.275   4.596  13.501  0.00  0.00    +0.000 A 
BRANCH  20  22
ATOM     22  O   UNL     1      46.997   3.585  14.763  0.00  0.00    +0.000 OA
BRANCH  22  23
ATOM     23  C   UNL     1      47.889   3.964  15.826  0.00  0.00    +0.000 C 
ATOM     24  C   UNL     1      48.375   2.745  16.596  0.00  0.00    +0.000 C 
ATOM     25  C   UNL     1      47.397   2.605  17.745  0.00  0.00    +0.000 C 
ATOM     26  N   UNL     1      46.979   3.961  18.096  0.00  0.00    +0.000 NA
ATOM     27  C   UNL     1      47.126   4.780  16.880  0.00  0.00    +0.000 C 
ATOM     28  H   UNL     1      47.589   4.329  18.825  0.00  0.00    +0.000 HD
ENDBRANCH  22  23
ENDBRANCH  20  22
ENDBRANCH  15  16
ENDBRANCH   1  15
TORSDOF 6
ENDMDL
MODEL 2
REMARK VINA RESULT:    -8.388      2.533      3.798
REMARK INTER + INTRA:         -12.110
REMARK INTER:                 -11.092
REMARK INTRA:                  -1.018
REMARK UNBOUND:                -0.780
REMARK  Name = 
REMARK  6 active torsions:
REMARK  status: ('A' for Active; 'I' for Inactive)
REMARK    1  A    between atoms: C_2  and  C_4
REMARK    2  A    between atoms: N_8  and  C_9
REMARK    3  A    between atoms: C_9  and  C_10
REMARK    4  A    between atoms: C_10  and  C_11
REMARK    5  A    between atoms: C_15  and  O_16
REMARK    6  A    between atoms: O_16  and  C_17
REMARK                            x       y       z     vdW  Elec       q    Type
REMARK                         _______ _______ _______ _____ _____    ______ ____
ROOT
ATOM      1  C   UNL     1      43.200   4.490  11.107  0.00  0.00    +0.000 C 
ENDROOT
BRANCH   1   6
ATOM      2  C   UNL     1      46.448   2.480   7.753  0.00  0.00    +0.000 A 
ATOM      3  C   UNL     1      45.590   1.851   8.647  0.00  0.00    +0.000 A 
ATOM      4  C   UNL     1      44.660   2.617   9.350  0.00  0.00    +0.000 A 
ATOM      5  C   UNL     1      44.617   3.997   9.170  0.00  0.00    +0.000 A 
ATOM      6  N   UNL     1      43.655   4.809   9.759  0.00  0.00    +0.000 N 
ATOM      7  N   UNL     1      45.476   4.623   8.338  0.00  0.00    +0.000 NA
ATOM      8  C   UNL     1      46.371   3.860   7.654  0.00  0.00    +0.000 A 
ATOM      9  H   UNL     1      43.941   5.773   9.595  0.00  0.00    +0.000 HD
BRANCH   2  11
ATOM     10  N   UNL     1      48.503   2.438   6.464  0.00  0.00    +0.000 N 
ATOM     11  C   UNL     1      47.416   1.741   6.911  0.00  0.00    +0.000 C 
ATOM     12  O   UNL     1      47.271   0.554   6.663  0.00  0.00    +0.000 OA
ATOM     13  H   UNL     1      49.219   1.901   5.989  0.00  0.00    +0.000 HD
ATOM     14  H   UNL     1      48.780   3.329   6.854  0.00  0.00    +0.000 HD
ENDBRANCH   2  11
ENDBRANCH   1   6
BRANCH   1  15
ATOM     15  C   UNL     1      43.481   5.651  12.073  0.00  0.00    +0.000 C 
BRANCH  15  16
ATOM     16  C   UNL     1      44.903   5.580  12.584  0.00  0.00    +0.000 A 
ATOM     17  C   UNL     1      45.392   4.372  13.099  0.00  0.00    +0.000 A 
ATOM     18  C   UNL     1      46.658   4.315  13.677  0.00  0.00    +0.000 A 
ATOM     19  C   UNL     1      47.459   5.454  13.729  0.00  0.00    +0.000 A 
ATOM     20  C   UNL     1      47.015   6.653  13.168  0.00  0.00    +0.000 A 
ATOM     21  C   UNL     1      45.727   6.721  12.626  0.00  0.00    +0.000 A 
BRANCH  20  22
ATOM     22  O   UNL     1      47.756   7.810  13.153  0.00  0.00    +0.000 OA
BRANCH  22  23
ATOM     23  C   UNL     1      48.236   8.209  11.857  0.00  0.00    +0.000 C 
ATOM     24  C   UNL     1      49.638   7.674  11.603  0.00  0.00    +0.000 C 
ATOM     25  C   UNL     1      50.560   8.786  12.060  0.00  0.00    +0.000 C 
ATOM     26  N   UNL     1      49.858  10.040  11.788  0.00  0.00    +0.000 NA
ATOM     27  C   UNL     1      48.416   9.734  11.816  0.00  0.00    +0.000 C 
ATOM     28  H   UNL     1      50.111  10.379  10.862  0.00  0.00    +0.000 HD
ENDBRANCH  22  23
ENDBRANCH  20  22
ENDBRANCH  15  16
ENDBRANCH   1  15
TORSDOF 6
ENDMDL
MODEL 3
REMARK VINA RESULT:    -7.374      2.241      8.368
REMARK INTER + INTRA:         -10.740
REMARK INTER:                 -10.228
REMARK INTRA:                  -0.513
REMARK UNBOUND:                -0.780
REMARK  Name = 
REMARK  6 active torsions:
REMARK  status: ('A' for Active; 'I' for Inactive)
REMARK    1  A    between atoms: C_2  and  C_4
REMARK    2  A    between atoms: N_8  and  C_9
REMARK    3  A    between atoms: C_9  and  C_10
REMARK    4  A    between atoms: C_10  and  C_11
REMARK    5  A    between atoms: C_15  and  O_16
REMARK    6  A    between atoms: O_16  and  C_17
REMARK                            x       y       z     vdW  Elec       q    Type
REMARK                         _______ _______ _______ _____ _____    ______ ____
ROOT
ATOM      1  C   UNL     1      47.058   6.106  12.656  0.00  0.00    +0.000 C 
ENDROOT
BRANCH   1   6
ATOM      2  C   UNL     1      48.586   4.232  17.127  0.00  0.00    +0.000 A 
ATOM      3  C   UNL     1      48.676   5.526  16.627  0.00  0.00    +0.000 A 
ATOM      4  C   UNL     1      48.026   5.840  15.434  0.00  0.00    +0.000 A 
ATOM      5  C   UNL     1      47.318   4.858  14.748  0.00  0.00    +0.000 A 
ATOM      6  N   UNL     1      46.564   5.121  13.610  0.00  0.00    +0.000 N 
ATOM      7  N   UNL     1      47.261   3.588  15.201  0.00  0.00    +0.000 NA
ATOM      8  C   UNL     1      47.894   3.300  16.370  0.00  0.00    +0.000 A 
ATOM      9  H   UNL     1      46.285   4.220  13.225  0.00  0.00    +0.000 HD
BRANCH   2  11
ATOM     10  N   UNL     1      48.402   3.071  19.249  0.00  0.00    +0.000 N 
ATOM     11  C   UNL     1      49.182   3.826  18.419  0.00  0.00    +0.000 C 
ATOM     12  O   UNL     1      50.332   4.117  18.712  0.00  0.00    +0.000 OA
ATOM     13  H   UNL     1      48.852   2.698  20.076  0.00  0.00    +0.000 HD
ATOM     14  H   UNL     1      47.559   2.607  18.935  0.00  0.00    +0.000 HD
ENDBRANCH   2  11
ENDBRANCH   1   6
BRANCH   1  15
ATOM     15  C   UNL     1      45.899   6.776  11.902  0.00  0.00    +0.000 C 
BRANCH  15  16
ATOM     16  C   UNL     1      45.372   5.857  10.823  0.00  0.00    +0.000 A 
ATOM     17  C   UNL     1      44.153   5.192  11.016  0.00  0.00    +0.000 A 
ATOM     18  C   UNL     1      43.707   4.256  10.086  0.00  0.00    +0.000 A 
ATOM     19  C   UNL     1      44.458   3.986   8.944  0.00  0.00    +0.000 A 
ATOM     20  C   UNL     1      45.645   4.680   8.702  0.00  0.00    +0.000 A 
ATOM     21  C   UNL     1      46.114   5.590   9.657  0.00  0.00    +0.000 A 
BRANCH  20  22
ATOM     22  O   UNL     1      46.426   4.494   7.587  0.00  0.00    +0.000 OA
BRANCH  22  23
ATOM     23  C   UNL     1      46.171   3.280   6.859  0.00  0.00    +0.000 C 
ATOM     24  C   UNL     1      46.885   2.097   7.496  0.00  0.00    +0.000 C 
ATOM     25  C   UNL     1      48.211   2.014   6.767  0.00  0.00    +0.000 C 
ATOM     26  N   UNL     1      47.956   2.463   5.399  0.00  0.00    +0.000 NA
ATOM     27  C   UNL     1      46.797   3.372   5.459  0.00  0.00    +0.000 C 
ATOM     28  H   UNL     1      47.724   1.662   4.814  0.00  0.00    +0.000 HD
ENDBRANCH  22  23
ENDBRANCH  20  22
ENDBRANCH  15  16
ENDBRANCH   1  15
TORSDOF 6
ENDMDL
MODEL 4
REMARK VINA RESULT:    -7.067      2.039      2.275
REMARK INTER + INTRA:         -10.326
REMARK INTER:                  -9.582
REMARK INTRA:                  -0.744
REMARK UNBOUND:                -0.780
REMARK  Name = 
REMARK  6 active torsions:
REMARK  status: ('A' for Active; 'I' for Inactive)
REMARK    1  A    between atoms: C_2  and  C_4
REMARK    2  A    between atoms: N_8  and  C_9
REMARK    3  A    between atoms: C_9  and  C_10
REMARK    4  A    between atoms: C_10  and  C_11
REMARK    5  A    between atoms: C_15  and  O_16
REMARK    6  A    between atoms: O_16  and  C_17
REMARK                            x       y       z     vdW  Elec       q    Type
REMARK                         _______ _______ _______ _____ _____    ______ ____
ROOT
ATOM      1  C   UNL     1      43.697   5.104  11.249  0.00  0.00    +0.000 C 
ENDROOT
BRANCH   1   6
ATOM      2  C   UNL     1      46.280   2.738   7.565  0.00  0.00    +0.000 A 
ATOM      3  C   UNL     1      46.219   4.089   7.881  0.00  0.00    +0.000 A 
ATOM      4  C   UNL     1      45.574   4.485   9.054  0.00  0.00    +0.000 A 
ATOM      5  C   UNL     1      44.982   3.532   9.877  0.00  0.00    +0.000 A 
ATOM      6  N   UNL     1      44.412   3.841  11.107  0.00  0.00    +0.000 N 
ATOM      7  N   UNL     1      44.997   2.221   9.558  0.00  0.00    +0.000 NA
ATOM      8  C   UNL     1      45.637   1.851   8.415  0.00  0.00    +0.000 A 
ATOM      9  H   UNL     1      43.922   3.006  11.424  0.00  0.00    +0.000 HD
BRANCH   2  11
ATOM     10  N   UNL     1      47.083   3.046   5.297  0.00  0.00    +0.000 N 
ATOM     11  C   UNL     1      47.004   2.220   6.382  0.00  0.00    +0.000 C 
ATOM     12  O   UNL     1      47.540   1.123   6.391  0.00  0.00    +0.000 OA
ATOM     13  H   UNL     1      47.676   2.737   4.537  0.00  0.00    +0.000 HD
ATOM     14  H   UNL     1      46.878   4.035   5.346  0.00  0.00    +0.000 HD
ENDBRANCH   2  11
ENDBRANCH   1   6
BRANCH   1  15
ATOM     15  C   UNL     1      44.028   5.778  12.590  0.00  0.00    +0.000 C 
BRANCH  15  16
ATOM     16  C   UNL     1      45.491   6.159  12.641  0.00  0.00    +0.000 A 
ATOM     17  C   UNL     1      46.065   6.844  11.561  0.00  0.00    +0.000 A 
ATOM     18  C   UNL     1      47.433   7.103  11.539  0.00  0.00    +0.000 A 
ATOM     19  C   UNL     1      48.242   6.702  12.601  0.00  0.00    +0.000 A 
ATOM     20  C   UNL     1      47.681   6.072  13.713  0.00  0.00    +0.000 A 
ATOM     21  C   UNL     1      46.314   5.774  13.717  0.00  0.00    +0.000 A 
BRANCH  20  22
ATOM     22  O   UNL     1      48.404   5.674  14.812  0.00  0.00    +0.000 OA
BRANCH  22  23
ATOM     23  C   UNL     1      49.229   6.694  15.402  0.00  0.00    +0.000 C 
ATOM     24  C   UNL     1      49.823   6.225  16.722  0.00  0.00    +0.000 C 
ATOM     25  C   UNL     1      48.840   6.701  17.773  0.00  0.00    +0.000 C 
ATOM     26  N   UNL     1      48.276   7.953  17.270  0.00  0.00    +0.000 NA
ATOM     27  C   UNL     1      48.363   7.899  15.800  0.00  0.00    +0.000 C 
ATOM     28  H   UNL     1      48.829   8.738  17.610  0.00  0.00    +0.000 HD
ENDBRANCH  22  23
ENDBRANCH  20  22
ENDBRANCH  15  16
ENDBRANCH   1  15
TORSDOF 6
ENDMDL
MODEL 5
REMARK VINA RESULT:    -6.532      3.353      7.371
REMARK INTER + INTRA:          -9.603
REMARK INTER:                  -8.589
REMARK INTRA:                  -1.014
REMARK UNBOUND:                -0.780
REMARK  Name = 
REMARK  6 active torsions:
REMARK  status: ('A' for Active; 'I' for Inactive)
REMARK    1  A    between atoms: C_2  and  C_4
REMARK    2  A    between atoms: N_8  and  C_9
REMARK    3  A    between atoms: C_9  and  C_10
REMARK    4  A    between atoms: C_10  and  C_11
REMARK    5  A    between atoms: C_15  and  O_16
REMARK    6  A    between atoms: O_16  and  C_17
REMARK                            x       y       z     vdW  Elec       q    Type
REMARK                         _______ _______ _______ _____ _____    ______ ____
ROOT
ATOM      1  C   UNL     1      49.307   8.465  13.868  0.00  0.00    +0.000 C 
ENDROOT
BRANCH   1   6
ATOM      2  C   UNL     1      48.211   4.540  16.907  0.00  0.00    +0.000 A 
ATOM      3  C   UNL     1      47.532   5.020  15.794  0.00  0.00    +0.000 A 
ATOM      4  C   UNL     1      48.123   6.012  15.012  0.00  0.00    +0.000 A 
ATOM      5  C   UNL     1      49.368   6.525  15.364  0.00  0.00    +0.000 A 
ATOM      6  N   UNL     1      50.061   7.439  14.579  0.00  0.00    +0.000 N 
ATOM      7  N   UNL     1      50.017   6.098  16.468  0.00  0.00    +0.000 NA
ATOM      8  C   UNL     1      49.429   5.125  17.215  0.00  0.00    +0.000 A 
ATOM      9  H   UNL     1      50.853   7.763  15.132  0.00  0.00    +0.000 HD
BRANCH   2  11
ATOM     10  N   UNL     1      48.400   3.150  18.887  0.00  0.00    +0.000 N 
ATOM     11  C   UNL     1      47.694   3.440  17.753  0.00  0.00    +0.000 C 
ATOM     12  O   UNL     1      46.664   2.848  17.472  0.00  0.00    +0.000 OA
ATOM     13  H   UNL     1      47.980   2.480  19.520  0.00  0.00    +0.000 HD
ATOM     14  H   UNL     1      49.095   3.775  19.273  0.00  0.00    +0.000 HD
ENDBRANCH   2  11
ENDBRANCH   1   6
BRANCH   1  15
ATOM     15  C   UNL     1      49.067   8.060  12.406  0.00  0.00    +0.000 C 
BRANCH  15  16
ATOM     16  C   UNL     1      47.586   8.059  12.096  0.00  0.00    +0.000 A 
ATOM     17  C   UNL     1      46.834   9.221  12.311  0.00  0.00    +0.000 A 
ATOM     18  C   UNL     1      45.452   9.207  12.140  0.00  0.00    +0.000 A 
ATOM     19  C   UNL     1      44.806   8.041  11.733  0.00  0.00    +0.000 A 
ATOM     20  C   UNL     1      45.543   6.889  11.456  0.00  0.00    +0.000 A 
ATOM     21  C   UNL     1      46.926   6.891  11.668  0.00  0.00    +0.000 A 
BRANCH  20  22
ATOM     22  O   UNL     1      44.985   5.710  11.022  0.00  0.00    +0.000 OA
BRANCH  22  23
ATOM     23  C   UNL     1      45.342   4.547  11.789  0.00  0.00    +0.000 C 
ATOM     24  C   UNL     1      44.825   3.276  11.132  0.00  0.00    +0.000 C 
ATOM     25  C   UNL     1      43.476   3.033  11.778  0.00  0.00    +0.000 C 
ATOM     26  N   UNL     1      43.583   3.528  13.150  0.00  0.00    +0.000 NA
ATOM     27  C   UNL     1      44.621   4.575  13.145  0.00  0.00    +0.000 C 
ATOM     28  H   UNL     1      43.875   2.770  13.765  0.00  0.00    +0.000 HD
ENDBRANCH  22  23
ENDBRANCH  20  22
ENDBRANCH  15  16
ENDBRANCH   1  15
TORSDOF 6
ENDMDL
MODEL 6
REMARK VINA RESULT:    -6.501      3.326      7.947
REMARK INTER + INTRA:          -9.562
REMARK INTER:                  -8.861
REMARK INTRA:                  -0.701
REMARK UNBOUND:                -0.780
REMARK  Name = 
REMARK  6 active torsions:
REMARK  status: ('A' for Active; 'I' for Inactive)
REMARK    1  A    between atoms: C_2  and  C_4
REMARK    2  A    between atoms: N_8  and  C_9
REMARK    3  A    between atoms: C_9  and  C_10
REMARK    4  A    between atoms: C_10  and  C_11
REMARK    5  A    between atoms: C_15  and  O_16
REMARK    6  A    between atoms: O_16  and  C_17
REMARK                            x       y       z     vdW  Elec       q    Type
REMARK                         _______ _______ _______ _____ _____    ______ ____
ROOT
ATOM      1  C   UNL     1      48.731   7.146  16.321  0.00  0.00    +0.000 C 
ENDROOT
BRANCH   1   6
ATOM      2  C   UNL     1      51.173   2.843  17.489  0.00  0.00    +0.000 A 
ATOM      3  C   UNL     1      51.579   4.165  17.636  0.00  0.00    +0.000 A 
ATOM      4  C   UNL     1      50.659   5.188  17.404  0.00  0.00    +0.000 A 
ATOM      5  C   UNL     1      49.361   4.880  17.006  0.00  0.00    +0.000 A 
ATOM      6  N   UNL     1      48.367   5.839  16.855  0.00  0.00    +0.000 N 
ATOM      7  N   UNL     1      48.970   3.603  16.817  0.00  0.00    +0.000 NA
ATOM      8  C   UNL     1      49.876   2.616  17.055  0.00  0.00    +0.000 A 
ATOM      9  H   UNL     1      47.574   5.376  16.413  0.00  0.00    +0.000 HD
BRANCH   2  11
ATOM     10  N   UNL     1      51.449   0.490  18.007  0.00  0.00    +0.000 N 
ATOM     11  C   UNL     1      52.057   1.693  17.783  0.00  0.00    +0.000 C 
ATOM     12  O   UNL     1      53.273   1.806  17.785  0.00  0.00    +0.000 OA
ATOM     13  H   UNL     1      52.059  -0.315  18.090  0.00  0.00    +0.000 HD
ATOM     14  H   UNL     1      50.484   0.311  17.765  0.00  0.00    +0.000 HD
ENDBRANCH   2  11
ENDBRANCH   1   6
BRANCH   1  15
ATOM     15  C   UNL     1      49.140   7.045  14.844  0.00  0.00    +0.000 C 
BRANCH  15  16
ATOM     16  C   UNL     1      47.947   7.297  13.949  0.00  0.00    +0.000 A 
ATOM     17  C   UNL     1      47.374   8.575  13.903  0.00  0.00    +0.000 A 
ATOM     18  C   UNL     1      46.209   8.798  13.174  0.00  0.00    +0.000 A 
ATOM     19  C   UNL     1      45.612   7.756  12.466  0.00  0.00    +0.000 A 
ATOM     20  C   UNL     1      46.199   6.490  12.450  0.00  0.00    +0.000 A 
ATOM     21  C   UNL     1      47.346   6.255  13.216  0.00  0.00    +0.000 A 
BRANCH  20  22
ATOM     22  O   UNL     1      45.690   5.420  11.753  0.00  0.00    +0.000 OA
BRANCH  22  23
ATOM     23  C   UNL     1      44.849   4.539  12.517  0.00  0.00    +0.000 C 
ATOM     24  C   UNL     1      45.026   3.093  12.077  0.00  0.00    +0.000 C 
ATOM     25  C   UNL     1      43.951   2.878  11.031  0.00  0.00    +0.000 C 
ATOM     26  N   UNL     1      42.820   3.716  11.426  0.00  0.00    +0.000 NA
ATOM     27  C   UNL     1      43.372   4.834  12.211  0.00  0.00    +0.000 C 
ATOM     28  H   UNL     1      42.183   3.177  12.012  0.00  0.00    +0.000 HD
ENDBRANCH  22  23
ENDBRANCH  20  22
ENDBRANCH  15  16
ENDBRANCH   1  15
TORSDOF 6
ENDMDL
MODEL 7
REMARK VINA RESULT:    -6.485      3.621      7.765
REMARK INTER + INTRA:          -9.540
REMARK INTER:                  -9.240
REMARK INTRA:                  -0.300
REMARK UNBOUND:                -0.780
REMARK  Name = 
REMARK  6 active torsions:
REMARK  status: ('A' for Active; 'I' for Inactive)
REMARK    1  A    between atoms: C_2  and  C_4
REMARK    2  A    between atoms: N_8  and  C_9
REMARK    3  A    between atoms: C_9  and  C_10
REMARK    4  A    between atoms: C_10  and  C_11
REMARK    5  A    between atoms: C_15  and  O_16
REMARK    6  A    between atoms: O_16  and  C_17
REMARK                            x       y       z     vdW  Elec       q    Type
REMARK                         _______ _______ _______ _____ _____    ______ ____
ROOT
ATOM      1  C   UNL     1      46.001   5.706  13.079  0.00  0.00    +0.000 C 
ENDROOT
BRANCH   1   6
ATOM      2  C   UNL     1      50.420   8.161  12.539  0.00  0.00    +0.000 A 
ATOM      3  C   UNL     1      49.590   7.600  11.575  0.00  0.00    +0.000 A 
ATOM      4  C   UNL     1      48.333   7.127  11.952  0.00  0.00    +0.000 A 
ATOM      5  C   UNL     1      47.934   7.198  13.284  0.00  0.00    +0.000 A 
ATOM      6  N   UNL     1      46.661   6.840  13.714  0.00  0.00    +0.000 N 
ATOM      7  N   UNL     1      48.748   7.700  14.235  0.00  0.00    +0.000 NA
ATOM      8  C   UNL     1      49.968   8.164  13.850  0.00  0.00    +0.000 A 
ATOM      9  H   UNL     1      46.684   6.837  14.733  0.00  0.00    +0.000 HD
BRANCH   2  11
ATOM     10  N   UNL     1      52.839   8.109  12.710  0.00  0.00    +0.000 N 
ATOM     11  C   UNL     1      51.738   8.753  12.220  0.00  0.00    +0.000 C 
ATOM     12  O   UNL     1      51.838   9.747  11.518  0.00  0.00    +0.000 OA
ATOM     13  H   UNL     1      53.739   8.449  12.392  0.00  0.00    +0.000 HD
ATOM     14  H   UNL     1      52.805   7.164  13.069  0.00  0.00    +0.000 HD
ENDBRANCH   2  11
ENDBRANCH   1   6
BRANCH   1  15
ATOM     15  C   UNL     1      45.023   6.174  11.991  0.00  0.00    +0.000 C 
BRANCH  15  16
ATOM     16  C   UNL     1      44.836   5.093  10.950  0.00  0.00    +0.000 A 
ATOM     17  C   UNL     1      44.008   3.998  11.231  0.00  0.00    +0.000 A 
ATOM     18  C   UNL     1      43.913   2.938  10.333  0.00  0.00    +0.000 A 
ATOM     19  C   UNL     1      44.623   2.966   9.134  0.00  0.00    +0.000 A 
ATOM     20  C   UNL     1      45.407   4.074   8.807  0.00  0.00    +0.000 A 
ATOM     21  C   UNL     1      45.536   5.119   9.728  0.00  0.00    +0.000 A 
BRANCH  20  22
ATOM     22  O   UNL     1      46.113   4.191   7.634  0.00  0.00    +0.000 OA
BRANCH  22  23
ATOM     23  C   UNL     1      46.091   3.027   6.790  0.00  0.00    +0.000 C 
ATOM     24  C   UNL     1      46.936   1.906   7.377  0.00  0.00    +0.000 C 
ATOM     25  C   UNL     1      48.301   2.086   6.744  0.00  0.00    +0.000 C 
ATOM     26  N   UNL     1      48.065   2.621   5.404  0.00  0.00    +0.000 NA
ATOM     27  C   UNL     1      46.780   3.340   5.453  0.00  0.00    +0.000 C 
ATOM     28  H   UNL     1      47.994   1.853   4.737  0.00  0.00    +0.000 HD
ENDBRANCH  22  23
ENDBRANCH  20  22
ENDBRANCH  15  16
ENDBRANCH   1  15
TORSDOF 6
ENDMDL
MODEL 8
REMARK VINA RESULT:    -6.415      4.177      6.981
REMARK INTER + INTRA:          -9.445
REMARK INTER:                  -8.497
REMARK INTRA:                  -0.947
REMARK UNBOUND:                -0.780
REMARK  Name = 
REMARK  6 active torsions:
REMARK  status: ('A' for Active; 'I' for Inactive)
REMARK    1  A    between atoms: C_2  and  C_4
REMARK    2  A    between atoms: N_8  and  C_9
REMARK    3  A    between atoms: C_9  and  C_10
REMARK    4  A    between atoms: C_10  and  C_11
REMARK    5  A    between atoms: C_15  and  O_16
REMARK    6  A    between atoms: O_16  and  C_17
REMARK                            x       y       z     vdW  Elec       q    Type
REMARK                         _______ _______ _______ _____ _____    ______ ____
ROOT
ATOM      1  C   UNL     1      47.680   7.537  13.730  0.00  0.00    +0.000 C 
ENDROOT
BRANCH   1   6
ATOM      2  C   UNL     1      44.942   3.808  11.625  0.00  0.00    +0.000 A 
ATOM      3  C   UNL     1      45.115   5.124  11.215  0.00  0.00    +0.000 A 
ATOM      4  C   UNL     1      46.060   5.920  11.864  0.00  0.00    +0.000 A 
ATOM      5  C   UNL     1      46.798   5.399  12.923  0.00  0.00    +0.000 A 
ATOM      6  N   UNL     1      47.824   6.098  13.548  0.00  0.00    +0.000 N 
ATOM      7  N   UNL     1      46.607   4.136  13.358  0.00  0.00    +0.000 NA
ATOM      8  C   UNL     1      45.687   3.371  12.709  0.00  0.00    +0.000 A 
ATOM      9  H   UNL     1      48.086   5.562  14.375  0.00  0.00    +0.000 HD
BRANCH   2  11
ATOM     10  N   UNL     1      44.497   2.209   9.855  0.00  0.00    +0.000 N 
ATOM     11  C   UNL     1      44.016   2.870  10.950  0.00  0.00    +0.000 C 
ATOM     12  O   UNL     1      42.890   2.667  11.377  0.00  0.00    +0.000 OA
ATOM     13  H   UNL     1      43.903   1.485   9.469  0.00  0.00    +0.000 HD
ATOM     14  H   UNL     1      45.483   2.162   9.634  0.00  0.00    +0.000 HD
ENDBRANCH   2  11
ENDBRANCH   1   6
BRANCH   1  15
ATOM     15  C   UNL     1      48.576   8.310  12.749  0.00  0.00    +0.000 C 
BRANCH  15  16
ATOM     16  C   UNL     1      47.798   9.434  12.100  0.00  0.00    +0.000 A 
ATOM     17  C   UNL     1      48.481  10.413  11.366  0.00  0.00    +0.000 A 
ATOM     18  C   UNL     1      47.798  11.515  10.858  0.00  0.00    +0.000 A 
ATOM     19  C   UNL     1      46.425  11.644  11.055  0.00  0.00    +0.000 A 
ATOM     20  C   UNL     1      45.715  10.650  11.732  0.00  0.00    +0.000 A 
ATOM     21  C   UNL     1      46.408   9.564  12.279  0.00  0.00    +0.000 A 
BRANCH  20  22
ATOM     22  O   UNL     1      44.358  10.688  11.941  0.00  0.00    +0.000 OA
BRANCH  22  23
ATOM     23  C   UNL     1      43.555  10.636  10.749  0.00  0.00    +0.000 C 
ATOM     24  C   UNL     1      42.467  11.700  10.772  0.00  0.00    +0.000 C 
ATOM     25  C   UNL     1      41.262  11.001  11.367  0.00  0.00    +0.000 C 
ATOM     26  N   UNL     1      41.345   9.605  10.941  0.00  0.00    +0.000 NA
ATOM     27  C   UNL     1      42.771   9.316  10.706  0.00  0.00    +0.000 C 
ATOM     28  H   UNL     1      40.830   9.483  10.070  0.00  0.00    +0.000 HD
ENDBRANCH  22  23
ENDBRANCH  20  22
ENDBRANCH  15  16
ENDBRANCH   1  15
TORSDOF 6
ENDMDL
MODEL 9
REMARK VINA RESULT:    -6.317      3.128      4.721
REMARK INTER + INTRA:          -9.313
REMARK INTER:                  -8.405
REMARK INTRA:                  -0.907
REMARK UNBOUND:                -0.780
REMARK  Name = 
REMARK  6 active torsions:
REMARK  status: ('A' for Active; 'I' for Inactive)
REMARK    1  A    between atoms: C_2  and  C_4
REMARK    2  A    between atoms: N_8  and  C_9
REMARK    3  A    between atoms: C_9  and  C_10
REMARK    4  A    between atoms: C_10  and  C_11
REMARK    5  A    between atoms: C_15  and  O_16
REMARK    6  A    between atoms: O_16  and  C_17
REMARK                            x       y       z     vdW  Elec       q    Type
REMARK                         _______ _______ _______ _____ _____    ______ ____
ROOT
ATOM      1  C   UNL     1      48.222   8.108  12.783  0.00  0.00    +0.000 C 
ENDROOT
BRANCH   1   6
ATOM      2  C   UNL     1      44.982   4.280  11.950  0.00  0.00    +0.000 A 
ATOM      3  C   UNL     1      45.765   4.557  13.064  0.00  0.00    +0.000 A 
ATOM      4  C   UNL     1      46.451   5.770  13.130  0.00  0.00    +0.000 A 
ATOM      5  C   UNL     1      46.364   6.676  12.076  0.00  0.00    +0.000 A 
ATOM      6  N   UNL     1      46.936   7.942  12.116  0.00  0.00    +0.000 N 
ATOM      7  N   UNL     1      45.643   6.399  10.970  0.00  0.00    +0.000 NA
ATOM      8  C   UNL     1      44.974   5.214  10.925  0.00  0.00    +0.000 A 
ATOM      9  H   UNL     1      46.861   8.329  11.176  0.00  0.00    +0.000 HD
BRANCH   2  11
ATOM     10  N   UNL     1      44.194   2.411  10.620  0.00  0.00    +0.000 N 
ATOM     11  C   UNL     1      44.164   3.053  11.825  0.00  0.00    +0.000 C 
ATOM     12  O   UNL     1      43.525   2.613  12.769  0.00  0.00    +0.000 OA
ATOM     13  H   UNL     1      43.729   1.512  10.576  0.00  0.00    +0.000 HD
ATOM     14  H   UNL     1      44.896   2.600   9.916  0.00  0.00    +0.000 HD
ENDBRANCH   2  11
ENDBRANCH   1   6
BRANCH   1  15
ATOM     15  C   UNL     1      48.140   9.178  13.882  0.00  0.00    +0.000 C 
BRANCH  15  16
ATOM     16  C   UNL     1      48.422   8.565  15.236  0.00  0.00    +0.000 A 
ATOM     17  C   UNL     1      48.454   9.384  16.372  0.00  0.00    +0.000 A 
ATOM     18  C   UNL     1      48.823   8.858  17.608  0.00  0.00    +0.000 A 
ATOM     19  C   UNL     1      49.142   7.507  17.731  0.00  0.00    +0.000 A 
ATOM     20  C   UNL     1      49.058   6.661  16.623  0.00  0.00    +0.000 A 
ATOM     21  C   UNL     1      48.729   7.198  15.374  0.00  0.00    +0.000 A 
BRANCH  20  22
ATOM     22  O   UNL     1      49.327   5.314  16.668  0.00  0.00    +0.000 OA
BRANCH  22  23
ATOM     23  C   UNL     1      48.757   4.615  17.788  0.00  0.00    +0.000 C 
ATOM     24  C   UNL     1      49.113   3.136  17.751  0.00  0.00    +0.000 C 
ATOM     25  C   UNL     1      47.958   2.484  17.019  0.00  0.00    +0.000 C 
ATOM     26  N   UNL     1      46.766   3.261  17.356  0.00  0.00    +0.000 NA
ATOM     27  C   UNL     1      47.225   4.623  17.681  0.00  0.00    +0.000 C 
ATOM     28  H   UNL     1      46.314   2.855  18.175  0.00  0.00    +0.000 HD
ENDBRANCH  22  23
ENDBRANCH  20  22
ENDBRANCH  15  16
ENDBRANCH   1  15
TORSDOF 6
ENDMDL
