MODEL 1
REMARK VINA RESULT:    -8.640      0.000      0.000
REMARK INTER + INTRA:         -13.304
REMARK INTER:                 -12.428
REMARK INTRA:                  -0.876
REMARK UNBOUND:                -0.876
REMARK  Name = 
REMARK  8 active torsions:
REMARK  status: ('A' for Active; 'I' for Inactive)
REMARK    1  A    between atoms: N_1  and  C_2
REMARK    2  A    between atoms: C_2  and  N_3
REMARK    3  A    between atoms: C_2  and  C_19
REMARK    4  A    between atoms: N_3  and  C_4
REMARK    5  A    between atoms: C_4  and  C_5
REMARK    6  A    between atoms: C_8  and  C_9
REMARK    7  A    between atoms: C_9  and  N_10
REMARK    8  A    between atoms: N_10  and  C_11
REMARK                            x       y       z     vdW  Elec       q    Type
REMARK                         _______ _______ _______ _____ _____    ______ ____
ROOT
ATOM      1  N   UNL     1      46.720   4.620  15.696  0.00  0.00    +0.000 NA
ATOM      2  H   UNL     1      46.685   5.435  16.317  0.00  0.00    +0.000 HD
ENDROOT
BRANCH   1   3
ATOM      3  C   UNL     1      47.463   3.608  16.411  0.00  0.00    +0.000 C 
BRANCH   3   4
ATOM      4  C   UNL     1      48.605   4.263  17.160  0.00  0.00    +0.000 A 
ATOM      5  C   UNL     1      48.578   5.523  17.750  0.00  0.00    +0.000 A 
ATOM      6  S   UNL     1      50.011   5.928  18.581  0.00  0.00    +0.000 S 
ATOM      7  C   UNL     1      50.718   4.429  18.199  0.00  0.00    +0.000 A 
ATOM      8  N   UNL     1      51.959   4.100  18.644  0.00  0.00    +0.000 NA
ATOM      9  C   UNL     1      52.346   2.921  18.292  0.00  0.00    +0.000 A 
ATOM     10  N   UNL     1      51.621   2.046  17.525  0.00  0.00    +0.000 N 
ATOM     11  C   UNL     1      50.377   2.350  17.014  0.00  0.00    +0.000 A 
ATOM     12  O   UNL     1      49.768   1.589  16.273  0.00  0.00    +0.000 OA
ATOM     13  C   UNL     1      49.879   3.651  17.425  0.00  0.00    +0.000 A 
ATOM     14  H   UNL     1      51.998   1.145  17.271  0.00  0.00    +0.000 HD
ENDBRANCH   3   4
BRANCH   3  15
ATOM     15  N   UNL     1      46.560   3.049  17.388  0.00  0.00    +0.000 NA
ATOM     16  H   UNL     1      46.008   2.322  16.950  0.00  0.00    +0.000 HD
ATOM     17  H   UNL     1      45.911   3.807  17.594  0.00  0.00    +0.000 HD
ENDBRANCH   3  15
ENDBRANCH   1   3
BRANCH   1  18
ATOM     18  C   UNL     1      47.386   5.066  14.471  0.00  0.00    +0.000 C 
BRANCH  18  19
ATOM     19  C   UNL     1      46.520   4.901  13.250  0.00  0.00    +0.000 A 
ATOM     20  C   UNL     1      46.391   5.929  12.309  0.00  0.00    +0.000 A 
ATOM     21  C   UNL     1      45.644   5.729  11.148  0.00  0.00    +0.000 A 
ATOM     22  C   UNL     1      45.030   4.493  10.899  0.00  0.00    +0.000 A 
ATOM     23  C   UNL     1      45.138   3.475  11.853  0.00  0.00    +0.000 A 
ATOM     24  C   UNL     1      45.872   3.678  13.018  0.00  0.00    +0.000 A 
BRANCH  22  25
ATOM     25  C   UNL     1      44.209   4.265   9.657  0.00  0.00    +0.000 C 
BRANCH  25  26
ATOM     26  N   UNL     1      44.985   4.469   8.431  0.00  0.00    +0.000 NA
ATOM     27  H   UNL     1      45.438   5.382   8.490  0.00  0.00    +0.000 HD
BRANCH  26  28
ATOM     28  C   UNL     1      46.007   3.427   8.234  0.00  0.00    +0.000 C 
ATOM     29  C   UNL     1      46.741   3.668   6.907  0.00  0.00    +0.000 C 
ATOM     30  C   UNL     1      47.738   2.545   6.639  0.00  0.00    +0.000 C 
ATOM     31  O   UNL     1      47.099   1.271   6.658  0.00  0.00    +0.000 OA
ATOM     32  C   UNL     1      46.505   0.988   7.921  0.00  0.00    +0.000 C 
ATOM     33  C   UNL     1      45.426   2.006   8.249  0.00  0.00    +0.000 C 
ENDBRANCH  26  28
ENDBRANCH  25  26
ENDBRANCH  22  25
ENDBRANCH  18  19
ENDBRANCH   1  18
TORSDOF 8
ENDMDL
MODEL 2
REMARK VINA RESULT:    -8.634      0.624      1.085
REMARK INTER + INTRA:         -13.296
REMARK INTER:                 -12.380
REMARK INTRA:                  -0.916
REMARK UNBOUND:                -0.876
REMARK  Name = 
REMARK  8 active torsions:
REMARK  status: ('A' for Active; 'I' for Inactive)
REMARK    1  A    between atoms: N_1  and  C_2
REMARK    2  A    between atoms: C_2  and  N_3
REMARK    3  A    between atoms: C_2  and  C_19
REMARK    4  A    between atoms: N_3  and  C_4
REMARK    5  A    between atoms: C_4  and  C_5
REMARK    6  A    between atoms: C_8  and  C_9
REMARK    7  A    between atoms: C_9  and  N_10
REMARK    8  A    between atoms: N_10  and  C_11
REMARK                            x       y       z     vdW  Elec       q    Type
REMARK                         _______ _______ _______ _____ _____    ______ ____
ROOT
ATOM      1  N   UNL     1      46.889   4.641  15.861  0.00  0.00    +0.000 NA
ATOM      2  H   UNL     1      46.952   5.452  16.483  0.00  0.00    +0.000 HD
ENDROOT
BRANCH   1   3
ATOM      3  C   UNL     1      47.554   3.559  16.549  0.00  0.00    +0.000 C 
BRANCH   3   4
ATOM      4  C   UNL     1      48.729   4.112  17.329  0.00  0.00    +0.000 A 
ATOM      5  C   UNL     1      48.742   5.300  18.052  0.00  0.00    +0.000 A 
ATOM      6  S   UNL     1      50.206   5.591  18.877  0.00  0.00    +0.000 S 
ATOM      7  C   UNL     1      50.874   4.132  18.314  0.00  0.00    +0.000 A 
ATOM      8  N   UNL     1      52.122   3.737  18.682  0.00  0.00    +0.000 NA
ATOM      9  C   UNL     1      52.476   2.599  18.193  0.00  0.00    +0.000 A 
ATOM     10  N   UNL     1      51.713   1.823  17.359  0.00  0.00    +0.000 N 
ATOM     11  C   UNL     1      50.461   2.199  16.922  0.00  0.00    +0.000 A 
ATOM     12  O   UNL     1      49.816   1.532  16.122  0.00  0.00    +0.000 OA
ATOM     13  C   UNL     1      49.999   3.455  17.487  0.00  0.00    +0.000 A 
ATOM     14  H   UNL     1      52.066   0.949  16.997  0.00  0.00    +0.000 HD
ENDBRANCH   3   4
BRANCH   3  15
ATOM     15  N   UNL     1      46.604   3.033  17.500  0.00  0.00    +0.000 NA
ATOM     16  H   UNL     1      45.673   3.329  17.236  0.00  0.00    +0.000 HD
ATOM     17  H   UNL     1      46.818   3.523  18.368  0.00  0.00    +0.000 HD
ENDBRANCH   3  15
ENDBRANCH   1   3
BRANCH   1  18
ATOM     18  C   UNL     1      47.554   5.026  14.615  0.00  0.00    +0.000 C 
BRANCH  18  19
ATOM     19  C   UNL     1      46.638   4.946  13.422  0.00  0.00    +0.000 A 
ATOM     20  C   UNL     1      46.555   5.998  12.502  0.00  0.00    +0.000 A 
ATOM     21  C   UNL     1      45.758   5.874  11.364  0.00  0.00    +0.000 A 
ATOM     22  C   UNL     1      45.045   4.690  11.118  0.00  0.00    +0.000 A 
ATOM     23  C   UNL     1      45.109   3.651  12.052  0.00  0.00    +0.000 A 
ATOM     24  C   UNL     1      45.895   3.779  13.194  0.00  0.00    +0.000 A 
BRANCH  22  25
ATOM     25  C   UNL     1      44.169   4.545   9.902  0.00  0.00    +0.000 C 
BRANCH  25  26
ATOM     26  N   UNL     1      44.009   3.147   9.494  0.00  0.00    +0.000 NA
ATOM     27  H   UNL     1      43.030   2.999   9.245  0.00  0.00    +0.000 HD
BRANCH  26  28
ATOM     28  C   UNL     1      44.863   2.797   8.347  0.00  0.00    +0.000 C 
ATOM     29  C   UNL     1      45.772   1.616   8.721  0.00  0.00    +0.000 C 
ATOM     30  C   UNL     1      46.732   1.300   7.579  0.00  0.00    +0.000 C 
ATOM     31  O   UNL     1      47.493   2.448   7.211  0.00  0.00    +0.000 OA
ATOM     32  C   UNL     1      46.667   3.516   6.757  0.00  0.00    +0.000 C 
ATOM     33  C   UNL     1      45.723   3.971   7.858  0.00  0.00    +0.000 C 
ENDBRANCH  26  28
ENDBRANCH  25  26
ENDBRANCH  22  25
ENDBRANCH  18  19
ENDBRANCH   1  18
TORSDOF 8
ENDMDL
MODEL 3
REMARK VINA RESULT:    -7.686      1.824      2.615
REMARK INTER + INTRA:         -11.932
REMARK INTER:                 -11.069
REMARK INTRA:                  -0.863
REMARK UNBOUND:                -0.876
REMARK  Name = 
REMARK  8 active torsions:
REMARK  status: ('A' for Active; 'I' for Inactive)
REMARK    1  A    between atoms: N_1  and  C_2
REMARK    2  A    between atoms: C_2  and  N_3
REMARK    3  A    between atoms: C_2  and  C_19
REMARK    4  A    between atoms: N_3  and  C_4
REMARK    5  A    between atoms: C_4  and  C_5
REMARK    6  A    between atoms: C_8  and  C_9
REMARK    7  A    between atoms: C_9  and  N_10
REMARK    8  A    between atoms: N_10  and  C_11
REMARK                            x       y       z     vdW  Elec       q    Type
REMARK                         _______ _______ _______ _____ _____    ______ ____
ROOT
ATOM      1  N   UNL     1      46.838   4.436  16.092  0.00  0.00    +0.000 NA
ATOM      2  H   UNL     1      46.845   5.219  16.753  0.00  0.00    +0.000 HD
ENDROOT
BRANCH   1   3
ATOM      3  C   UNL     1      47.558   3.364  16.739  0.00  0.00    +0.000 C 
BRANCH   3   4
ATOM      4  C   UNL     1      48.745   3.938  17.484  0.00  0.00    +0.000 A 
ATOM      5  C   UNL     1      50.074   3.565  17.312  0.00  0.00    +0.000 A 
ATOM      6  S   UNL     1      51.173   4.464  18.257  0.00  0.00    +0.000 S 
ATOM      7  C   UNL     1      49.916   5.399  18.921  0.00  0.00    +0.000 A 
ATOM      8  N   UNL     1      50.172   6.404  19.800  0.00  0.00    +0.000 NA
ATOM      9  C   UNL     1      49.119   7.035  20.194  0.00  0.00    +0.000 A 
ATOM     10  N   UNL     1      47.835   6.750  19.809  0.00  0.00    +0.000 N 
ATOM     11  C   UNL     1      47.520   5.715  18.955  0.00  0.00    +0.000 A 
ATOM     12  O   UNL     1      46.364   5.425  18.672  0.00  0.00    +0.000 OA
ATOM     13  C   UNL     1      48.681   5.005  18.446  0.00  0.00    +0.000 A 
ATOM     14  H   UNL     1      47.055   7.275  20.176  0.00  0.00    +0.000 HD
ENDBRANCH   3   4
BRANCH   3  15
ATOM     15  N   UNL     1      46.659   2.798  17.716  0.00  0.00    +0.000 NA
ATOM     16  H   UNL     1      45.800   3.334  17.723  0.00  0.00    +0.000 HD
ATOM     17  H   UNL     1      47.110   2.981  18.611  0.00  0.00    +0.000 HD
ENDBRANCH   3  15
ENDBRANCH   1   3
BRANCH   1  18
ATOM     18  C   UNL     1      47.496   4.920  14.876  0.00  0.00    +0.000 C 
BRANCH  18  19
ATOM     19  C   UNL     1      46.656   4.714  13.644  0.00  0.00    +0.000 A 
ATOM     20  C   UNL     1      46.117   3.459  13.335  0.00  0.00    +0.000 A 
ATOM     21  C   UNL     1      45.279   3.306  12.231  0.00  0.00    +0.000 A 
ATOM     22  C   UNL     1      44.952   4.408  11.427  0.00  0.00    +0.000 A 
ATOM     23  C   UNL     1      45.512   5.656  11.721  0.00  0.00    +0.000 A 
ATOM     24  C   UNL     1      46.358   5.807  12.816  0.00  0.00    +0.000 A 
BRANCH  22  25
ATOM     25  C   UNL     1      44.060   4.258  10.222  0.00  0.00    +0.000 C 
BRANCH  25  26
ATOM     26  N   UNL     1      44.161   2.928   9.616  0.00  0.00    +0.000 NA
ATOM     27  H   UNL     1      43.380   2.813   8.969  0.00  0.00    +0.000 HD
BRANCH  26  28
ATOM     28  C   UNL     1      45.429   2.739   8.890  0.00  0.00    +0.000 C 
ATOM     29  C   UNL     1      45.481   3.689   7.685  0.00  0.00    +0.000 C 
ATOM     30  C   UNL     1      46.743   3.440   6.865  0.00  0.00    +0.000 C 
ATOM     31  O   UNL     1      46.835   2.077   6.458  0.00  0.00    +0.000 OA
ATOM     32  C   UNL     1      46.897   1.189   7.570  0.00  0.00    +0.000 C 
ATOM     33  C   UNL     1      45.637   1.294   8.413  0.00  0.00    +0.000 C 
ENDBRANCH  26  28
ENDBRANCH  25  26
ENDBRANCH  22  25
ENDBRANCH  18  19
ENDBRANCH   1  18
TORSDOF 8
ENDMDL
MODEL 4
REMARK VINA RESULT:    -7.565      2.455      3.200
REMARK INTER + INTRA:         -11.758
REMARK INTER:                 -10.647
REMARK INTRA:                  -1.112
REMARK UNBOUND:                -0.876
REMARK  Name = 
REMARK  8 active torsions:
REMARK  status: ('A' for Active; 'I' for Inactive)
REMARK    1  A    between atoms: N_1  and  C_2
REMARK    2  A    between atoms: C_2  and  N_3
REMARK    3  A    between atoms: C_2  and  C_19
REMARK    4  A    between atoms: N_3  and  C_4
REMARK    5  A    between atoms: C_4  and  C_5
REMARK    6  A    between atoms: C_8  and  C_9
REMARK    7  A    between atoms: C_9  and  N_10
REMARK    8  A    between atoms: N_10  and  C_11
REMARK                            x       y       z     vdW  Elec       q    Type
REMARK                         _______ _______ _______ _____ _____    ______ ____
ROOT
ATOM      1  N   UNL     1      48.615   6.042  14.386  0.00  0.00    +0.000 NA
ATOM      2  H   UNL     1      48.147   5.152  14.584  0.00  0.00    +0.000 HD
ENDROOT
BRANCH   1   3
ATOM      3  C   UNL     1      48.970   6.599  15.671  0.00  0.00    +0.000 C 
BRANCH   3   4
ATOM      4  C   UNL     1      48.610   5.609  16.760  0.00  0.00    +0.000 A 
ATOM      5  C   UNL     1      48.135   4.317  16.563  0.00  0.00    +0.000 A 
ATOM      6  S   UNL     1      47.899   3.440  18.007  0.00  0.00    +0.000 S 
ATOM      7  C   UNL     1      48.439   4.748  18.951  0.00  0.00    +0.000 A 
ATOM      8  N   UNL     1      48.524   4.655  20.304  0.00  0.00    +0.000 NA
ATOM      9  C   UNL     1      48.972   5.720  20.874  0.00  0.00    +0.000 A 
ATOM     10  N   UNL     1      49.329   6.875  20.228  0.00  0.00    +0.000 N 
ATOM     11  C   UNL     1      49.219   7.034  18.863  0.00  0.00    +0.000 A 
ATOM     12  O   UNL     1      49.474   8.093  18.302  0.00  0.00    +0.000 OA
ATOM     13  C   UNL     1      48.763   5.841  18.171  0.00  0.00    +0.000 A 
ATOM     14  H   UNL     1      49.653   7.679  20.744  0.00  0.00    +0.000 HD
ENDBRANCH   3   4
BRANCH   3  15
ATOM     15  N   UNL     1      50.406   6.748  15.670  0.00  0.00    +0.000 NA
ATOM     16  H   UNL     1      50.724   6.877  14.717  0.00  0.00    +0.000 HD
ATOM     17  H   UNL     1      50.755   5.836  15.960  0.00  0.00    +0.000 HD
ENDBRANCH   3  15
ENDBRANCH   1   3
BRANCH   1  18
ATOM     18  C   UNL     1      47.647   6.861  13.652  0.00  0.00    +0.000 C 
BRANCH  18  19
ATOM     19  C   UNL     1      46.781   6.044  12.730  0.00  0.00    +0.000 A 
ATOM     20  C   UNL     1      46.261   4.808  13.132  0.00  0.00    +0.000 A 
ATOM     21  C   UNL     1      45.399   4.102  12.292  0.00  0.00    +0.000 A 
ATOM     22  C   UNL     1      45.031   4.627  11.045  0.00  0.00    +0.000 A 
ATOM     23  C   UNL     1      45.574   5.849  10.633  0.00  0.00    +0.000 A 
ATOM     24  C   UNL     1      46.442   6.549  11.466  0.00  0.00    +0.000 A 
BRANCH  22  25
ATOM     25  C   UNL     1      44.113   3.871  10.120  0.00  0.00    +0.000 C 
BRANCH  25  26
ATOM     26  N   UNL     1      44.257   4.293   8.724  0.00  0.00    +0.000 NA
ATOM     27  H   UNL     1      44.715   5.206   8.714  0.00  0.00    +0.000 HD
BRANCH  26  28
ATOM     28  C   UNL     1      45.050   3.340   7.929  0.00  0.00    +0.000 C 
ATOM     29  C   UNL     1      45.332   2.081   8.762  0.00  0.00    +0.000 C 
ATOM     30  C   UNL     1      46.233   1.123   7.991  0.00  0.00    +0.000 C 
ATOM     31  O   UNL     1      47.441   1.762   7.585  0.00  0.00    +0.000 OA
ATOM     32  C   UNL     1      47.199   2.868   6.722  0.00  0.00    +0.000 C 
ATOM     33  C   UNL     1      46.375   3.932   7.428  0.00  0.00    +0.000 C 
ENDBRANCH  26  28
ENDBRANCH  25  26
ENDBRANCH  22  25
ENDBRANCH  18  19
ENDBRANCH   1  18
TORSDOF 8
ENDMDL
MODEL 5
REMARK VINA RESULT:    -7.338      1.995      2.927
REMARK INTER + INTRA:         -11.431
REMARK INTER:                 -10.364
REMARK INTRA:                  -1.067
REMARK UNBOUND:                -0.876
REMARK  Name = 
REMARK  8 active torsions:
REMARK  status: ('A' for Active; 'I' for Inactive)
REMARK    1  A    between atoms: N_1  and  C_2
REMARK    2  A    between atoms: C_2  and  N_3
REMARK    3  A    between atoms: C_2  and  C_19
REMARK    4  A    between atoms: N_3  and  C_4
REMARK    5  A    between atoms: C_4  and  C_5
REMARK    6  A    between atoms: C_8  and  C_9
REMARK    7  A    between atoms: C_9  and  N_10
REMARK    8  A    between atoms: N_10  and  C_11
REMARK                            x       y       z     vdW  Elec       q    Type
REMARK                         _______ _______ _______ _____ _____    ______ ____
ROOT
ATOM      1  N   UNL     1      47.497   7.393  14.583  0.00  0.00    +0.000 NA
ATOM      2  H   UNL     1      47.014   7.924  15.314  0.00  0.00    +0.000 HD
ENDROOT
BRANCH   1   3
ATOM      3  C   UNL     1      48.904   7.671  14.755  0.00  0.00    +0.000 C 
BRANCH   3   4
ATOM      4  C   UNL     1      49.277   7.480  16.211  0.00  0.00    +0.000 A 
ATOM      5  C   UNL     1      49.881   8.429  17.029  0.00  0.00    +0.000 A 
ATOM      6  S   UNL     1      50.096   7.915  18.641  0.00  0.00    +0.000 S 
ATOM      7  C   UNL     1      49.374   6.410  18.312  0.00  0.00    +0.000 A 
ATOM      8  N   UNL     1      49.204   5.479  19.288  0.00  0.00    +0.000 NA
ATOM      9  C   UNL     1      48.621   4.402  18.888  0.00  0.00    +0.000 A 
ATOM     10  N   UNL     1      48.206   4.156  17.605  0.00  0.00    +0.000 N 
ATOM     11  C   UNL     1      48.395   5.048  16.571  0.00  0.00    +0.000 A 
ATOM     12  O   UNL     1      48.084   4.790  15.415  0.00  0.00    +0.000 OA
ATOM     13  C   UNL     1      49.006   6.299  16.986  0.00  0.00    +0.000 A 
ATOM     14  H   UNL     1      47.774   3.277  17.359  0.00  0.00    +0.000 HD
ENDBRANCH   3   4
BRANCH   3  15
ATOM     15  N   UNL     1      49.615   6.678  13.986  0.00  0.00    +0.000 NA
ATOM     16  H   UNL     1      50.561   6.603  14.338  0.00  0.00    +0.000 HD
ATOM     17  H   UNL     1      49.695   7.088  13.056  0.00  0.00    +0.000 HD
ENDBRANCH   3  15
ENDBRANCH   1   3
BRANCH   1  18
ATOM     18  C   UNL     1      46.966   7.874  13.306  0.00  0.00    +0.000 C 
BRANCH  18  19
ATOM     19  C   UNL     1      46.335   6.776  12.492  0.00  0.00    +0.000 A 
ATOM     20  C   UNL     1      45.696   5.694  13.109  0.00  0.00    +0.000 A 
ATOM     21  C   UNL     1      45.052   4.726  12.338  0.00  0.00    +0.000 A 
ATOM     22  C   UNL     1      45.022   4.833  10.939  0.00  0.00    +0.000 A 
ATOM     23  C   UNL     1      45.684   5.901  10.324  0.00  0.00    +0.000 A 
ATOM     24  C   UNL     1      46.337   6.860  11.092  0.00  0.00    +0.000 A 
BRANCH  22  25
ATOM     25  C   UNL     1      44.344   3.789  10.091  0.00  0.00    +0.000 C 
BRANCH  25  26
ATOM     26  N   UNL     1      44.340   4.143   8.669  0.00  0.00    +0.000 NA
ATOM     27  H   UNL     1      44.732   5.081   8.574  0.00  0.00    +0.000 HD
BRANCH  26  28
ATOM     28  C   UNL     1      45.126   3.200   7.855  0.00  0.00    +0.000 C 
ATOM     29  C   UNL     1      45.528   1.989   8.710  0.00  0.00    +0.000 C 
ATOM     30  C   UNL     1      46.424   1.048   7.913  0.00  0.00    +0.000 C 
ATOM     31  O   UNL     1      47.567   1.730   7.403  0.00  0.00    +0.000 OA
ATOM     32  C   UNL     1      47.211   2.789   6.521  0.00  0.00    +0.000 C 
ATOM     33  C   UNL     1      46.383   3.837   7.245  0.00  0.00    +0.000 C 
ENDBRANCH  26  28
ENDBRANCH  25  26
ENDBRANCH  22  25
ENDBRANCH  18  19
ENDBRANCH   1  18
TORSDOF 8
ENDMDL
MODEL 6
REMARK VINA RESULT:    -7.147      2.052      2.518
REMARK INTER + INTRA:         -11.158
REMARK INTER:                 -10.197
REMARK INTRA:                  -0.960
REMARK UNBOUND:                -0.876
REMARK  Name = 
REMARK  8 active torsions:
REMARK  status: ('A' for Active; 'I' for Inactive)
REMARK    1  A    between atoms: N_1  and  C_2
REMARK    2  A    between atoms: C_2  and  N_3
REMARK    3  A    between atoms: C_2  and  C_19
REMARK    4  A    between atoms: N_3  and  C_4
REMARK    5  A    between atoms: C_4  and  C_5
REMARK    6  A    between atoms: C_8  and  C_9
REMARK    7  A    between atoms: C_9  and  N_10
REMARK    8  A    between atoms: N_10  and  C_11
REMARK                            x       y       z     vdW  Elec       q    Type
REMARK                         _______ _______ _______ _____ _____    ______ ____
ROOT
ATOM      1  N   UNL     1      47.292   5.230  15.801  0.00  0.00    +0.000 NA
ATOM      2  H   UNL     1      47.717   6.156  15.913  0.00  0.00    +0.000 HD
ENDROOT
BRANCH   1   3
ATOM      3  C   UNL     1      47.686   4.468  16.964  0.00  0.00    +0.000 C 
BRANCH   3   4
ATOM      4  C   UNL     1      47.889   5.410  18.133  0.00  0.00    +0.000 A 
ATOM      5  C   UNL     1      46.991   5.624  19.174  0.00  0.00    +0.000 A 
ATOM      6  S   UNL     1      47.563   6.697  20.370  0.00  0.00    +0.000 S 
ATOM      7  C   UNL     1      49.039   6.905  19.551  0.00  0.00    +0.000 A 
ATOM      8  N   UNL     1      50.025   7.690  20.062  0.00  0.00    +0.000 NA
ATOM      9  C   UNL     1      51.091   7.728  19.337  0.00  0.00    +0.000 A 
ATOM     10  N   UNL     1      51.263   7.071  18.147  0.00  0.00    +0.000 N 
ATOM     11  C   UNL     1      50.279   6.299  17.567  0.00  0.00    +0.000 A 
ATOM     12  O   UNL     1      50.418   5.773  16.470  0.00  0.00    +0.000 OA
ATOM     13  C   UNL     1      49.075   6.188  18.372  0.00  0.00    +0.000 A 
ATOM     14  H   UNL     1      52.121   7.164  17.623  0.00  0.00    +0.000 HD
ENDBRANCH   3   4
BRANCH   3  15
ATOM     15  N   UNL     1      46.576   3.604  17.284  0.00  0.00    +0.000 NA
ATOM     16  H   UNL     1      45.730   4.159  17.339  0.00  0.00    +0.000 HD
ATOM     17  H   UNL     1      46.766   3.289  18.234  0.00  0.00    +0.000 HD
ENDBRANCH   3  15
ENDBRANCH   1   3
BRANCH   1  18
ATOM     18  C   UNL     1      47.820   4.684  14.549  0.00  0.00    +0.000 C 
BRANCH  18  19
ATOM     19  C   UNL     1      46.787   4.646  13.454  0.00  0.00    +0.000 A 
ATOM     20  C   UNL     1      46.478   5.790  12.710  0.00  0.00    +0.000 A 
ATOM     21  C   UNL     1      45.573   5.717  11.651  0.00  0.00    +0.000 A 
ATOM     22  C   UNL     1      44.976   4.494  11.307  0.00  0.00    +0.000 A 
ATOM     23  C   UNL     1      45.266   3.357  12.069  0.00  0.00    +0.000 A 
ATOM     24  C   UNL     1      46.159   3.433  13.134  0.00  0.00    +0.000 A 
BRANCH  22  25
ATOM     25  C   UNL     1      43.987   4.400  10.175  0.00  0.00    +0.000 C 
BRANCH  25  26
ATOM     26  N   UNL     1      43.892   3.044   9.629  0.00  0.00    +0.000 NA
ATOM     27  H   UNL     1      42.923   2.880   9.352  0.00  0.00    +0.000 HD
BRANCH  26  28
ATOM     28  C   UNL     1      44.774   2.844   8.467  0.00  0.00    +0.000 C 
ATOM     29  C   UNL     1      45.707   1.652   8.725  0.00  0.00    +0.000 C 
ATOM     30  C   UNL     1      46.694   1.489   7.574  0.00  0.00    +0.000 C 
ATOM     31  O   UNL     1      47.431   2.689   7.351  0.00  0.00    +0.000 OA
ATOM     32  C   UNL     1      46.585   3.781   7.004  0.00  0.00    +0.000 C 
ATOM     33  C   UNL     1      45.611   4.087   8.130  0.00  0.00    +0.000 C 
ENDBRANCH  26  28
ENDBRANCH  25  26
ENDBRANCH  22  25
ENDBRANCH  18  19
ENDBRANCH   1  18
TORSDOF 8
ENDMDL
MODEL 7
REMARK VINA RESULT:    -6.929      3.837      5.157
REMARK INTER + INTRA:         -10.843
REMARK INTER:                  -9.975
REMARK INTRA:                  -0.868
REMARK UNBOUND:                -0.876
REMARK  Name = 
REMARK  8 active torsions:
REMARK  status: ('A' for Active; 'I' for Inactive)
REMARK    1  A    between atoms: N_1  and  C_2
REMARK    2  A    between atoms: C_2  and  N_3
REMARK    3  A    between atoms: C_2  and  C_19
REMARK    4  A    between atoms: N_3  and  C_4
REMARK    5  A    between atoms: C_4  and  C_5
REMARK    6  A    between atoms: C_8  and  C_9
REMARK    7  A    between atoms: C_9  and  N_10
REMARK    8  A    between atoms: N_10  and  C_11
REMARK                            x       y       z     vdW  Elec       q    Type
REMARK                         _______ _______ _______ _____ _____    ______ ____
ROOT
ATOM      1  N   UNL     1      46.712   4.316  15.858  0.00  0.00    +0.000 NA
ATOM      2  H   UNL     1      47.024   5.239  16.175  0.00  0.00    +0.000 HD
ENDROOT
BRANCH   1   3
ATOM      3  C   UNL     1      47.486   3.355  16.610  0.00  0.00    +0.000 C 
BRANCH   3   4
ATOM      4  C   UNL     1      48.609   4.073  17.329  0.00  0.00    +0.000 A 
ATOM      5  C   UNL     1      48.524   5.322  17.936  0.00  0.00    +0.000 A 
ATOM      6  S   UNL     1      49.956   5.808  18.724  0.00  0.00    +0.000 S 
ATOM      7  C   UNL     1      50.742   4.360  18.299  0.00  0.00    +0.000 A 
ATOM      8  N   UNL     1      52.016   4.104  18.699  0.00  0.00    +0.000 NA
ATOM      9  C   UNL     1      52.463   2.957  18.319  0.00  0.00    +0.000 A 
ATOM     10  N   UNL     1      51.768   2.046  17.566  0.00  0.00    +0.000 N 
ATOM     11  C   UNL     1      50.491   2.276  17.100  0.00  0.00    +0.000 A 
ATOM     12  O   UNL     1      49.906   1.486  16.370  0.00  0.00    +0.000 OA
ATOM     13  C   UNL     1      49.928   3.539  17.544  0.00  0.00    +0.000 A 
ATOM     14  H   UNL     1      52.192   1.173  17.288  0.00  0.00    +0.000 HD
ENDBRANCH   3   4
BRANCH   3  15
ATOM     15  N   UNL     1      46.601   2.810  17.612  0.00  0.00    +0.000 NA
ATOM     16  H   UNL     1      45.730   3.326  17.599  0.00  0.00    +0.000 HD
ATOM     17  H   UNL     1      47.049   3.041  18.498  0.00  0.00    +0.000 HD
ENDBRANCH   3  15
ENDBRANCH   1   3
BRANCH   1  18
ATOM     18  C   UNL     1      46.973   4.264  14.418  0.00  0.00    +0.000 C 
BRANCH  18  19
ATOM     19  C   UNL     1      46.638   5.558  13.724  0.00  0.00    +0.000 A 
ATOM     20  C   UNL     1      45.381   5.765  13.144  0.00  0.00    +0.000 A 
ATOM     21  C   UNL     1      45.065   6.997  12.573  0.00  0.00    +0.000 A 
ATOM     22  C   UNL     1      45.993   8.048  12.587  0.00  0.00    +0.000 A 
ATOM     23  C   UNL     1      47.259   7.831  13.143  0.00  0.00    +0.000 A 
ATOM     24  C   UNL     1      47.579   6.598  13.703  0.00  0.00    +0.000 A 
BRANCH  22  25
ATOM     25  C   UNL     1      45.673   9.381  11.961  0.00  0.00    +0.000 C 
BRANCH  25  26
ATOM     26  N   UNL     1      44.405   9.933  12.444  0.00  0.00    +0.000 NA
ATOM     27  H   UNL     1      44.592  10.460  13.299  0.00  0.00    +0.000 HD
BRANCH  26  28
ATOM     28  C   UNL     1      43.765  10.816  11.455  0.00  0.00    +0.000 C 
ATOM     29  C   UNL     1      42.630  10.062  10.746  0.00  0.00    +0.000 C 
ATOM     30  C   UNL     1      42.018  10.928   9.651  0.00  0.00    +0.000 C 
ATOM     31  O   UNL     1      43.010  11.369   8.726  0.00  0.00    +0.000 OA
ATOM     32  C   UNL     1      44.012  12.162   9.351  0.00  0.00    +0.000 C 
ATOM     33  C   UNL     1      44.751  11.360  10.411  0.00  0.00    +0.000 C 
ENDBRANCH  26  28
ENDBRANCH  25  26
ENDBRANCH  22  25
ENDBRANCH  18  19
ENDBRANCH   1  18
TORSDOF 8
ENDMDL
MODEL 8
REMARK VINA RESULT:    -6.841      1.755      2.272
REMARK INTER + INTRA:         -10.717
REMARK INTER:                  -9.820
REMARK INTRA:                  -0.897
REMARK UNBOUND:                -0.876
REMARK  Name = 
REMARK  8 active torsions:
REMARK  status: ('A' for Active; 'I' for Inactive)
REMARK    1  A    between atoms: N_1  and  C_2
REMARK    2  A    between atoms: C_2  and  N_3
REMARK    3  A    between atoms: C_2  and  C_19
REMARK    4  A    between atoms: N_3  and  C_4
REMARK    5  A    between atoms: C_4  and  C_5
REMARK    6  A    between atoms: C_8  and  C_9
REMARK    7  A    between atoms: C_9  and  N_10
REMARK    8  A    between atoms: N_10  and  C_11
REMARK                            x       y       z     vdW  Elec       q    Type
REMARK                         _______ _______ _______ _____ _____    ______ ____
ROOT
ATOM      1  N   UNL     1      48.202   5.867  15.213  0.00  0.00    +0.000 NA
ATOM      2  H   UNL     1      47.237   5.606  15.441  0.00  0.00    +0.000 HD
ENDROOT
BRANCH   1   3
ATOM      3  C   UNL     1      48.701   6.587  16.362  0.00  0.00    +0.000 C 
BRANCH   3   4
ATOM      4  C   UNL     1      50.179   6.301  16.526  0.00  0.00    +0.000 A 
ATOM      5  C   UNL     1      51.219   7.163  16.194  0.00  0.00    +0.000 A 
ATOM      6  S   UNL     1      52.767   6.559  16.578  0.00  0.00    +0.000 S 
ATOM      7  C   UNL     1      52.107   5.128  17.218  0.00  0.00    +0.000 A 
ATOM      8  N   UNL     1      52.899   4.167  17.765  0.00  0.00    +0.000 NA
ATOM      9  C   UNL     1      52.248   3.155  18.228  0.00  0.00    +0.000 A 
ATOM     10  N   UNL     1      50.887   3.001  18.186  0.00  0.00    +0.000 N 
ATOM     11  C   UNL     1      50.046   3.925  17.604  0.00  0.00    +0.000 A 
ATOM     12  O   UNL     1      48.838   3.746  17.509  0.00  0.00    +0.000 OA
ATOM     13  C   UNL     1      50.730   5.107  17.110  0.00  0.00    +0.000 A 
ATOM     14  H   UNL     1      50.448   2.169  18.551  0.00  0.00    +0.000 HD
ENDBRANCH   3   4
BRANCH   3  15
ATOM     15  N   UNL     1      48.556   7.991  16.059  0.00  0.00    +0.000 NA
ATOM     16  H   UNL     1      49.466   8.433  16.100  0.00  0.00    +0.000 HD
ATOM     17  H   UNL     1      48.028   8.366  16.846  0.00  0.00    +0.000 HD
ENDBRANCH   3  15
ENDBRANCH   1   3
BRANCH   1  18
ATOM     18  C   UNL     1      48.130   6.690  14.004  0.00  0.00    +0.000 C 
BRANCH  18  19
ATOM     19  C   UNL     1      47.021   6.262  13.079  0.00  0.00    +0.000 A 
ATOM     20  C   UNL     1      46.496   7.140  12.123  0.00  0.00    +0.000 A 
ATOM     21  C   UNL     1      45.522   6.701  11.226  0.00  0.00    +0.000 A 
ATOM     22  C   UNL     1      45.071   5.373  11.258  0.00  0.00    +0.000 A 
ATOM     23  C   UNL     1      45.578   4.504  12.230  0.00  0.00    +0.000 A 
ATOM     24  C   UNL     1      46.540   4.945  13.134  0.00  0.00    +0.000 A 
BRANCH  22  25
ATOM     25  C   UNL     1      44.010   4.886  10.305  0.00  0.00    +0.000 C 
BRANCH  25  26
ATOM     26  N   UNL     1      44.075   3.438  10.091  0.00  0.00    +0.000 NA
ATOM     27  H   UNL     1      43.119   3.081  10.041  0.00  0.00    +0.000 HD
BRANCH  26  28
ATOM     28  C   UNL     1      44.794   3.085   8.856  0.00  0.00    +0.000 C 
ATOM     29  C   UNL     1      45.531   1.752   9.049  0.00  0.00    +0.000 C 
ATOM     30  C   UNL     1      46.360   1.417   7.814  0.00  0.00    +0.000 C 
ATOM     31  O   UNL     1      47.265   2.472   7.498  0.00  0.00    +0.000 OA
ATOM     32  C   UNL     1      46.588   3.691   7.209  0.00  0.00    +0.000 C 
ATOM     33  C   UNL     1      45.794   4.165   8.415  0.00  0.00    +0.000 C 
ENDBRANCH  26  28
ENDBRANCH  25  26
ENDBRANCH  22  25
ENDBRANCH  18  19
ENDBRANCH   1  18
TORSDOF 8
ENDMDL
MODEL 9
REMARK VINA RESULT:    -6.720      2.982      3.833
REMARK INTER + INTRA:         -10.543
REMARK INTER:                  -9.483
REMARK INTRA:                  -1.060
REMARK UNBOUND:                -0.876
REMARK  Name = 
REMARK  8 active torsions:
REMARK  status: ('A' for Active; 'I' for Inactive)
REMARK    1  A    between atoms: N_1  and  C_2
REMARK    2  A    between atoms: C_2  and  N_3
REMARK    3  A    between atoms: C_2  and  C_19
REMARK    4  A    between atoms: N_3  and  C_4
REMARK    5  A    between atoms: C_4  and  C_5
REMARK    6  A    between atoms: C_8  and  C_9
REMARK    7  A    between atoms: C_9  and  N_10
REMARK    8  A    between atoms: N_10  and  C_11
REMARK                            x       y       z     vdW  Elec       q    Type
REMARK                         _______ _______ _______ _____ _____    ______ ____
ROOT
ATOM      1  N   UNL     1      47.816   7.323  14.451  0.00  0.00    +0.000 NA
ATOM      2  H   UNL     1      47.629   7.666  13.503  0.00  0.00    +0.000 HD
ENDROOT
BRANCH   1   3
ATOM      3  C   UNL     1      49.162   7.742  14.767  0.00  0.00    +0.000 C 
BRANCH   3   4
ATOM      4  C   UNL     1      49.519   7.265  16.160  0.00  0.00    +0.000 A 
ATOM      5  C   UNL     1      50.368   6.206  16.467  0.00  0.00    +0.000 A 
ATOM      6  S   UNL     1      50.614   5.981  18.139  0.00  0.00    +0.000 S 
ATOM      7  C   UNL     1      49.610   7.301  18.518  0.00  0.00    +0.000 A 
ATOM      8  N   UNL     1      49.411   7.691  19.805  0.00  0.00    +0.000 NA
ATOM      9  C   UNL     1      48.644   8.720  19.927  0.00  0.00    +0.000 A 
ATOM     10  N   UNL     1      48.046   9.390  18.891  0.00  0.00    +0.000 N 
ATOM     11  C   UNL     1      48.182   9.007  17.573  0.00  0.00    +0.000 A 
ATOM     12  O   UNL     1      47.587   9.569  16.662  0.00  0.00    +0.000 OA
ATOM     13  C   UNL     1      49.076   7.879  17.383  0.00  0.00    +0.000 A 
ATOM     14  H   UNL     1      47.440  10.177  19.065  0.00  0.00    +0.000 HD
ENDBRANCH   3   4
BRANCH   3  15
ATOM     15  N   UNL     1      50.031   7.066  13.834  0.00  0.00    +0.000 NA
ATOM     16  H   UNL     1      50.273   7.703  13.086  0.00  0.00    +0.000 HD
ATOM     17  H   UNL     1      49.441   6.350  13.412  0.00  0.00    +0.000 HD
ENDBRANCH   3  15
ENDBRANCH   1   3
BRANCH   1  18
ATOM     18  C   UNL     1      47.664   5.867  14.399  0.00  0.00    +0.000 C 
BRANCH  18  19
ATOM     19  C   UNL     1      46.801   5.417  13.250  0.00  0.00    +0.000 A 
ATOM     20  C   UNL     1      46.078   4.220  13.312  0.00  0.00    +0.000 A 
ATOM     21  C   UNL     1      45.225   3.859  12.269  0.00  0.00    +0.000 A 
ATOM     22  C   UNL     1      45.068   4.696  11.155  0.00  0.00    +0.000 A 
ATOM     23  C   UNL     1      45.811   5.879  11.082  0.00  0.00    +0.000 A 
ATOM     24  C   UNL     1      46.671   6.234  12.117  0.00  0.00    +0.000 A 
BRANCH  22  25
ATOM     25  C   UNL     1      44.162   4.314  10.013  0.00  0.00    +0.000 C 
BRANCH  25  26
ATOM     26  N   UNL     1      44.332   2.916   9.611  0.00  0.00    +0.000 NA
ATOM     27  H   UNL     1      43.526   2.648   9.044  0.00  0.00    +0.000 HD
BRANCH  26  28
ATOM     28  C   UNL     1      45.567   2.701   8.838  0.00  0.00    +0.000 C 
ATOM     29  C   UNL     1      45.594   3.651   7.631  0.00  0.00    +0.000 C 
ATOM     30  C   UNL     1      46.818   3.377   6.765  0.00  0.00    +0.000 C 
ATOM     31  O   UNL     1      46.867   2.012   6.356  0.00  0.00    +0.000 OA
ATOM     32  C   UNL     1      46.953   1.123   7.464  0.00  0.00    +0.000 C 
ATOM     33  C   UNL     1      45.728   1.252   8.355  0.00  0.00    +0.000 C 
ENDBRANCH  26  28
ENDBRANCH  25  26
ENDBRANCH  22  25
ENDBRANCH  18  19
ENDBRANCH   1  18
TORSDOF 8
ENDMDL
