MODEL 1
REMARK VINA RESULT:    -8.789      0.000      0.000
REMARK INTER + INTRA:         -14.231
REMARK INTER:                 -13.156
REMARK INTRA:                  -1.075
REMARK UNBOUND:                -1.075
REMARK  Name = 
REMARK  9 active torsions:
REMARK  status: ('A' for Active; 'I' for Inactive)
REMARK    1  A    between atoms: N_1  and  C_2
REMARK    2  A    between atoms: C_2  and  C_3
REMARK    3  A    between atoms: C_3  and  N_4
REMARK    4  A    between atoms: C_3  and  C_12
REMARK    5  A    between atoms: N_4  and  C_5
REMARK    6  A    between atoms: C_5  and  C_6
REMARK    7  A    between atoms: C_15  and  C_16
REMARK    8  A    between atoms: C_16  and  N_17
REMARK    9  A    between atoms: C_18  and  C_20
REMARK                            x       y       z     vdW  Elec       q    Type
REMARK                         _______ _______ _______ _____ _____    ______ ____
ROOT
ATOM      1  C   UNL     1      45.219   4.722  11.926  0.00  0.00    +0.000 A 
ATOM      2  C   UNL     1      45.781   5.893  11.381  0.00  0.00    +0.000 A 
ATOM      3  C   UNL     1      46.831   6.559  12.020  0.00  0.00    +0.000 A 
ATOM      4  C   UNL     1      47.385   6.038  13.195  0.00  0.00    +0.000 A 
ATOM      5  C   UNL     1      46.846   4.866  13.731  0.00  0.00    +0.000 A 
ATOM      6  C   UNL     1      45.775   4.221  13.113  0.00  0.00    +0.000 A 
ENDROOT
BRANCH   1   7
ATOM      7  C   UNL     1      43.990   4.090  11.263  0.00  0.00    +0.000 C 
BRANCH   7   8
ATOM      8  N   UNL     1      44.205   3.818   9.826  0.00  0.00    +0.000 NA
ATOM      9  H   UNL     1      44.871   4.487   9.449  0.00  0.00    +0.000 HD
BRANCH   8  10
ATOM     10  C   UNL     1      44.650   2.460   9.524  0.00  0.00    +0.000 C 
BRANCH  10  11
ATOM     11  C   UNL     1      45.620   2.424   8.365  0.00  0.00    +0.000 A 
ATOM     12  C   UNL     1      45.835   3.561   7.571  0.00  0.00    +0.000 A 
ATOM     13  C   UNL     1      46.776   3.536   6.540  0.00  0.00    +0.000 A 
ATOM     14  C   UNL     1      47.506   2.374   6.293  0.00  0.00    +0.000 A 
ATOM     15  C   UNL     1      47.290   1.237   7.068  0.00  0.00    +0.000 A 
ATOM     16  C   UNL     1      46.350   1.260   8.097  0.00  0.00    +0.000 A 
ENDBRANCH  10  11
ENDBRANCH   8  10
ENDBRANCH   7   8
BRANCH   7  17
ATOM     17  C   UNL     1      42.702   4.974  11.471  0.00  0.00    +0.000 C 
BRANCH  17  18
ATOM     18  N   UNL     1      42.460   5.469  12.832  0.00  0.00    +0.000 NA
ATOM     19  H   UNL     1      43.095   6.250  13.015  0.00  0.00    +0.000 HD
ATOM     20  H   UNL     1      42.685   4.746  13.507  0.00  0.00    +0.000 HD
ENDBRANCH  17  18
ENDBRANCH   7  17
ENDBRANCH   1   7
BRANCH   4  21
ATOM     21  C   UNL     1      48.514   6.728  13.908  0.00  0.00    +0.000 C 
BRANCH  21  22
ATOM     22  N   UNL     1      48.249   6.862  15.318  0.00  0.00    +0.000 N 
ATOM     23  C   UNL     1      49.163   6.533  16.283  0.00  0.00    +0.000 C 
ATOM     24  O   UNL     1      50.276   6.086  16.019  0.00  0.00    +0.000 OA
ATOM     25  H   UNL     1      47.278   6.995  15.579  0.00  0.00    +0.000 HD
BRANCH  23  26
ATOM     26  C   UNL     1      48.760   6.819  17.667  0.00  0.00    +0.000 A 
ATOM     27  C   UNL     1      48.438   8.119  18.033  0.00  0.00    +0.000 A 
ATOM     28  S   UNL     1      47.940   8.267  19.658  0.00  0.00    +0.000 S 
ATOM     29  C   UNL     1      48.188   6.607  19.941  0.00  0.00    +0.000 A 
ATOM     30  N   UNL     1      47.969   6.069  21.173  0.00  0.00    +0.000 NA
ATOM     31  C   UNL     1      48.221   4.807  21.254  0.00  0.00    +0.000 A 
ATOM     32  N   UNL     1      48.660   4.029  20.215  0.00  0.00    +0.000 N 
ATOM     33  C   UNL     1      48.840   4.515  18.942  0.00  0.00    +0.000 A 
ATOM     34  O   UNL     1      49.130   3.770  18.016  0.00  0.00    +0.000 OA
ATOM     35  C   UNL     1      48.611   5.944  18.804  0.00  0.00    +0.000 A 
ATOM     36  H   UNL     1      48.811   3.039  20.336  0.00  0.00    +0.000 HD
ENDBRANCH  23  26
ENDBRANCH  21  22
ENDBRANCH   4  21
TORSDOF 9
ENDMDL
MODEL 2
REMARK VINA RESULT:    -8.353      1.400      2.322
REMARK INTER + INTRA:         -13.578
REMARK INTER:                 -12.313
REMARK INTRA:                  -1.265
REMARK UNBOUND:                -1.075
REMARK  Name = 
REMARK  9 active torsions:
REMARK  status: ('A' for Active; 'I' for Inactive)
REMARK    1  A    between atoms: N_1  and  C_2
REMARK    2  A    between atoms: C_2  and  C_3
REMARK    3  A    between atoms: C_3  and  N_4
REMARK    4  A    between atoms: C_3  and  C_12
REMARK    5  A    between atoms: N_4  and  C_5
REMARK    6  A    between atoms: C_5  and  C_6
REMARK    7  A    between atoms: C_15  and  C_16
REMARK    8  A    between atoms: C_16  and  N_17
REMARK    9  A    between atoms: C_18  and  C_20
REMARK                            x       y       z     vdW  Elec       q    Type
REMARK                         _______ _______ _______ _____ _____    ______ ____
ROOT
ATOM      1  C   UNL     1      45.142   4.811  11.896  0.00  0.00    +0.000 A 
ATOM      2  C   UNL     1      45.732   6.024  11.495  0.00  0.00    +0.000 A 
ATOM      3  C   UNL     1      46.793   6.586  12.213  0.00  0.00    +0.000 A 
ATOM      4  C   UNL     1      47.327   5.917  13.320  0.00  0.00    +0.000 A 
ATOM      5  C   UNL     1      46.760   4.702  13.712  0.00  0.00    +0.000 A 
ATOM      6  C   UNL     1      45.678   4.160  13.017  0.00  0.00    +0.000 A 
ENDROOT
BRANCH   1   7
ATOM      7  C   UNL     1      43.903   4.289  11.158  0.00  0.00    +0.000 C 
BRANCH   7   8
ATOM      8  N   UNL     1      44.199   3.918   9.758  0.00  0.00    +0.000 NA
ATOM      9  H   UNL     1      44.845   4.593   9.356  0.00  0.00    +0.000 HD
BRANCH   8  10
ATOM     10  C   UNL     1      44.730   2.569   9.585  0.00  0.00    +0.000 C 
BRANCH  10  11
ATOM     11  C   UNL     1      45.670   2.474   8.404  0.00  0.00    +0.000 A 
ATOM     12  C   UNL     1      46.348   1.279   8.120  0.00  0.00    +0.000 A 
ATOM     13  C   UNL     1      47.168   1.181   6.994  0.00  0.00    +0.000 A 
ATOM     14  C   UNL     1      47.317   2.278   6.146  0.00  0.00    +0.000 A 
ATOM     15  C   UNL     1      46.658   3.473   6.428  0.00  0.00    +0.000 A 
ATOM     16  C   UNL     1      45.839   3.572   7.553  0.00  0.00    +0.000 A 
ENDBRANCH  10  11
ENDBRANCH   8  10
ENDBRANCH   7   8
BRANCH   7  17
ATOM     17  C   UNL     1      42.717   5.325  11.215  0.00  0.00    +0.000 C 
BRANCH  17  18
ATOM     18  N   UNL     1      42.206   5.662  12.550  0.00  0.00    +0.000 NA
ATOM     19  H   UNL     1      42.752   6.443  12.922  0.00  0.00    +0.000 HD
ATOM     20  H   UNL     1      42.349   4.881  13.182  0.00  0.00    +0.000 HD
ENDBRANCH  17  18
ENDBRANCH   7  17
ENDBRANCH   1   7
BRANCH   4  21
ATOM     21  C   UNL     1      48.466   6.492  14.114  0.00  0.00    +0.000 C 
BRANCH  21  22
ATOM     22  N   UNL     1      48.147   6.577  15.516  0.00  0.00    +0.000 N 
ATOM     23  C   UNL     1      49.022   6.209  16.505  0.00  0.00    +0.000 C 
ATOM     24  O   UNL     1      50.142   5.767  16.269  0.00  0.00    +0.000 OA
ATOM     25  H   UNL     1      47.167   6.706  15.744  0.00  0.00    +0.000 HD
BRANCH  23  26
ATOM     26  C   UNL     1      48.565   6.449  17.881  0.00  0.00    +0.000 A 
ATOM     27  C   UNL     1      48.531   5.397  18.786  0.00  0.00    +0.000 A 
ATOM     28  S   UNL     1      48.030   5.858  20.350  0.00  0.00    +0.000 S 
ATOM     29  C   UNL     1      47.794   7.469  19.858  0.00  0.00    +0.000 A 
ATOM     30  N   UNL     1      47.332   8.406  20.732  0.00  0.00    +0.000 NA
ATOM     31  C   UNL     1      47.174   9.580  20.220  0.00  0.00    +0.000 A 
ATOM     32  N   UNL     1      47.447   9.907  18.918  0.00  0.00    +0.000 N 
ATOM     33  C   UNL     1      47.967   9.011  18.015  0.00  0.00    +0.000 A 
ATOM     34  O   UNL     1      48.297   9.365  16.892  0.00  0.00    +0.000 OA
ATOM     35  C   UNL     1      48.124   7.660  18.529  0.00  0.00    +0.000 A 
ATOM     36  H   UNL     1      47.329  10.853  18.586  0.00  0.00    +0.000 HD
ENDBRANCH  23  26
ENDBRANCH  21  22
ENDBRANCH   4  21
TORSDOF 9
ENDMDL
MODEL 3
REMARK VINA RESULT:    -7.681      1.769      2.229
REMARK INTER + INTRA:         -12.573
REMARK INTER:                 -11.427
REMARK INTRA:                  -1.146
REMARK UNBOUND:                -1.075
REMARK  Name = 
REMARK  9 active torsions:
REMARK  status: ('A' for Active; 'I' for Inactive)
REMARK    1  A    between atoms: N_1  and  C_2
REMARK    2  A    between atoms: C_2  and  C_3
REMARK    3  A    between atoms: C_3  and  N_4
REMARK    4  A    between atoms: C_3  and  C_12
REMARK    5  A    between atoms: N_4  and  C_5
REMARK    6  A    between atoms: C_5  and  C_6
REMARK    7  A    between atoms: C_15  and  C_16
REMARK    8  A    between atoms: C_16  and  N_17
REMARK    9  A    between atoms: C_18  and  C_20
REMARK                            x       y       z     vdW  Elec       q    Type
REMARK                         _______ _______ _______ _____ _____    ______ ____
ROOT
ATOM      1  C   UNL     1      45.464   4.849  12.210  0.00  0.00    +0.000 A 
ATOM      2  C   UNL     1      46.049   4.576  13.461  0.00  0.00    +0.000 A 
ATOM      3  C   UNL     1      47.123   5.333  13.940  0.00  0.00    +0.000 A 
ATOM      4  C   UNL     1      47.603   6.420  13.202  0.00  0.00    +0.000 A 
ATOM      5  C   UNL     1      47.015   6.709  11.969  0.00  0.00    +0.000 A 
ATOM      6  C   UNL     1      45.967   5.932  11.474  0.00  0.00    +0.000 A 
ENDROOT
BRANCH   1   7
ATOM      7  C   UNL     1      44.371   3.922  11.664  0.00  0.00    +0.000 C 
BRANCH   7   8
ATOM      8  N   UNL     1      44.930   2.761  10.940  0.00  0.00    +0.000 NA
ATOM      9  H   UNL     1      44.806   1.920  11.498  0.00  0.00    +0.000 HD
BRANCH   8  10
ATOM     10  C   UNL     1      44.375   2.550   9.606  0.00  0.00    +0.000 C 
BRANCH  10  11
ATOM     11  C   UNL     1      45.449   2.483   8.545  0.00  0.00    +0.000 A 
ATOM     12  C   UNL     1      45.855   3.637   7.858  0.00  0.00    +0.000 A 
ATOM     13  C   UNL     1      46.889   3.577   6.922  0.00  0.00    +0.000 A 
ATOM     14  C   UNL     1      47.523   2.362   6.664  0.00  0.00    +0.000 A 
ATOM     15  C   UNL     1      47.118   1.208   7.332  0.00  0.00    +0.000 A 
ATOM     16  C   UNL     1      46.085   1.267   8.267  0.00  0.00    +0.000 A 
ENDBRANCH  10  11
ENDBRANCH   8  10
ENDBRANCH   7   8
BRANCH   7  17
ATOM     17  C   UNL     1      43.353   4.704  10.750  0.00  0.00    +0.000 C 
BRANCH  17  18
ATOM     18  N   UNL     1      42.166   5.255  11.415  0.00  0.00    +0.000 NA
ATOM     19  H   UNL     1      42.465   5.980  12.073  0.00  0.00    +0.000 HD
ATOM     20  H   UNL     1      41.712   4.533  11.965  0.00  0.00    +0.000 HD
ENDBRANCH  17  18
ENDBRANCH   7  17
ENDBRANCH   1   7
BRANCH   4  21
ATOM     21  C   UNL     1      48.755   7.254  13.687  0.00  0.00    +0.000 C 
BRANCH  21  22
ATOM     22  N   UNL     1      49.296   6.747  14.922  0.00  0.00    +0.000 N 
ATOM     23  C   UNL     1      50.256   7.408  15.643  0.00  0.00    +0.000 C 
ATOM     24  O   UNL     1      50.739   8.477  15.282  0.00  0.00    +0.000 OA
ATOM     25  H   UNL     1      49.105   5.773  15.126  0.00  0.00    +0.000 HD
BRANCH  23  26
ATOM     26  C   UNL     1      50.626   6.793  16.925  0.00  0.00    +0.000 A 
ATOM     27  C   UNL     1      51.732   5.956  16.992  0.00  0.00    +0.000 A 
ATOM     28  S   UNL     1      52.051   5.372  18.563  0.00  0.00    +0.000 S 
ATOM     29  C   UNL     1      50.693   6.176  19.197  0.00  0.00    +0.000 A 
ATOM     30  N   UNL     1      50.369   6.065  20.515  0.00  0.00    +0.000 NA
ATOM     31  C   UNL     1      49.301   6.705  20.855  0.00  0.00    +0.000 A 
ATOM     32  N   UNL     1      48.534   7.455  20.003  0.00  0.00    +0.000 N 
ATOM     33  C   UNL     1      48.853   7.642  18.679  0.00  0.00    +0.000 A 
ATOM     34  O   UNL     1      48.205   8.403  17.974  0.00  0.00    +0.000 OA
ATOM     35  C   UNL     1      50.025   6.907  18.231  0.00  0.00    +0.000 A 
ATOM     36  H   UNL     1      47.725   7.956  20.338  0.00  0.00    +0.000 HD
ENDBRANCH  23  26
ENDBRANCH  21  22
ENDBRANCH   4  21
TORSDOF 9
ENDMDL
MODEL 4
REMARK VINA RESULT:    -7.633      3.637      5.615
REMARK INTER + INTRA:         -12.501
REMARK INTER:                 -11.252
REMARK INTRA:                  -1.249
REMARK UNBOUND:                -1.075
REMARK  Name = 
REMARK  9 active torsions:
REMARK  status: ('A' for Active; 'I' for Inactive)
REMARK    1  A    between atoms: N_1  and  C_2
REMARK    2  A    between atoms: C_2  and  C_3
REMARK    3  A    between atoms: C_3  and  N_4
REMARK    4  A    between atoms: C_3  and  C_12
REMARK    5  A    between atoms: N_4  and  C_5
REMARK    6  A    between atoms: C_5  and  C_6
REMARK    7  A    between atoms: C_15  and  C_16
REMARK    8  A    between atoms: C_16  and  N_17
REMARK    9  A    between atoms: C_18  and  C_20
REMARK                            x       y       z     vdW  Elec       q    Type
REMARK                         _______ _______ _______ _____ _____    ______ ____
ROOT
ATOM      1  C   UNL     1      45.744   5.454  11.863  0.00  0.00    +0.000 A 
ATOM      2  C   UNL     1      46.390   6.688  11.662  0.00  0.00    +0.000 A 
ATOM      3  C   UNL     1      47.326   7.175  12.580  0.00  0.00    +0.000 A 
ATOM      4  C   UNL     1      47.681   6.409  13.697  0.00  0.00    +0.000 A 
ATOM      5  C   UNL     1      47.059   5.174  13.892  0.00  0.00    +0.000 A 
ATOM      6  C   UNL     1      46.099   4.705  12.995  0.00  0.00    +0.000 A 
ENDROOT
BRANCH   1   7
ATOM      7  C   UNL     1      44.635   5.011  10.900  0.00  0.00    +0.000 C 
BRANCH   7   8
ATOM      8  N   UNL     1      45.064   5.066   9.487  0.00  0.00    +0.000 NA
ATOM      9  H   UNL     1      46.079   5.023   9.438  0.00  0.00    +0.000 HD
BRANCH   8  10
ATOM     10  C   UNL     1      44.489   4.028   8.636  0.00  0.00    +0.000 C 
BRANCH  10  11
ATOM     11  C   UNL     1      45.548   3.130   8.037  0.00  0.00    +0.000 A 
ATOM     12  C   UNL     1      45.719   1.816   8.497  0.00  0.00    +0.000 A 
ATOM     13  C   UNL     1      46.659   0.974   7.899  0.00  0.00    +0.000 A 
ATOM     14  C   UNL     1      47.435   1.441   6.839  0.00  0.00    +0.000 A 
ATOM     15  C   UNL     1      47.280   2.749   6.385  0.00  0.00    +0.000 A 
ATOM     16  C   UNL     1      46.343   3.591   6.982  0.00  0.00    +0.000 A 
ENDBRANCH  10  11
ENDBRANCH   8  10
ENDBRANCH   7   8
BRANCH   7  17
ATOM     17  C   UNL     1      43.319   5.852  11.110  0.00  0.00    +0.000 C 
BRANCH  17  18
ATOM     18  N   UNL     1      42.597   5.635  12.370  0.00  0.00    +0.000 NA
ATOM     19  H   UNL     1      42.169   4.706  12.348  0.00  0.00    +0.000 HD
ATOM     20  H   UNL     1      41.837   6.302  12.452  0.00  0.00    +0.000 HD
ENDBRANCH  17  18
ENDBRANCH   7  17
ENDBRANCH   1   7
BRANCH   4  21
ATOM     21  C   UNL     1      48.683   6.901  14.703  0.00  0.00    +0.000 C 
BRANCH  21  22
ATOM     22  N   UNL     1      49.943   7.225  14.084  0.00  0.00    +0.000 N 
ATOM     23  C   UNL     1      50.490   8.481  14.120  0.00  0.00    +0.000 C 
ATOM     24  O   UNL     1      49.941   9.429  14.672  0.00  0.00    +0.000 OA
ATOM     25  H   UNL     1      50.305   6.544  13.425  0.00  0.00    +0.000 HD
BRANCH  23  26
ATOM     26  C   UNL     1      51.824   8.611  13.517  0.00  0.00    +0.000 A 
ATOM     27  C   UNL     1      52.894   9.024  14.299  0.00  0.00    +0.000 A 
ATOM     28  S   UNL     1      54.377   9.070  13.458  0.00  0.00    +0.000 S 
ATOM     29  C   UNL     1      53.631   8.589  12.007  0.00  0.00    +0.000 A 
ATOM     30  N   UNL     1      54.353   8.461  10.859  0.00  0.00    +0.000 NA
ATOM     31  C   UNL     1      53.658   8.116   9.829  0.00  0.00    +0.000 A 
ATOM     32  N   UNL     1      52.309   7.876   9.841  0.00  0.00    +0.000 N 
ATOM     33  C   UNL     1      51.549   7.937  10.985  0.00  0.00    +0.000 A 
ATOM     34  O   UNL     1      50.370   7.613  10.978  0.00  0.00    +0.000 OA
ATOM     35  C   UNL     1      52.276   8.364  12.169  0.00  0.00    +0.000 A 
ATOM     36  H   UNL     1      51.828   7.580   9.005  0.00  0.00    +0.000 HD
ENDBRANCH  23  26
ENDBRANCH  21  22
ENDBRANCH   4  21
TORSDOF 9
ENDMDL
MODEL 5
REMARK VINA RESULT:    -7.425      3.916      6.097
REMARK INTER + INTRA:         -12.189
REMARK INTER:                 -10.934
REMARK INTRA:                  -1.255
REMARK UNBOUND:                -1.075
REMARK  Name = 
REMARK  9 active torsions:
REMARK  status: ('A' for Active; 'I' for Inactive)
REMARK    1  A    between atoms: N_1  and  C_2
REMARK    2  A    between atoms: C_2  and  C_3
REMARK    3  A    between atoms: C_3  and  N_4
REMARK    4  A    between atoms: C_3  and  C_12
REMARK    5  A    between atoms: N_4  and  C_5
REMARK    6  A    between atoms: C_5  and  C_6
REMARK    7  A    between atoms: C_15  and  C_16
REMARK    8  A    between atoms: C_16  and  N_17
REMARK    9  A    between atoms: C_18  and  C_20
REMARK                            x       y       z     vdW  Elec       q    Type
REMARK                         _______ _______ _______ _____ _____    ______ ____
ROOT
ATOM      1  C   UNL     1      45.367   4.724  12.471  0.00  0.00    +0.000 A 
ATOM      2  C   UNL     1      46.281   4.098  13.340  0.00  0.00    +0.000 A 
ATOM      3  C   UNL     1      47.362   4.799  13.882  0.00  0.00    +0.000 A 
ATOM      4  C   UNL     1      47.525   6.162  13.612  0.00  0.00    +0.000 A 
ATOM      5  C   UNL     1      46.610   6.795  12.766  0.00  0.00    +0.000 A 
ATOM      6  C   UNL     1      45.552   6.087  12.197  0.00  0.00    +0.000 A 
ENDROOT
BRANCH   1   7
ATOM      7  C   UNL     1      44.266   3.893  11.800  0.00  0.00    +0.000 C 
BRANCH   7   8
ATOM      8  N   UNL     1      44.816   2.797  10.974  0.00  0.00    +0.000 NA
ATOM      9  H   UNL     1      44.673   1.909  11.449  0.00  0.00    +0.000 HD
BRANCH   8  10
ATOM     10  C   UNL     1      44.271   2.721   9.621  0.00  0.00    +0.000 C 
BRANCH  10  11
ATOM     11  C   UNL     1      45.356   2.606   8.575  0.00  0.00    +0.000 A 
ATOM     12  C   UNL     1      45.784   3.732   7.857  0.00  0.00    +0.000 A 
ATOM     13  C   UNL     1      46.828   3.629   6.935  0.00  0.00    +0.000 A 
ATOM     14  C   UNL     1      47.448   2.398   6.723  0.00  0.00    +0.000 A 
ATOM     15  C   UNL     1      47.020   1.272   7.423  0.00  0.00    +0.000 A 
ATOM     16  C   UNL     1      45.978   1.374   8.343  0.00  0.00    +0.000 A 
ENDBRANCH  10  11
ENDBRANCH   8  10
ENDBRANCH   7   8
BRANCH   7  17
ATOM     17  C   UNL     1      43.300   4.797  10.944  0.00  0.00    +0.000 C 
BRANCH  17  18
ATOM     18  N   UNL     1      42.119   5.329  11.635  0.00  0.00    +0.000 NA
ATOM     19  H   UNL     1      41.946   4.766  12.472  0.00  0.00    +0.000 HD
ATOM     20  H   UNL     1      41.299   5.230  11.044  0.00  0.00    +0.000 HD
ENDBRANCH  17  18
ENDBRANCH   7  17
ENDBRANCH   1   7
BRANCH   4  21
ATOM     21  C   UNL     1      48.675   6.947  14.177  0.00  0.00    +0.000 C 
BRANCH  21  22
ATOM     22  N   UNL     1      49.222   7.862  13.208  0.00  0.00    +0.000 N 
ATOM     23  C   UNL     1      50.155   8.813  13.525  0.00  0.00    +0.000 C 
ATOM     24  O   UNL     1      50.588   8.967  14.663  0.00  0.00    +0.000 OA
ATOM     25  H   UNL     1      48.725   7.928  12.327  0.00  0.00    +0.000 HD
BRANCH  23  26
ATOM     26  C   UNL     1      50.672   9.600  12.395  0.00  0.00    +0.000 A 
ATOM     27  C   UNL     1      52.036   9.625  12.142  0.00  0.00    +0.000 A 
ATOM     28  S   UNL     1      52.458  10.539  10.766  0.00  0.00    +0.000 S 
ATOM     29  C   UNL     1      50.837  10.975  10.491  0.00  0.00    +0.000 A 
ATOM     30  N   UNL     1      50.500  11.794   9.456  0.00  0.00    +0.000 NA
ATOM     31  C   UNL     1      49.241  12.064   9.380  0.00  0.00    +0.000 A 
ATOM     32  N   UNL     1      48.285  11.581  10.235  0.00  0.00    +0.000 N 
ATOM     33  C   UNL     1      48.569  10.708  11.257  0.00  0.00    +0.000 A 
ATOM     34  O   UNL     1      47.677  10.215  11.934  0.00  0.00    +0.000 OA
ATOM     35  C   UNL     1      49.982  10.404  11.416  0.00  0.00    +0.000 A 
ATOM     36  H   UNL     1      47.311  11.807  10.103  0.00  0.00    +0.000 HD
ENDBRANCH  23  26
ENDBRANCH  21  22
ENDBRANCH   4  21
TORSDOF 9
ENDMDL
MODEL 6
REMARK VINA RESULT:    -7.196      3.528      8.643
REMARK INTER + INTRA:         -11.846
REMARK INTER:                  -9.920
REMARK INTRA:                  -1.926
REMARK UNBOUND:                -1.075
REMARK  Name = 
REMARK  9 active torsions:
REMARK  status: ('A' for Active; 'I' for Inactive)
REMARK    1  A    between atoms: N_1  and  C_2
REMARK    2  A    between atoms: C_2  and  C_3
REMARK    3  A    between atoms: C_3  and  N_4
REMARK    4  A    between atoms: C_3  and  C_12
REMARK    5  A    between atoms: N_4  and  C_5
REMARK    6  A    between atoms: C_5  and  C_6
REMARK    7  A    between atoms: C_15  and  C_16
REMARK    8  A    between atoms: C_16  and  N_17
REMARK    9  A    between atoms: C_18  and  C_20
REMARK                            x       y       z     vdW  Elec       q    Type
REMARK                         _______ _______ _______ _____ _____    ______ ____
ROOT
ATOM      1  C   UNL     1      48.693   7.901  16.411  0.00  0.00    +0.000 A 
ATOM      2  C   UNL     1      49.206   6.848  15.630  0.00  0.00    +0.000 A 
ATOM      3  C   UNL     1      49.109   6.867  14.234  0.00  0.00    +0.000 A 
ATOM      4  C   UNL     1      48.544   7.968  13.582  0.00  0.00    +0.000 A 
ATOM      5  C   UNL     1      48.051   9.026  14.350  0.00  0.00    +0.000 A 
ATOM      6  C   UNL     1      48.115   8.991  15.743  0.00  0.00    +0.000 A 
ENDROOT
BRANCH   1   7
ATOM      7  C   UNL     1      48.708   7.788  17.940  0.00  0.00    +0.000 C 
BRANCH   7   8
ATOM      8  N   UNL     1      47.454   7.214  18.473  0.00  0.00    +0.000 NA
ATOM      9  H   UNL     1      46.804   7.048  17.708  0.00  0.00    +0.000 HD
BRANCH   8  10
ATOM     10  C   UNL     1      47.627   5.985  19.243  0.00  0.00    +0.000 C 
BRANCH  10  11
ATOM     11  C   UNL     1      48.074   4.829  18.378  0.00  0.00    +0.000 A 
ATOM     12  C   UNL     1      49.348   4.261  18.539  0.00  0.00    +0.000 A 
ATOM     13  C   UNL     1      49.731   3.156  17.777  0.00  0.00    +0.000 A 
ATOM     14  C   UNL     1      48.846   2.612  16.848  0.00  0.00    +0.000 A 
ATOM     15  C   UNL     1      47.584   3.177  16.672  0.00  0.00    +0.000 A 
ATOM     16  C   UNL     1      47.200   4.281  17.432  0.00  0.00    +0.000 A 
ENDBRANCH  10  11
ENDBRANCH   8  10
ENDBRANCH   7   8
BRANCH   7  17
ATOM     17  C   UNL     1      49.010   9.178  18.620  0.00  0.00    +0.000 C 
BRANCH  17  18
ATOM     18  N   UNL     1      47.977   9.704  19.521  0.00  0.00    +0.000 NA
ATOM     19  H   UNL     1      47.061   9.560  19.090  0.00  0.00    +0.000 HD
ATOM     20  H   UNL     1      48.093  10.707  19.630  0.00  0.00    +0.000 HD
ENDBRANCH  17  18
ENDBRANCH   7  17
ENDBRANCH   1   7
BRANCH   4  21
ATOM     21  C   UNL     1      48.424   8.022  12.085  0.00  0.00    +0.000 C 
BRANCH  21  22
ATOM     22  N   UNL     1      47.654   6.916  11.575  0.00  0.00    +0.000 N 
ATOM     23  C   UNL     1      46.288   6.945  11.466  0.00  0.00    +0.000 C 
ATOM     24  O   UNL     1      45.615   7.913  11.808  0.00  0.00    +0.000 OA
ATOM     25  H   UNL     1      48.138   6.027  11.509  0.00  0.00    +0.000 HD
BRANCH  23  26
ATOM     26  C   UNL     1      45.674   5.766  10.838  0.00  0.00    +0.000 A 
ATOM     27  C   UNL     1      45.834   5.552   9.477  0.00  0.00    +0.000 A 
ATOM     28  S   UNL     1      45.104   4.113   8.922  0.00  0.00    +0.000 S 
ATOM     29  C   UNL     1      44.506   3.755  10.474  0.00  0.00    +0.000 A 
ATOM     30  N   UNL     1      43.749   2.643  10.691  0.00  0.00    +0.000 NA
ATOM     31  C   UNL     1      43.341   2.508  11.907  0.00  0.00    +0.000 A 
ATOM     32  N   UNL     1      43.627   3.373  12.929  0.00  0.00    +0.000 N 
ATOM     33  C   UNL     1      44.432   4.476  12.771  0.00  0.00    +0.000 A 
ATOM     34  O   UNL     1      44.753   5.167  13.728  0.00  0.00    +0.000 OA
ATOM     35  C   UNL     1      44.886   4.701  11.408  0.00  0.00    +0.000 A 
ATOM     36  H   UNL     1      43.300   3.195  13.867  0.00  0.00    +0.000 HD
ENDBRANCH  23  26
ENDBRANCH  21  22
ENDBRANCH   4  21
TORSDOF 9
ENDMDL
MODEL 7
REMARK VINA RESULT:    -7.040      3.319      9.145
REMARK INTER + INTRA:         -11.614
REMARK INTER:                  -9.692
REMARK INTRA:                  -1.921
REMARK UNBOUND:                -1.075
REMARK  Name = 
REMARK  9 active torsions:
REMARK  status: ('A' for Active; 'I' for Inactive)
REMARK    1  A    between atoms: N_1  and  C_2
REMARK    2  A    between atoms: C_2  and  C_3
REMARK    3  A    between atoms: C_3  and  N_4
REMARK    4  A    between atoms: C_3  and  C_12
REMARK    5  A    between atoms: N_4  and  C_5
REMARK    6  A    between atoms: C_5  and  C_6
REMARK    7  A    between atoms: C_15  and  C_16
REMARK    8  A    between atoms: C_16  and  N_17
REMARK    9  A    between atoms: C_18  and  C_20
REMARK                            x       y       z     vdW  Elec       q    Type
REMARK                         _______ _______ _______ _____ _____    ______ ____
ROOT
ATOM      1  C   UNL     1      48.924   8.081  16.236  0.00  0.00    +0.000 A 
ATOM      2  C   UNL     1      49.157   6.885  15.530  0.00  0.00    +0.000 A 
ATOM      3  C   UNL     1      48.739   6.733  14.204  0.00  0.00    +0.000 A 
ATOM      4  C   UNL     1      48.126   7.796  13.532  0.00  0.00    +0.000 A 
ATOM      5  C   UNL     1      47.910   8.993  14.219  0.00  0.00    +0.000 A 
ATOM      6  C   UNL     1      48.295   9.132  15.553  0.00  0.00    +0.000 A 
ENDROOT
BRANCH   1   7
ATOM      7  C   UNL     1      49.286   8.167  17.723  0.00  0.00    +0.000 C 
BRANCH   7   8
ATOM      8  N   UNL     1      48.302   7.474  18.581  0.00  0.00    +0.000 NA
ATOM      9  H   UNL     1      47.489   7.217  18.027  0.00  0.00    +0.000 HD
BRANCH   8  10
ATOM     10  C   UNL     1      48.819   6.295  19.270  0.00  0.00    +0.000 C 
BRANCH  10  11
ATOM     11  C   UNL     1      48.600   5.029  18.474  0.00  0.00    +0.000 A 
ATOM     12  C   UNL     1      47.342   4.730  17.929  0.00  0.00    +0.000 A 
ATOM     13  C   UNL     1      47.163   3.589  17.146  0.00  0.00    +0.000 A 
ATOM     14  C   UNL     1      48.240   2.736  16.903  0.00  0.00    +0.000 A 
ATOM     15  C   UNL     1      49.489   3.018  17.451  0.00  0.00    +0.000 A 
ATOM     16  C   UNL     1      49.669   4.157  18.235  0.00  0.00    +0.000 A 
ENDBRANCH  10  11
ENDBRANCH   8  10
ENDBRANCH   7   8
BRANCH   7  17
ATOM     17  C   UNL     1      49.468   9.662  18.188  0.00  0.00    +0.000 C 
BRANCH  17  18
ATOM     18  N   UNL     1      50.847  10.154  18.289  0.00  0.00    +0.000 NA
ATOM     19  H   UNL     1      50.924  10.752  19.116  0.00  0.00    +0.000 HD
ATOM     20  H   UNL     1      51.066  10.737  17.487  0.00  0.00    +0.000 HD
ENDBRANCH  17  18
ENDBRANCH   7  17
ENDBRANCH   1   7
BRANCH   4  21
ATOM     21  C   UNL     1      47.664   7.667  12.107  0.00  0.00    +0.000 C 
BRANCH  21  22
ATOM     22  N   UNL     1      46.926   6.448  11.896  0.00  0.00    +0.000 N 
ATOM     23  C   UNL     1      45.579   6.343  12.123  0.00  0.00    +0.000 C 
ATOM     24  O   UNL     1      44.900   7.279  12.535  0.00  0.00    +0.000 OA
ATOM     25  H   UNL     1      47.479   5.604  11.790  0.00  0.00    +0.000 HD
BRANCH  23  26
ATOM     26  C   UNL     1      44.972   5.053  11.767  0.00  0.00    +0.000 A 
ATOM     27  C   UNL     1      44.259   4.343  12.723  0.00  0.00    +0.000 A 
ATOM     28  S   UNL     1      43.576   2.896  12.131  0.00  0.00    +0.000 S 
ATOM     29  C   UNL     1      44.253   3.145  10.590  0.00  0.00    +0.000 A 
ATOM     30  N   UNL     1      44.070   2.235   9.593  0.00  0.00    +0.000 NA
ATOM     31  C   UNL     1      44.660   2.536   8.485  0.00  0.00    +0.000 A 
ATOM     32  N   UNL     1      45.405   3.666   8.278  0.00  0.00    +0.000 N 
ATOM     33  C   UNL     1      45.569   4.639   9.235  0.00  0.00    +0.000 A 
ATOM     34  O   UNL     1      46.152   5.684   8.981  0.00  0.00    +0.000 OA
ATOM     35  C   UNL     1      44.961   4.330  10.519  0.00  0.00    +0.000 A 
ATOM     36  H   UNL     1      45.817   3.858   7.377  0.00  0.00    +0.000 HD
ENDBRANCH  23  26
ENDBRANCH  21  22
ENDBRANCH   4  21
TORSDOF 9
ENDMDL
MODEL 8
REMARK VINA RESULT:    -7.038      3.752      9.114
REMARK INTER + INTRA:         -11.611
REMARK INTER:                 -10.573
REMARK INTRA:                  -1.037
REMARK UNBOUND:                -1.075
REMARK  Name = 
REMARK  9 active torsions:
REMARK  status: ('A' for Active; 'I' for Inactive)
REMARK    1  A    between atoms: N_1  and  C_2
REMARK    2  A    between atoms: C_2  and  C_3
REMARK    3  A    between atoms: C_3  and  N_4
REMARK    4  A    between atoms: C_3  and  C_12
REMARK    5  A    between atoms: N_4  and  C_5
REMARK    6  A    between atoms: C_5  and  C_6
REMARK    7  A    between atoms: C_15  and  C_16
REMARK    8  A    between atoms: C_16  and  N_17
REMARK    9  A    between atoms: C_18  and  C_20
REMARK                            x       y       z     vdW  Elec       q    Type
REMARK                         _______ _______ _______ _____ _____    ______ ____
ROOT
ATOM      1  C   UNL     1      49.278   5.324  17.333  0.00  0.00    +0.000 A 
ATOM      2  C   UNL     1      50.126   6.309  16.794  0.00  0.00    +0.000 A 
ATOM      3  C   UNL     1      49.875   6.876  15.540  0.00  0.00    +0.000 A 
ATOM      4  C   UNL     1      48.733   6.510  14.818  0.00  0.00    +0.000 A 
ATOM      5  C   UNL     1      47.876   5.547  15.356  0.00  0.00    +0.000 A 
ATOM      6  C   UNL     1      48.146   4.956  16.590  0.00  0.00    +0.000 A 
ENDROOT
BRANCH   1   7
ATOM      7  C   UNL     1      49.653   4.638  18.653  0.00  0.00    +0.000 C 
BRANCH   7   8
ATOM      8  N   UNL     1      49.758   3.170  18.512  0.00  0.00    +0.000 NA
ATOM      9  H   UNL     1      48.826   2.765  18.466  0.00  0.00    +0.000 HD
BRANCH   8  10
ATOM     10  C   UNL     1      50.544   2.723  17.365  0.00  0.00    +0.000 C 
BRANCH  10  11
ATOM     11  C   UNL     1      51.918   2.239  17.770  0.00  0.00    +0.000 A 
ATOM     12  C   UNL     1      52.790   3.069  18.490  0.00  0.00    +0.000 A 
ATOM     13  C   UNL     1      54.033   2.594  18.911  0.00  0.00    +0.000 A 
ATOM     14  C   UNL     1      54.415   1.286  18.613  0.00  0.00    +0.000 A 
ATOM     15  C   UNL     1      53.560   0.459  17.887  0.00  0.00    +0.000 A 
ATOM     16  C   UNL     1      52.319   0.933  17.465  0.00  0.00    +0.000 A 
ENDBRANCH  10  11
ENDBRANCH   8  10
ENDBRANCH   7   8
BRANCH   7  17
ATOM     17  C   UNL     1      48.645   5.011  19.805  0.00  0.00    +0.000 C 
BRANCH  17  18
ATOM     18  N   UNL     1      48.382   3.971  20.808  0.00  0.00    +0.000 NA
ATOM     19  H   UNL     1      49.242   3.436  20.959  0.00  0.00    +0.000 HD
ATOM     20  H   UNL     1      47.692   3.316  20.454  0.00  0.00    +0.000 HD
ENDBRANCH  17  18
ENDBRANCH   7  17
ENDBRANCH   1   7
BRANCH   4  21
ATOM     21  C   UNL     1      48.432   7.098  13.469  0.00  0.00    +0.000 C 
BRANCH  21  22
ATOM     22  N   UNL     1      47.584   6.233  12.689  0.00  0.00    +0.000 N 
ATOM     23  C   UNL     1      46.523   6.693  11.954  0.00  0.00    +0.000 C 
ATOM     24  O   UNL     1      46.207   7.879  11.914  0.00  0.00    +0.000 OA
ATOM     25  H   UNL     1      47.660   5.241  12.883  0.00  0.00    +0.000 HD
BRANCH  23  26
ATOM     26  C   UNL     1      45.822   5.685  11.146  0.00  0.00    +0.000 A 
ATOM     27  C   UNL     1      45.925   5.721   9.762  0.00  0.00    +0.000 A 
ATOM     28  S   UNL     1      45.097   4.450   8.983  0.00  0.00    +0.000 S 
ATOM     29  C   UNL     1      44.531   3.837  10.466  0.00  0.00    +0.000 A 
ATOM     30  N   UNL     1      43.720   2.744  10.505  0.00  0.00    +0.000 NA
ATOM     31  C   UNL     1      43.345   2.403  11.692  0.00  0.00    +0.000 A 
ATOM     32  N   UNL     1      43.713   3.047  12.843  0.00  0.00    +0.000 N 
ATOM     33  C   UNL     1      44.574   4.119  12.858  0.00  0.00    +0.000 A 
ATOM     34  O   UNL     1      44.964   4.602  13.911  0.00  0.00    +0.000 OA
ATOM     35  C   UNL     1      44.995   4.572  11.542  0.00  0.00    +0.000 A 
ATOM     36  H   UNL     1      43.408   2.712  13.745  0.00  0.00    +0.000 HD
ENDBRANCH  23  26
ENDBRANCH  21  22
ENDBRANCH   4  21
TORSDOF 9
ENDMDL
MODEL 9
REMARK VINA RESULT:    -7.021      1.900      2.777
REMARK INTER + INTRA:         -11.585
REMARK INTER:                 -10.627
REMARK INTRA:                  -0.958
REMARK UNBOUND:                -1.075
REMARK  Name = 
REMARK  9 active torsions:
REMARK  status: ('A' for Active; 'I' for Inactive)
REMARK    1  A    between atoms: N_1  and  C_2
REMARK    2  A    between atoms: C_2  and  C_3
REMARK    3  A    between atoms: C_3  and  N_4
REMARK    4  A    between atoms: C_3  and  C_12
REMARK    5  A    between atoms: N_4  and  C_5
REMARK    6  A    between atoms: C_5  and  C_6
REMARK    7  A    between atoms: C_15  and  C_16
REMARK    8  A    between atoms: C_16  and  N_17
REMARK    9  A    between atoms: C_18  and  C_20
REMARK                            x       y       z     vdW  Elec       q    Type
REMARK                         _______ _______ _______ _____ _____    ______ ____
ROOT
ATOM      1  C   UNL     1      46.049   7.181  12.282  0.00  0.00    +0.000 A 
ATOM      2  C   UNL     1      46.271   8.232  13.192  0.00  0.00    +0.000 A 
ATOM      3  C   UNL     1      47.411   8.261  14.003  0.00  0.00    +0.000 A 
ATOM      4  C   UNL     1      48.387   7.265  13.882  0.00  0.00    +0.000 A 
ATOM      5  C   UNL     1      48.183   6.230  12.966  0.00  0.00    +0.000 A 
ATOM      6  C   UNL     1      47.029   6.182  12.184  0.00  0.00    +0.000 A 
ENDROOT
BRANCH   1   7
ATOM      7  C   UNL     1      44.731   7.118  11.501  0.00  0.00    +0.000 C 
BRANCH   7   8
ATOM      8  N   UNL     1      44.840   6.289  10.282  0.00  0.00    +0.000 NA
ATOM      9  H   UNL     1      45.808   6.264   9.973  0.00  0.00    +0.000 HD
BRANCH   8  10
ATOM     10  C   UNL     1      44.337   4.926  10.427  0.00  0.00    +0.000 C 
BRANCH  10  11
ATOM     11  C   UNL     1      44.981   3.974   9.445  0.00  0.00    +0.000 A 
ATOM     12  C   UNL     1      45.765   4.455   8.386  0.00  0.00    +0.000 A 
ATOM     13  C   UNL     1      46.405   3.568   7.518  0.00  0.00    +0.000 A 
ATOM     14  C   UNL     1      46.263   2.193   7.703  0.00  0.00    +0.000 A 
ATOM     15  C   UNL     1      45.476   1.706   8.744  0.00  0.00    +0.000 A 
ATOM     16  C   UNL     1      44.836   2.591   9.611  0.00  0.00    +0.000 A 
ENDBRANCH  10  11
ENDBRANCH   8  10
ENDBRANCH   7   8
BRANCH   7  17
ATOM     17  C   UNL     1      44.203   8.559  11.143  0.00  0.00    +0.000 C 
BRANCH  17  18
ATOM     18  N   UNL     1      42.765   8.682  10.877  0.00  0.00    +0.000 NA
ATOM     19  H   UNL     1      42.409   7.774  10.567  0.00  0.00    +0.000 HD
ATOM     20  H   UNL     1      42.609   9.331  10.112  0.00  0.00    +0.000 HD
ENDBRANCH  17  18
ENDBRANCH   7  17
ENDBRANCH   1   7
BRANCH   4  21
ATOM     21  C   UNL     1      49.623   7.265  14.736  0.00  0.00    +0.000 C 
BRANCH  21  22
ATOM     22  N   UNL     1      49.301   7.167  16.137  0.00  0.00    +0.000 N 
ATOM     23  C   UNL     1      48.818   6.021  16.712  0.00  0.00    +0.000 C 
ATOM     24  O   UNL     1      48.611   4.993  16.074  0.00  0.00    +0.000 OA
ATOM     25  H   UNL     1      49.229   8.044  16.641  0.00  0.00    +0.000 HD
BRANCH  23  26
ATOM     26  C   UNL     1      48.631   6.070  18.170  0.00  0.00    +0.000 A 
ATOM     27  C   UNL     1      48.951   4.961  18.940  0.00  0.00    +0.000 A 
ATOM     28  S   UNL     1      48.725   5.205  20.613  0.00  0.00    +0.000 S 
ATOM     29  C   UNL     1      48.145   6.784  20.360  0.00  0.00    +0.000 A 
ATOM     30  N   UNL     1      47.740   7.555  21.407  0.00  0.00    +0.000 NA
ATOM     31  C   UNL     1      47.299   8.719  21.070  0.00  0.00    +0.000 A 
ATOM     32  N   UNL     1      47.237   9.190  19.785  0.00  0.00    +0.000 N 
ATOM     33  C   UNL     1      47.687   8.471  18.703  0.00  0.00    +0.000 A 
ATOM     34  O   UNL     1      47.714   8.963  17.584  0.00  0.00    +0.000 OA
ATOM     35  C   UNL     1      48.155   7.132  19.022  0.00  0.00    +0.000 A 
ATOM     36  H   UNL     1      46.908  10.123  19.590  0.00  0.00    +0.000 HD
ENDBRANCH  23  26
ENDBRANCH  21  22
ENDBRANCH   4  21
TORSDOF 9
ENDMDL
