MODEL 1
REMARK VINA RESULT:    -6.881      0.000      0.000
REMARK INTER + INTRA:         -10.372
REMARK INTER:                  -9.294
REMARK INTRA:                  -1.078
REMARK UNBOUND:                -1.078
REMARK  Name = 
REMARK  7 active torsions:
REMARK  status: ('A' for Active; 'I' for Inactive)
REMARK    1  A    between atoms: C_1  and  O_2
REMARK    2  A    between atoms: O_2  and  C_3
REMARK    3  A    between atoms: C_5  and  C_6
REMARK    4  A    between atoms: C_10  and  N_11
REMARK    5  A    between atoms: N_11  and  C_12
REMARK    6  A    between atoms: C_12  and  C_13
REMARK    7  A    between atoms: C_17  and  C_18
REMARK                            x       y       z     vdW  Elec       q    Type
REMARK                         _______ _______ _______ _____ _____    ______ ____
ROOT
ATOM      1  C   UNL     1      46.165   7.184  12.236  0.00  0.00    +0.000 C 
ATOM      2  C   UNL     1      46.158   8.614  11.724  0.00  0.00    +0.000 C 
ATOM      3  C   UNL     1      45.516   8.298  13.035  0.00  0.00    +0.000 C 
ENDROOT
BRANCH   1   4
ATOM      4  C   UNL     1      45.230   6.141  11.629  0.00  0.00    +0.000 A 
ATOM      5  C   UNL     1      43.846   6.141  11.833  0.00  0.00    +0.000 A 
ATOM      6  C   UNL     1      43.023   5.247  11.149  0.00  0.00    +0.000 A 
ATOM      7  C   UNL     1      43.568   4.356  10.217  0.00  0.00    +0.000 A 
ATOM      8  C   UNL     1      44.950   4.304   9.982  0.00  0.00    +0.000 A 
ATOM      9  C   UNL     1      45.749   5.173  10.745  0.00  0.00    +0.000 A 
BRANCH   8  10
ATOM     10  C   UNL     1      45.545   3.451   8.924  0.00  0.00    +0.000 A 
ATOM     11  C   UNL     1      46.136   3.967   7.763  0.00  0.00    +0.000 A 
ATOM     12  C   UNL     1      46.743   3.121   6.833  0.00  0.00    +0.000 A 
ATOM     13  C   UNL     1      46.733   1.759   7.073  0.00  0.00    +0.000 A 
ATOM     14  N   UNL     1      46.170   1.202   8.160  0.00  0.00    +0.000 NA
ATOM     15  C   UNL     1      45.601   2.056   9.048  0.00  0.00    +0.000 A 
ENDBRANCH   8  10
ENDBRANCH   1   4
BRANCH   1  16
ATOM     16  N   UNL     1      47.509   6.653  12.578  0.00  0.00    +0.000 N 
ATOM     17  H   UNL     1      47.937   6.081  11.852  0.00  0.00    +0.000 HD
BRANCH  16  23
ATOM     18  C   UNL     1      48.525   6.764  14.786  0.00  0.00    +0.000 A 
ATOM     19  C   UNL     1      48.676   6.229  16.071  0.00  0.00    +0.000 A 
ATOM     20  C   UNL     1      48.091   5.002  16.376  0.00  0.00    +0.000 A 
ATOM     21  C   UNL     1      47.388   4.350  15.380  0.00  0.00    +0.000 A 
ATOM     22  N   UNL     1      47.212   4.843  14.131  0.00  0.00    +0.000 NA
ATOM     23  C   UNL     1      47.769   6.042  13.833  0.00  0.00    +0.000 A 
BRANCH  18  25
ATOM     24  C   UNL     1      48.591   9.136  15.026  0.00  0.00    +0.000 C 
ATOM     25  O   UNL     1      49.068   7.960  14.378  0.00  0.00    +0.000 OA
ENDBRANCH  18  25
BRANCH  20  26
ATOM     26  C   UNL     1      48.195   4.439  17.688  0.00  0.00    +0.000 C 
ATOM     27  N   UNL     1      48.291   3.970  18.740  0.00  0.00    +0.000 NA
ENDBRANCH  20  26
ENDBRANCH  16  23
ENDBRANCH   1  16
TORSDOF 6
ENDMDL
MODEL 2
REMARK VINA RESULT:    -6.363      2.955      6.975
REMARK INTER + INTRA:          -9.673
REMARK INTER:                  -8.915
REMARK INTRA:                  -0.758
REMARK UNBOUND:                -1.078
REMARK  Name = 
REMARK  7 active torsions:
REMARK  status: ('A' for Active; 'I' for Inactive)
REMARK    1  A    between atoms: C_1  and  O_2
REMARK    2  A    between atoms: O_2  and  C_3
REMARK    3  A    between atoms: C_5  and  C_6
REMARK    4  A    between atoms: C_10  and  N_11
REMARK    5  A    between atoms: N_11  and  C_12
REMARK    6  A    between atoms: C_12  and  C_13
REMARK    7  A    between atoms: C_17  and  C_18
REMARK                            x       y       z     vdW  Elec       q    Type
REMARK                         _______ _______ _______ _____ _____    ______ ____
ROOT
ATOM      1  C   UNL     1      44.059   6.474  11.153  0.00  0.00    +0.000 C 
ATOM      2  C   UNL     1      42.980   7.476  11.524  0.00  0.00    +0.000 C 
ATOM      3  C   UNL     1      44.091   7.892  10.616  0.00  0.00    +0.000 C 
ENDROOT
BRANCH   1   4
ATOM      4  C   UNL     1      45.144   6.097  12.159  0.00  0.00    +0.000 A 
ATOM      5  C   UNL     1      45.046   4.994  13.014  0.00  0.00    +0.000 A 
ATOM      6  C   UNL     1      46.121   4.617  13.819  0.00  0.00    +0.000 A 
ATOM      7  C   UNL     1      47.331   5.319  13.758  0.00  0.00    +0.000 A 
ATOM      8  C   UNL     1      47.480   6.440  12.928  0.00  0.00    +0.000 A 
ATOM      9  C   UNL     1      46.349   6.827  12.187  0.00  0.00    +0.000 A 
BRANCH   8  10
ATOM     10  C   UNL     1      48.779   7.135  12.757  0.00  0.00    +0.000 A 
ATOM     11  C   UNL     1      49.246   7.598  11.520  0.00  0.00    +0.000 A 
ATOM     12  C   UNL     1      50.445   8.308  11.428  0.00  0.00    +0.000 A 
ATOM     13  C   UNL     1      51.172   8.530  12.584  0.00  0.00    +0.000 A 
ATOM     14  N   UNL     1      50.785   8.099  13.798  0.00  0.00    +0.000 NA
ATOM     15  C   UNL     1      49.608   7.424  13.851  0.00  0.00    +0.000 A 
ENDBRANCH   8  10
ENDBRANCH   1   4
BRANCH   1  16
ATOM     16  N   UNL     1      43.589   5.332  10.327  0.00  0.00    +0.000 N 
ATOM     17  H   UNL     1      42.863   4.766  10.760  0.00  0.00    +0.000 HD
BRANCH  16  23
ATOM     18  C   UNL     1      44.317   3.064   9.827  0.00  0.00    +0.000 A 
ATOM     19  C   UNL     1      45.129   2.195   9.089  0.00  0.00    +0.000 A 
ATOM     20  C   UNL     1      46.101   2.719   8.240  0.00  0.00    +0.000 A 
ATOM     21  C   UNL     1      46.233   4.094   8.171  0.00  0.00    +0.000 A 
ATOM     22  N   UNL     1      45.458   4.964   8.861  0.00  0.00    +0.000 NA
ATOM     23  C   UNL     1      44.503   4.459   9.679  0.00  0.00    +0.000 A 
BRANCH  18  25
ATOM     24  C   UNL     1      43.757   2.295  12.014  0.00  0.00    +0.000 C 
ATOM     25  O   UNL     1      43.337   2.653  10.700  0.00  0.00    +0.000 OA
ENDBRANCH  18  25
BRANCH  20  26
ATOM     26  C   UNL     1      46.926   1.863   7.443  0.00  0.00    +0.000 C 
ATOM     27  N   UNL     1      47.609   1.184   6.803  0.00  0.00    +0.000 NA
ENDBRANCH  20  26
ENDBRANCH  16  23
ENDBRANCH   1  16
TORSDOF 6
ENDMDL
MODEL 3
REMARK VINA RESULT:    -6.161      2.228      3.318
REMARK INTER + INTRA:          -9.400
REMARK INTER:                  -8.417
REMARK INTRA:                  -0.983
REMARK UNBOUND:                -1.078
REMARK  Name = 
REMARK  7 active torsions:
REMARK  status: ('A' for Active; 'I' for Inactive)
REMARK    1  A    between atoms: C_1  and  O_2
REMARK    2  A    between atoms: O_2  and  C_3
REMARK    3  A    between atoms: C_5  and  C_6
REMARK    4  A    between atoms: C_10  and  N_11
REMARK    5  A    between atoms: N_11  and  C_12
REMARK    6  A    between atoms: C_12  and  C_13
REMARK    7  A    between atoms: C_17  and  C_18
REMARK                            x       y       z     vdW  Elec       q    Type
REMARK                         _______ _______ _______ _____ _____    ______ ____
ROOT
ATOM      1  C   UNL     1      48.993   7.821  12.560  0.00  0.00    +0.000 C 
ATOM      2  C   UNL     1      49.897   8.047  11.360  0.00  0.00    +0.000 C 
ATOM      3  C   UNL     1      49.562   9.194  12.257  0.00  0.00    +0.000 C 
ENDROOT
BRANCH   1   4
ATOM      4  C   UNL     1      47.488   7.645  12.372  0.00  0.00    +0.000 A 
ATOM      5  C   UNL     1      46.554   8.632  12.705  0.00  0.00    +0.000 A 
ATOM      6  C   UNL     1      45.204   8.472  12.389  0.00  0.00    +0.000 A 
ATOM      7  C   UNL     1      44.769   7.334  11.701  0.00  0.00    +0.000 A 
ATOM      8  C   UNL     1      45.660   6.308  11.354  0.00  0.00    +0.000 A 
ATOM      9  C   UNL     1      46.998   6.477  11.754  0.00  0.00    +0.000 A 
BRANCH   8  10
ATOM     10  C   UNL     1      45.251   5.145  10.529  0.00  0.00    +0.000 A 
ATOM     11  C   UNL     1      45.578   5.012   9.173  0.00  0.00    +0.000 A 
ATOM     12  C   UNL     1      45.226   3.862   8.462  0.00  0.00    +0.000 A 
ATOM     13  C   UNL     1      44.532   2.864   9.122  0.00  0.00    +0.000 A 
ATOM     14  N   UNL     1      44.176   2.939  10.417  0.00  0.00    +0.000 NA
ATOM     15  C   UNL     1      44.546   4.065  11.079  0.00  0.00    +0.000 A 
ENDBRANCH   8  10
ENDBRANCH   1   4
BRANCH   1  16
ATOM     16  N   UNL     1      49.568   6.949  13.616  0.00  0.00    +0.000 N 
ATOM     17  H   UNL     1      49.432   5.951  13.463  0.00  0.00    +0.000 HD
BRANCH  16  23
ATOM     18  C   UNL     1      48.661   6.262  15.767  0.00  0.00    +0.000 A 
ATOM     19  C   UNL     1      48.566   6.452  17.150  0.00  0.00    +0.000 A 
ATOM     20  C   UNL     1      49.151   7.576  17.729  0.00  0.00    +0.000 A 
ATOM     21  C   UNL     1      49.798   8.474  16.901  0.00  0.00    +0.000 A 
ATOM     22  N   UNL     1      49.919   8.315  15.562  0.00  0.00    +0.000 NA
ATOM     23  C   UNL     1      49.362   7.217  14.995  0.00  0.00    +0.000 A 
BRANCH  18  25
ATOM     24  C   UNL     1      47.373   4.257  15.870  0.00  0.00    +0.000 C 
ATOM     25  O   UNL     1      48.113   5.195  15.093  0.00  0.00    +0.000 OA
ENDBRANCH  18  25
BRANCH  20  26
ATOM     26  C   UNL     1      49.104   7.787  19.144  0.00  0.00    +0.000 C 
ATOM     27  N   UNL     1      49.049   7.947  20.288  0.00  0.00    +0.000 NA
ENDBRANCH  20  26
ENDBRANCH  16  23
ENDBRANCH   1  16
TORSDOF 6
ENDMDL
MODEL 4
REMARK VINA RESULT:    -5.830      2.423      3.680
REMARK INTER + INTRA:          -8.952
REMARK INTER:                  -8.374
REMARK INTRA:                  -0.579
REMARK UNBOUND:                -1.078
REMARK  Name = 
REMARK  7 active torsions:
REMARK  status: ('A' for Active; 'I' for Inactive)
REMARK    1  A    between atoms: C_1  and  O_2
REMARK    2  A    between atoms: O_2  and  C_3
REMARK    3  A    between atoms: C_5  and  C_6
REMARK    4  A    between atoms: C_10  and  N_11
REMARK    5  A    between atoms: N_11  and  C_12
REMARK    6  A    between atoms: C_12  and  C_13
REMARK    7  A    between atoms: C_17  and  C_18
REMARK                            x       y       z     vdW  Elec       q    Type
REMARK                         _______ _______ _______ _____ _____    ______ ____
ROOT
ATOM      1  C   UNL     1      43.556   5.923  11.940  0.00  0.00    +0.000 C 
ATOM      2  C   UNL     1      43.234   6.998  10.916  0.00  0.00    +0.000 C 
ATOM      3  C   UNL     1      42.134   6.411  11.738  0.00  0.00    +0.000 C 
ENDROOT
BRANCH   1   4
ATOM      4  C   UNL     1      43.862   4.496  11.491  0.00  0.00    +0.000 A 
ATOM      5  C   UNL     1      43.231   3.371  12.033  0.00  0.00    +0.000 A 
ATOM      6  C   UNL     1      43.449   2.102  11.496  0.00  0.00    +0.000 A 
ATOM      7  C   UNL     1      44.277   1.940  10.380  0.00  0.00    +0.000 A 
ATOM      8  C   UNL     1      44.944   3.031   9.804  0.00  0.00    +0.000 A 
ATOM      9  C   UNL     1      44.753   4.280  10.421  0.00  0.00    +0.000 A 
BRANCH   8  10
ATOM     10  C   UNL     1      45.739   2.909   8.557  0.00  0.00    +0.000 A 
ATOM     11  C   UNL     1      46.298   1.702   8.117  0.00  0.00    +0.000 A 
ATOM     12  C   UNL     1      46.979   1.631   6.899  0.00  0.00    +0.000 A 
ATOM     13  C   UNL     1      47.104   2.784   6.145  0.00  0.00    +0.000 A 
ATOM     14  N   UNL     1      46.603   3.974   6.519  0.00  0.00    +0.000 NA
ATOM     15  C   UNL     1      45.937   4.002   7.701  0.00  0.00    +0.000 A 
ENDBRANCH   8  10
ENDBRANCH   1   4
BRANCH   1  16
ATOM     16  N   UNL     1      44.389   6.381  13.081  0.00  0.00    +0.000 N 
ATOM     17  H   UNL     1      43.949   7.081  13.674  0.00  0.00    +0.000 HD
BRANCH  16  23
ATOM     18  C   UNL     1      46.745   5.794  13.250  0.00  0.00    +0.000 A 
ATOM     19  C   UNL     1      48.083   6.087  12.962  0.00  0.00    +0.000 A 
ATOM     20  C   UNL     1      48.404   7.300  12.358  0.00  0.00    +0.000 A 
ATOM     21  C   UNL     1      47.376   8.181  12.078  0.00  0.00    +0.000 A 
ATOM     22  N   UNL     1      46.071   7.926  12.332  0.00  0.00    +0.000 NA
ATOM     23  C   UNL     1      45.752   6.741  12.908  0.00  0.00    +0.000 A 
BRANCH  18  25
ATOM     24  C   UNL     1      47.268   3.947  14.666  0.00  0.00    +0.000 C 
ATOM     25  O   UNL     1      46.320   4.633  13.852  0.00  0.00    +0.000 OA
ENDBRANCH  18  25
BRANCH  20  26
ATOM     26  C   UNL     1      49.757   7.621  12.017  0.00  0.00    +0.000 C 
ATOM     27  N   UNL     1      50.856   7.869  11.758  0.00  0.00    +0.000 NA
ENDBRANCH  20  26
ENDBRANCH  16  23
ENDBRANCH   1  16
TORSDOF 6
ENDMDL
MODEL 5
REMARK VINA RESULT:    -5.570      2.254      7.453
REMARK INTER + INTRA:          -8.602
REMARK INTER:                  -7.679
REMARK INTRA:                  -0.922
REMARK UNBOUND:                -1.078
REMARK  Name = 
REMARK  7 active torsions:
REMARK  status: ('A' for Active; 'I' for Inactive)
REMARK    1  A    between atoms: C_1  and  O_2
REMARK    2  A    between atoms: O_2  and  C_3
REMARK    3  A    between atoms: C_5  and  C_6
REMARK    4  A    between atoms: C_10  and  N_11
REMARK    5  A    between atoms: N_11  and  C_12
REMARK    6  A    between atoms: C_12  and  C_13
REMARK    7  A    between atoms: C_17  and  C_18
REMARK                            x       y       z     vdW  Elec       q    Type
REMARK                         _______ _______ _______ _____ _____    ______ ____
ROOT
ATOM      1  C   UNL     1      47.858   7.886  13.311  0.00  0.00    +0.000 C 
ATOM      2  C   UNL     1      48.208   8.914  12.249  0.00  0.00    +0.000 C 
ATOM      3  C   UNL     1      48.823   7.555  12.188  0.00  0.00    +0.000 C 
ENDROOT
BRANCH   1   4
ATOM      4  C   UNL     1      48.449   7.992  14.714  0.00  0.00    +0.000 A 
ATOM      5  C   UNL     1      48.119   9.015  15.609  0.00  0.00    +0.000 A 
ATOM      6  C   UNL     1      48.584   8.991  16.924  0.00  0.00    +0.000 A 
ATOM      7  C   UNL     1      49.363   7.921  17.379  0.00  0.00    +0.000 A 
ATOM      8  C   UNL     1      49.735   6.875  16.522  0.00  0.00    +0.000 A 
ATOM      9  C   UNL     1      49.303   6.975  15.186  0.00  0.00    +0.000 A 
BRANCH   8  10
ATOM     10  C   UNL     1      50.464   5.675  17.000  0.00  0.00    +0.000 A 
ATOM     11  C   UNL     1      51.856   5.632  17.152  0.00  0.00    +0.000 A 
ATOM     12  C   UNL     1      52.483   4.498  17.673  0.00  0.00    +0.000 A 
ATOM     13  C   UNL     1      51.702   3.411  18.018  0.00  0.00    +0.000 A 
ATOM     14  N   UNL     1      50.364   3.385  17.882  0.00  0.00    +0.000 NA
ATOM     15  C   UNL     1      49.788   4.509  17.386  0.00  0.00    +0.000 A 
ENDBRANCH   8  10
ENDBRANCH   1   4
BRANCH   1  16
ATOM     16  N   UNL     1      46.445   7.430  13.292  0.00  0.00    +0.000 N 
ATOM     17  H   UNL     1      46.011   7.353  14.210  0.00  0.00    +0.000 HD
BRANCH  16  23
ATOM     18  C   UNL     1      45.926   5.056  13.152  0.00  0.00    +0.000 A 
ATOM     19  C   UNL     1      45.398   3.979  12.431  0.00  0.00    +0.000 A 
ATOM     20  C   UNL     1      45.006   4.167  11.108  0.00  0.00    +0.000 A 
ATOM     21  C   UNL     1      45.168   5.422  10.552  0.00  0.00    +0.000 A 
ATOM     22  N   UNL     1      45.663   6.489  11.223  0.00  0.00    +0.000 NA
ATOM     23  C   UNL     1      46.035   6.314  12.514  0.00  0.00    +0.000 A 
BRANCH  18  25
ATOM     24  C   UNL     1      47.235   3.907  14.781  0.00  0.00    +0.000 C 
ATOM     25  O   UNL     1      46.352   4.978  14.457  0.00  0.00    +0.000 OA
ENDBRANCH  18  25
BRANCH  20  26
ATOM     26  C   UNL     1      44.431   3.098  10.349  0.00  0.00    +0.000 C 
ATOM     27  N   UNL     1      43.977   2.240   9.720  0.00  0.00    +0.000 NA
ENDBRANCH  20  26
ENDBRANCH  16  23
ENDBRANCH   1  16
TORSDOF 6
ENDMDL
MODEL 6
REMARK VINA RESULT:    -5.522      3.055      6.430
REMARK INTER + INTRA:          -8.537
REMARK INTER:                  -8.343
REMARK INTRA:                  -0.194
REMARK UNBOUND:                -1.078
REMARK  Name = 
REMARK  7 active torsions:
REMARK  status: ('A' for Active; 'I' for Inactive)
REMARK    1  A    between atoms: C_1  and  O_2
REMARK    2  A    between atoms: O_2  and  C_3
REMARK    3  A    between atoms: C_5  and  C_6
REMARK    4  A    between atoms: C_10  and  N_11
REMARK    5  A    between atoms: N_11  and  C_12
REMARK    6  A    between atoms: C_12  and  C_13
REMARK    7  A    between atoms: C_17  and  C_18
REMARK                            x       y       z     vdW  Elec       q    Type
REMARK                         _______ _______ _______ _____ _____    ______ ____
ROOT
ATOM      1  C   UNL     1      48.277   7.992  13.106  0.00  0.00    +0.000 C 
ATOM      2  C   UNL     1      49.229   7.039  12.403  0.00  0.00    +0.000 C 
ATOM      3  C   UNL     1      49.729   7.880  13.532  0.00  0.00    +0.000 C 
ENDROOT
BRANCH   1   4
ATOM      4  C   UNL     1      47.857   9.298  12.436  0.00  0.00    +0.000 A 
ATOM      5  C   UNL     1      48.771  10.221  11.917  0.00  0.00    +0.000 A 
ATOM      6  C   UNL     1      48.332  11.333  11.198  0.00  0.00    +0.000 A 
ATOM      7  C   UNL     1      46.967  11.524  10.954  0.00  0.00    +0.000 A 
ATOM      8  C   UNL     1      46.006  10.637  11.461  0.00  0.00    +0.000 A 
ATOM      9  C   UNL     1      46.487   9.569  12.241  0.00  0.00    +0.000 A 
BRANCH   8  10
ATOM     10  C   UNL     1      44.565  10.749  11.128  0.00  0.00    +0.000 A 
ATOM     11  C   UNL     1      43.911  11.975  10.948  0.00  0.00    +0.000 A 
ATOM     12  C   UNL     1      42.569  12.021  10.567  0.00  0.00    +0.000 A 
ATOM     13  C   UNL     1      41.892  10.828  10.388  0.00  0.00    +0.000 A 
ATOM     14  N   UNL     1      42.459   9.620  10.560  0.00  0.00    +0.000 NA
ATOM     15  C   UNL     1      43.768   9.615  10.917  0.00  0.00    +0.000 A 
ENDBRANCH   8  10
ENDBRANCH   1   4
BRANCH   1  16
ATOM     16  N   UNL     1      47.183   7.331  13.863  0.00  0.00    +0.000 N 
ATOM     17  H   UNL     1      47.433   7.047  14.808  0.00  0.00    +0.000 HD
BRANCH  16  23
ATOM     18  C   UNL     1      46.611   4.970  13.717  0.00  0.00    +0.000 A 
ATOM     19  C   UNL     1      45.756   3.964  13.253  0.00  0.00    +0.000 A 
ATOM     20  C   UNL     1      44.728   4.291  12.371  0.00  0.00    +0.000 A 
ATOM     21  C   UNL     1      44.603   5.611  11.978  0.00  0.00    +0.000 A 
ATOM     22  N   UNL     1      45.404   6.610  12.417  0.00  0.00    +0.000 NA
ATOM     23  C   UNL     1      46.397   6.299  13.284  0.00  0.00    +0.000 A 
BRANCH  18  25
ATOM     24  C   UNL     1      47.333   4.297  15.889  0.00  0.00    +0.000 C 
ATOM     25  O   UNL     1      47.661   4.755  14.580  0.00  0.00    +0.000 OA
ENDBRANCH  18  25
BRANCH  20  26
ATOM     26  C   UNL     1      43.813   3.296  11.901  0.00  0.00    +0.000 C 
ATOM     27  N   UNL     1      43.066   2.506  11.509  0.00  0.00    +0.000 NA
ENDBRANCH  20  26
ENDBRANCH  16  23
ENDBRANCH   1  16
TORSDOF 6
ENDMDL
MODEL 7
REMARK VINA RESULT:    -5.500      2.352      3.573
REMARK INTER + INTRA:          -8.507
REMARK INTER:                  -7.507
REMARK INTRA:                  -1.000
REMARK UNBOUND:                -1.078
REMARK  Name = 
REMARK  7 active torsions:
REMARK  status: ('A' for Active; 'I' for Inactive)
REMARK    1  A    between atoms: C_1  and  O_2
REMARK    2  A    between atoms: O_2  and  C_3
REMARK    3  A    between atoms: C_5  and  C_6
REMARK    4  A    between atoms: C_10  and  N_11
REMARK    5  A    between atoms: N_11  and  C_12
REMARK    6  A    between atoms: C_12  and  C_13
REMARK    7  A    between atoms: C_17  and  C_18
REMARK                            x       y       z     vdW  Elec       q    Type
REMARK                         _______ _______ _______ _____ _____    ______ ____
ROOT
ATOM      1  C   UNL     1      49.496   7.886  12.400  0.00  0.00    +0.000 C 
ATOM      2  C   UNL     1      50.085   7.702  11.012  0.00  0.00    +0.000 C 
ATOM      3  C   UNL     1      50.027   9.069  11.613  0.00  0.00    +0.000 C 
ENDROOT
BRANCH   1   4
ATOM      4  C   UNL     1      47.985   7.826  12.613  0.00  0.00    +0.000 A 
ATOM      5  C   UNL     1      47.214   8.943  12.949  0.00  0.00    +0.000 A 
ATOM      6  C   UNL     1      45.822   8.861  13.000  0.00  0.00    +0.000 A 
ATOM      7  C   UNL     1      45.172   7.663  12.681  0.00  0.00    +0.000 A 
ATOM      8  C   UNL     1      45.896   6.509  12.349  0.00  0.00    +0.000 A 
ATOM      9  C   UNL     1      47.299   6.617  12.379  0.00  0.00    +0.000 A 
BRANCH   8  10
ATOM     10  C   UNL     1      45.237   5.259  11.899  0.00  0.00    +0.000 A 
ATOM     11  C   UNL     1      45.091   4.910  10.550  0.00  0.00    +0.000 A 
ATOM     12  C   UNL     1      44.524   3.687  10.184  0.00  0.00    +0.000 A 
ATOM     13  C   UNL     1      44.093   2.834  11.184  0.00  0.00    +0.000 A 
ATOM     14  N   UNL     1      44.192   3.117  12.495  0.00  0.00    +0.000 NA
ATOM     15  C   UNL     1      44.760   4.308  12.813  0.00  0.00    +0.000 A 
ENDBRANCH   8  10
ENDBRANCH   1   4
BRANCH   1  16
ATOM     16  N   UNL     1      50.278   7.257  13.495  0.00  0.00    +0.000 N 
ATOM     17  H   UNL     1      50.650   6.335  13.277  0.00  0.00    +0.000 HD
BRANCH  16  23
ATOM     18  C   UNL     1      49.814   8.440  15.571  0.00  0.00    +0.000 A 
ATOM     19  C   UNL     1      49.224   8.460  16.840  0.00  0.00    +0.000 A 
ATOM     20  C   UNL     1      48.647   7.298  17.346  0.00  0.00    +0.000 A 
ATOM     21  C   UNL     1      48.694   6.155  16.569  0.00  0.00    +0.000 A 
ATOM     22  N   UNL     1      49.246   6.103  15.334  0.00  0.00    +0.000 NA
ATOM     23  C   UNL     1      49.797   7.234  14.832  0.00  0.00    +0.000 A 
BRANCH  18  25
ATOM     24  C   UNL     1      49.726  10.769  15.062  0.00  0.00    +0.000 C 
ATOM     25  O   UNL     1      50.419   9.526  14.982  0.00  0.00    +0.000 OA
ENDBRANCH  18  25
BRANCH  20  26
ATOM     26  C   UNL     1      48.005   7.288  18.625  0.00  0.00    +0.000 C 
ATOM     27  N   UNL     1      47.503   7.287  19.667  0.00  0.00    +0.000 NA
ENDBRANCH  20  26
ENDBRANCH  16  23
ENDBRANCH   1  16
TORSDOF 6
ENDMDL
MODEL 8
REMARK VINA RESULT:    -5.479      2.571      7.242
REMARK INTER + INTRA:          -8.479
REMARK INTER:                  -7.564
REMARK INTRA:                  -0.915
REMARK UNBOUND:                -1.078
REMARK  Name = 
REMARK  7 active torsions:
REMARK  status: ('A' for Active; 'I' for Inactive)
REMARK    1  A    between atoms: C_1  and  O_2
REMARK    2  A    between atoms: O_2  and  C_3
REMARK    3  A    between atoms: C_5  and  C_6
REMARK    4  A    between atoms: C_10  and  N_11
REMARK    5  A    between atoms: N_11  and  C_12
REMARK    6  A    between atoms: C_12  and  C_13
REMARK    7  A    between atoms: C_17  and  C_18
REMARK                            x       y       z     vdW  Elec       q    Type
REMARK                         _______ _______ _______ _____ _____    ______ ____
ROOT
ATOM      1  C   UNL     1      47.970   8.667  13.751  0.00  0.00    +0.000 C 
ATOM      2  C   UNL     1      48.734   9.704  12.945  0.00  0.00    +0.000 C 
ATOM      3  C   UNL     1      48.920   8.253  12.642  0.00  0.00    +0.000 C 
ENDROOT
BRANCH   1   4
ATOM      4  C   UNL     1      48.395   8.331  15.178  0.00  0.00    +0.000 A 
ATOM      5  C   UNL     1      48.268   9.226  16.246  0.00  0.00    +0.000 A 
ATOM      6  C   UNL     1      48.546   8.823  17.552  0.00  0.00    +0.000 A 
ATOM      7  C   UNL     1      48.925   7.503  17.819  0.00  0.00    +0.000 A 
ATOM      8  C   UNL     1      49.081   6.567  16.786  0.00  0.00    +0.000 A 
ATOM      9  C   UNL     1      48.859   7.034  15.478  0.00  0.00    +0.000 A 
BRANCH   8  10
ATOM     10  C   UNL     1      49.372   5.136  17.046  0.00  0.00    +0.000 A 
ATOM     11  C   UNL     1      48.421   4.118  16.896  0.00  0.00    +0.000 A 
ATOM     12  C   UNL     1      48.769   2.780  17.087  0.00  0.00    +0.000 A 
ATOM     13  C   UNL     1      50.070   2.480  17.446  0.00  0.00    +0.000 A 
ATOM     14  N   UNL     1      51.025   3.412  17.620  0.00  0.00    +0.000 NA
ATOM     15  C   UNL     1      50.654   4.701  17.413  0.00  0.00    +0.000 A 
ENDBRANCH   8  10
ENDBRANCH   1   4
BRANCH   1  16
ATOM     16  N   UNL     1      46.498   8.689  13.556  0.00  0.00    +0.000 N 
ATOM     17  H   UNL     1      45.967   8.999  14.367  0.00  0.00    +0.000 HD
BRANCH  16  23
ATOM     18  C   UNL     1      44.942   7.850  11.884  0.00  0.00    +0.000 A 
ATOM     19  C   UNL     1      44.361   6.766  11.215  0.00  0.00    +0.000 A 
ATOM     20  C   UNL     1      44.641   5.469  11.640  0.00  0.00    +0.000 A 
ATOM     21  C   UNL     1      45.481   5.305  12.725  0.00  0.00    +0.000 A 
ATOM     22  N   UNL     1      46.070   6.330  13.387  0.00  0.00    +0.000 NA
ATOM     23  C   UNL     1      45.810   7.593  12.971  0.00  0.00    +0.000 A 
BRANCH  18  25
ATOM     24  C   UNL     1      43.607   9.444  10.717  0.00  0.00    +0.000 C 
ATOM     25  O   UNL     1      44.726   9.167  11.554  0.00  0.00    +0.000 OA
ENDBRANCH  18  25
BRANCH  20  26
ATOM     26  C   UNL     1      44.093   4.335  10.960  0.00  0.00    +0.000 C 
ATOM     27  N   UNL     1      43.652   3.408  10.428  0.00  0.00    +0.000 NA
ENDBRANCH  20  26
ENDBRANCH  16  23
ENDBRANCH   1  16
TORSDOF 6
ENDMDL
MODEL 9
REMARK VINA RESULT:    -5.404      2.264      7.401
REMARK INTER + INTRA:          -8.377
REMARK INTER:                  -7.385
REMARK INTRA:                  -0.991
REMARK UNBOUND:                -1.078
REMARK  Name = 
REMARK  7 active torsions:
REMARK  status: ('A' for Active; 'I' for Inactive)
REMARK    1  A    between atoms: C_1  and  O_2
REMARK    2  A    between atoms: O_2  and  C_3
REMARK    3  A    between atoms: C_5  and  C_6
REMARK    4  A    between atoms: C_10  and  N_11
REMARK    5  A    between atoms: N_11  and  C_12
REMARK    6  A    between atoms: C_12  and  C_13
REMARK    7  A    between atoms: C_17  and  C_18
REMARK                            x       y       z     vdW  Elec       q    Type
REMARK                         _______ _______ _______ _____ _____    ______ ____
ROOT
ATOM      1  C   UNL     1      45.886   7.951  12.570  0.00  0.00    +0.000 C 
ATOM      2  C   UNL     1      45.184   9.253  12.918  0.00  0.00    +0.000 C 
ATOM      3  C   UNL     1      45.464   8.927  11.487  0.00  0.00    +0.000 C 
ENDROOT
BRANCH   1   4
ATOM      4  C   UNL     1      47.386   7.796  12.806  0.00  0.00    +0.000 A 
ATOM      5  C   UNL     1      48.346   8.026  11.814  0.00  0.00    +0.000 A 
ATOM      6  C   UNL     1      49.707   8.000  12.118  0.00  0.00    +0.000 A 
ATOM      7  C   UNL     1      50.134   7.777  13.432  0.00  0.00    +0.000 A 
ATOM      8  C   UNL     1      49.217   7.528  14.463  0.00  0.00    +0.000 A 
ATOM      9  C   UNL     1      47.858   7.493  14.099  0.00  0.00    +0.000 A 
BRANCH   8  10
ATOM     10  C   UNL     1      49.630   7.399  15.881  0.00  0.00    +0.000 A 
ATOM     11  C   UNL     1      48.995   8.076  16.931  0.00  0.00    +0.000 A 
ATOM     12  C   UNL     1      49.381   7.863  18.257  0.00  0.00    +0.000 A 
ATOM     13  C   UNL     1      50.418   6.983  18.509  0.00  0.00    +0.000 A 
ATOM     14  N   UNL     1      51.076   6.315  17.545  0.00  0.00    +0.000 NA
ATOM     15  C   UNL     1      50.665   6.537  16.271  0.00  0.00    +0.000 A 
ENDBRANCH   8  10
ENDBRANCH   1   4
BRANCH   1  16
ATOM     16  N   UNL     1      45.105   6.724  12.868  0.00  0.00    +0.000 N 
ATOM     17  H   UNL     1      45.195   6.386  13.824  0.00  0.00    +0.000 HD
BRANCH  16  23
ATOM     18  C   UNL     1      45.332   4.321  12.562  0.00  0.00    +0.000 A 
ATOM     19  C   UNL     1      45.223   3.196  11.737  0.00  0.00    +0.000 A 
ATOM     20  C   UNL     1      44.926   3.363  10.386  0.00  0.00    +0.000 A 
ATOM     21  C   UNL     1      44.761   4.651   9.910  0.00  0.00    +0.000 A 
ATOM     22  N   UNL     1      44.848   5.760  10.682  0.00  0.00    +0.000 NA
ATOM     23  C   UNL     1      45.125   5.601  11.999  0.00  0.00    +0.000 A 
BRANCH  18  25
ATOM     24  C   UNL     1      46.971   3.927  14.250  0.00  0.00    +0.000 C 
ATOM     25  O   UNL     1      45.631   4.269  13.904  0.00  0.00    +0.000 OA
ENDBRANCH  18  25
BRANCH  20  26
ATOM     26  C   UNL     1      44.773   2.236   9.518  0.00  0.00    +0.000 C 
ATOM     27  N   UNL     1      44.662   1.334   8.803  0.00  0.00    +0.000 NA
ENDBRANCH  20  26
ENDBRANCH  16  23
ENDBRANCH   1  16
TORSDOF 6
ENDMDL
