MODEL 1
REMARK VINA RESULT:    -9.007      0.000      0.000
REMARK INTER + INTRA:         -13.521
REMARK INTER:                 -12.693
REMARK INTRA:                  -0.828
REMARK UNBOUND:                -0.828
REMARK  Name = 
REMARK  7 active torsions:
REMARK  status: ('A' for Active; 'I' for Inactive)
REMARK    1  A    between atoms: C_2  and  C_25
REMARK    2  A    between atoms: N_3  and  C_4
REMARK    3  A    between atoms: C_4  and  C_5
REMARK    4  A    between atoms: C_9  and  C_10
REMARK    5  A    between atoms: C_10  and  C_11
REMARK    6  A    between atoms: C_11  and  C_12
REMARK    7  A    between atoms: C_12  and  C_14
REMARK                            x       y       z     vdW  Elec       q    Type
REMARK                         _______ _______ _______ _____ _____    ______ ____
ROOT
ATOM      1  C   UNL     1      44.982   4.608  12.062  0.00  0.00    +0.000 A 
ATOM      2  C   UNL     1      44.604   5.902  11.682  0.00  0.00    +0.000 A 
ATOM      3  C   UNL     1      45.227   7.012  12.248  0.00  0.00    +0.000 A 
ATOM      4  C   UNL     1      46.234   6.840  13.199  0.00  0.00    +0.000 A 
ATOM      5  C   UNL     1      46.628   5.554  13.598  0.00  0.00    +0.000 A 
ATOM      6  C   UNL     1      46.009   4.445  13.006  0.00  0.00    +0.000 A 
ENDROOT
BRANCH   1   7
ATOM      7  C   UNL     1      44.279   3.408  11.492  0.00  0.00    +0.000 C 
BRANCH   7  10
ATOM      8  O   UNL     1      44.080   4.126   8.815  0.00  0.00    +0.000 OA
ATOM      9  C   UNL     1      44.868   3.240   9.131  0.00  0.00    +0.000 C 
ATOM     10  N   UNL     1      45.012   2.783  10.425  0.00  0.00    +0.000 N 
ATOM     11  H   UNL     1      45.728   2.086  10.608  0.00  0.00    +0.000 HD
BRANCH   9  12
ATOM     12  C   UNL     1      45.761   2.601   8.113  0.00  0.00    +0.000 A 
ATOM     13  C   UNL     1      46.179   3.352   7.018  0.00  0.00    +0.000 A 
ATOM     14  C   UNL     1      47.052   2.765   6.110  0.00  0.00    +0.000 A 
ATOM     15  C   UNL     1      47.469   1.454   6.322  0.00  0.00    +0.000 A 
ATOM     16  C   UNL     1      46.987   0.776   7.433  0.00  0.00    +0.000 A 
ATOM     17  N   UNL     1      46.143   1.314   8.342  0.00  0.00    +0.000 NA
ENDBRANCH   9  12
ENDBRANCH   7  10
ENDBRANCH   1   7
BRANCH   5  18
ATOM     18  C   UNL     1      47.664   5.361  14.685  0.00  0.00    +0.000 C 
BRANCH  18  19
ATOM     19  C   UNL     1      47.287   4.192  15.593  0.00  0.00    +0.000 C 
BRANCH  19  20
ATOM     20  C   UNL     1      47.567   4.432  17.057  0.00  0.00    +0.000 C 
ATOM     21  O   UNL     1      46.656   4.702  17.839  0.00  0.00    +0.000 OA
BRANCH  20  22
ATOM     22  C   UNL     1      48.945   4.333  17.540  0.00  0.00    +0.000 A 
ATOM     23  C   UNL     1      49.544   5.331  18.286  0.00  0.00    +0.000 A 
ATOM     24  O   UNL     1      50.809   5.000  18.641  0.00  0.00    +0.000 OA
ATOM     25  C   UNL     1      51.065   3.770  18.122  0.00  0.00    +0.000 A 
ATOM     26  N   UNL     1      52.244   3.127  18.299  0.00  0.00    +0.000 NA
ATOM     27  C   UNL     1      52.288   1.968  17.733  0.00  0.00    +0.000 A 
ATOM     28  N   UNL     1      51.267   1.405  17.008  0.00  0.00    +0.000 N 
ATOM     29  C   UNL     1      50.060   2.033  16.796  0.00  0.00    +0.000 A 
ATOM     30  O   UNL     1      49.189   1.500  16.120  0.00  0.00    +0.000 OA
ATOM     31  C   UNL     1      49.955   3.325  17.427  0.00  0.00    +0.000 A 
ATOM     32  H   UNL     1      51.373   0.497  16.580  0.00  0.00    +0.000 HD
ENDBRANCH  20  22
ENDBRANCH  19  20
ENDBRANCH  18  19
ENDBRANCH   5  18
TORSDOF 7
ENDMDL
MODEL 2
REMARK VINA RESULT:    -8.596      1.989      3.141
REMARK INTER + INTRA:         -12.942
REMARK INTER:                 -11.774
REMARK INTRA:                  -1.168
REMARK UNBOUND:                -0.828
REMARK  Name = 
REMARK  7 active torsions:
REMARK  status: ('A' for Active; 'I' for Inactive)
REMARK    1  A    between atoms: C_2  and  C_25
REMARK    2  A    between atoms: N_3  and  C_4
REMARK    3  A    between atoms: C_4  and  C_5
REMARK    4  A    between atoms: C_9  and  C_10
REMARK    5  A    between atoms: C_10  and  C_11
REMARK    6  A    between atoms: C_11  and  C_12
REMARK    7  A    between atoms: C_12  and  C_14
REMARK                            x       y       z     vdW  Elec       q    Type
REMARK                         _______ _______ _______ _____ _____    ______ ____
ROOT
ATOM      1  C   UNL     1      45.233   6.466  11.323  0.00  0.00    +0.000 A 
ATOM      2  C   UNL     1      44.429   7.567  11.647  0.00  0.00    +0.000 A 
ATOM      3  C   UNL     1      45.009   8.762  12.068  0.00  0.00    +0.000 A 
ATOM      4  C   UNL     1      46.397   8.868  12.169  0.00  0.00    +0.000 A 
ATOM      5  C   UNL     1      47.222   7.779  11.853  0.00  0.00    +0.000 A 
ATOM      6  C   UNL     1      46.629   6.589  11.410  0.00  0.00    +0.000 A 
ENDROOT
BRANCH   1   7
ATOM      7  C   UNL     1      44.610   5.159  10.918  0.00  0.00    +0.000 C 
BRANCH   7  10
ATOM      8  O   UNL     1      43.928   2.680   9.865  0.00  0.00    +0.000 OA
ATOM      9  C   UNL     1      44.926   3.250   9.434  0.00  0.00    +0.000 C 
ATOM     10  N   UNL     1      45.372   4.462   9.917  0.00  0.00    +0.000 N 
ATOM     11  H   UNL     1      46.174   4.890   9.465  0.00  0.00    +0.000 HD
BRANCH   9  12
ATOM     12  C   UNL     1      45.726   2.662   8.313  0.00  0.00    +0.000 A 
ATOM     13  C   UNL     1      46.011   3.451   7.202  0.00  0.00    +0.000 A 
ATOM     14  C   UNL     1      46.801   2.911   6.195  0.00  0.00    +0.000 A 
ATOM     15  C   UNL     1      47.270   1.608   6.326  0.00  0.00    +0.000 A 
ATOM     16  C   UNL     1      46.922   0.889   7.462  0.00  0.00    +0.000 A 
ATOM     17  N   UNL     1      46.162   1.381   8.466  0.00  0.00    +0.000 NA
ENDBRANCH   9  12
ENDBRANCH   7  10
ENDBRANCH   1   7
BRANCH   5  18
ATOM     18  C   UNL     1      48.722   7.862  12.035  0.00  0.00    +0.000 C 
BRANCH  18  19
ATOM     19  C   UNL     1      49.208   6.812  13.031  0.00  0.00    +0.000 C 
BRANCH  19  20
ATOM     20  C   UNL     1      48.591   6.931  14.404  0.00  0.00    +0.000 C 
ATOM     21  O   UNL     1      48.585   8.005  15.004  0.00  0.00    +0.000 OA
BRANCH  20  22
ATOM     22  C   UNL     1      47.987   5.745  15.014  0.00  0.00    +0.000 A 
ATOM     23  C   UNL     1      47.009   5.000  14.379  0.00  0.00    +0.000 A 
ATOM     24  O   UNL     1      46.626   3.937  15.126  0.00  0.00    +0.000 OA
ATOM     25  C   UNL     1      47.348   3.971  16.277  0.00  0.00    +0.000 A 
ATOM     26  N   UNL     1      47.225   3.038  17.252  0.00  0.00    +0.000 NA
ATOM     27  C   UNL     1      48.002   3.244  18.263  0.00  0.00    +0.000 A 
ATOM     28  N   UNL     1      48.877   4.295  18.382  0.00  0.00    +0.000 N 
ATOM     29  C   UNL     1      49.021   5.268  17.419  0.00  0.00    +0.000 A 
ATOM     30  O   UNL     1      49.799   6.200  17.584  0.00  0.00    +0.000 OA
ATOM     31  C   UNL     1      48.188   5.071  16.260  0.00  0.00    +0.000 A 
ATOM     32  H   UNL     1      49.449   4.403  19.207  0.00  0.00    +0.000 HD
ENDBRANCH  20  22
ENDBRANCH  19  20
ENDBRANCH  18  19
ENDBRANCH   5  18
TORSDOF 7
ENDMDL
MODEL 3
REMARK VINA RESULT:    -8.467      1.939      2.579
REMARK INTER + INTRA:         -12.759
REMARK INTER:                 -11.567
REMARK INTRA:                  -1.193
REMARK UNBOUND:                -0.828
REMARK  Name = 
REMARK  7 active torsions:
REMARK  status: ('A' for Active; 'I' for Inactive)
REMARK    1  A    between atoms: C_2  and  C_25
REMARK    2  A    between atoms: N_3  and  C_4
REMARK    3  A    between atoms: C_4  and  C_5
REMARK    4  A    between atoms: C_9  and  C_10
REMARK    5  A    between atoms: C_10  and  C_11
REMARK    6  A    between atoms: C_11  and  C_12
REMARK    7  A    between atoms: C_12  and  C_14
REMARK                            x       y       z     vdW  Elec       q    Type
REMARK                         _______ _______ _______ _____ _____    ______ ____
ROOT
ATOM      1  C   UNL     1      44.959   5.607  11.581  0.00  0.00    +0.000 A 
ATOM      2  C   UNL     1      44.051   6.672  11.514  0.00  0.00    +0.000 A 
ATOM      3  C   UNL     1      44.500   7.987  11.607  0.00  0.00    +0.000 A 
ATOM      4  C   UNL     1      45.861   8.252  11.769  0.00  0.00    +0.000 A 
ATOM      5  C   UNL     1      46.789   7.202  11.842  0.00  0.00    +0.000 A 
ATOM      6  C   UNL     1      46.328   5.884  11.725  0.00  0.00    +0.000 A 
ENDROOT
BRANCH   1   7
ATOM      7  C   UNL     1      44.474   4.186  11.531  0.00  0.00    +0.000 C 
BRANCH   7  10
ATOM      8  O   UNL     1      44.004   4.254   8.793  0.00  0.00    +0.000 OA
ATOM      9  C   UNL     1      44.893   3.523   9.222  0.00  0.00    +0.000 C 
ATOM     10  N   UNL     1      45.177   3.387  10.565  0.00  0.00    +0.000 N 
ATOM     11  H   UNL     1      45.966   2.804  10.829  0.00  0.00    +0.000 HD
BRANCH   9  12
ATOM     12  C   UNL     1      45.760   2.735   8.289  0.00  0.00    +0.000 A 
ATOM     13  C   UNL     1      46.397   3.393   7.242  0.00  0.00    +0.000 A 
ATOM     14  C   UNL     1      47.242   2.660   6.419  0.00  0.00    +0.000 A 
ATOM     15  C   UNL     1      47.415   1.301   6.663  0.00  0.00    +0.000 A 
ATOM     16  C   UNL     1      46.726   0.724   7.722  0.00  0.00    +0.000 A 
ATOM     17  N   UNL     1      45.901   1.405   8.549  0.00  0.00    +0.000 NA
ENDBRANCH   9  12
ENDBRANCH   7  10
ENDBRANCH   1   7
BRANCH   5  18
ATOM     18  C   UNL     1      48.256   7.479  12.095  0.00  0.00    +0.000 C 
BRANCH  18  19
ATOM     19  C   UNL     1      48.784   6.610  13.234  0.00  0.00    +0.000 C 
BRANCH  19  20
ATOM     20  C   UNL     1      48.571   7.198  14.609  0.00  0.00    +0.000 C 
ATOM     21  O   UNL     1      48.166   8.352  14.747  0.00  0.00    +0.000 OA
BRANCH  20  22
ATOM     22  C   UNL     1      48.848   6.370  15.784  0.00  0.00    +0.000 A 
ATOM     23  C   UNL     1      49.835   6.688  16.700  0.00  0.00    +0.000 A 
ATOM     24  O   UNL     1      49.883   5.790  17.714  0.00  0.00    +0.000 OA
ATOM     25  C   UNL     1      48.924   4.858  17.474  0.00  0.00    +0.000 A 
ATOM     26  N   UNL     1      48.688   3.814  18.304  0.00  0.00    +0.000 NA
ATOM     27  C   UNL     1      47.733   3.043  17.904  0.00  0.00    +0.000 A 
ATOM     28  N   UNL     1      47.006   3.223  16.752  0.00  0.00    +0.000 N 
ATOM     29  C   UNL     1      47.225   4.263  15.879  0.00  0.00    +0.000 A 
ATOM     30  O   UNL     1      46.566   4.365  14.851  0.00  0.00    +0.000 OA
ATOM     31  C   UNL     1      48.271   5.164  16.293  0.00  0.00    +0.000 A 
ATOM     32  H   UNL     1      46.278   2.573  16.492  0.00  0.00    +0.000 HD
ENDBRANCH  20  22
ENDBRANCH  19  20
ENDBRANCH  18  19
ENDBRANCH   5  18
TORSDOF 7
ENDMDL
MODEL 4
REMARK VINA RESULT:    -8.112      1.227      2.293
REMARK INTER + INTRA:         -12.259
REMARK INTER:                 -11.167
REMARK INTRA:                  -1.092
REMARK UNBOUND:                -0.828
REMARK  Name = 
REMARK  7 active torsions:
REMARK  status: ('A' for Active; 'I' for Inactive)
REMARK    1  A    between atoms: C_2  and  C_25
REMARK    2  A    between atoms: N_3  and  C_4
REMARK    3  A    between atoms: C_4  and  C_5
REMARK    4  A    between atoms: C_9  and  C_10
REMARK    5  A    between atoms: C_10  and  C_11
REMARK    6  A    between atoms: C_11  and  C_12
REMARK    7  A    between atoms: C_12  and  C_14
REMARK                            x       y       z     vdW  Elec       q    Type
REMARK                         _______ _______ _______ _____ _____    ______ ____
ROOT
ATOM      1  C   UNL     1      46.198   6.469  13.001  0.00  0.00    +0.000 A 
ATOM      2  C   UNL     1      46.306   7.816  12.628  0.00  0.00    +0.000 A 
ATOM      3  C   UNL     1      47.300   8.621  13.179  0.00  0.00    +0.000 A 
ATOM      4  C   UNL     1      48.196   8.090  14.108  0.00  0.00    +0.000 A 
ATOM      5  C   UNL     1      48.106   6.745  14.499  0.00  0.00    +0.000 A 
ATOM      6  C   UNL     1      47.116   5.939  13.922  0.00  0.00    +0.000 A 
ENDROOT
BRANCH   1   7
ATOM      7  C   UNL     1      45.097   5.610  12.447  0.00  0.00    +0.000 C 
BRANCH   7  10
ATOM      8  O   UNL     1      43.541   4.866  10.268  0.00  0.00    +0.000 OA
ATOM      9  C   UNL     1      44.699   4.465  10.331  0.00  0.00    +0.000 C 
ATOM     10  N   UNL     1      45.540   4.743  11.388  0.00  0.00    +0.000 N 
ATOM     11  H   UNL     1      46.501   4.420  11.333  0.00  0.00    +0.000 HD
BRANCH   9  12
ATOM     12  C   UNL     1      45.295   3.650   9.224  0.00  0.00    +0.000 A 
ATOM     13  C   UNL     1      45.824   4.303   8.115  0.00  0.00    +0.000 A 
ATOM     14  C   UNL     1      46.423   3.538   7.122  0.00  0.00    +0.000 A 
ATOM     15  C   UNL     1      46.466   2.155   7.266  0.00  0.00    +0.000 A 
ATOM     16  C   UNL     1      45.898   1.587   8.399  0.00  0.00    +0.000 A 
ATOM     17  N   UNL     1      45.313   2.298   9.389  0.00  0.00    +0.000 NA
ENDBRANCH   9  12
ENDBRANCH   7  10
ENDBRANCH   1   7
BRANCH   5  18
ATOM     18  C   UNL     1      49.025   6.183  15.563  0.00  0.00    +0.000 C 
BRANCH  18  19
ATOM     19  C   UNL     1      48.333   6.167  16.924  0.00  0.00    +0.000 C 
BRANCH  19  20
ATOM     20  C   UNL     1      47.825   4.807  17.343  0.00  0.00    +0.000 C 
ATOM     21  O   UNL     1      46.726   4.681  17.882  0.00  0.00    +0.000 OA
BRANCH  20  22
ATOM     22  C   UNL     1      48.660   3.631  17.090  0.00  0.00    +0.000 A 
ATOM     23  C   UNL     1      48.252   2.594  16.270  0.00  0.00    +0.000 A 
ATOM     24  O   UNL     1      49.203   1.635  16.168  0.00  0.00    +0.000 OA
ATOM     25  C   UNL     1      50.257   2.027  16.931  0.00  0.00    +0.000 A 
ATOM     26  N   UNL     1      51.395   1.301  17.045  0.00  0.00    +0.000 NA
ATOM     27  C   UNL     1      52.279   1.846  17.812  0.00  0.00    +0.000 A 
ATOM     28  N   UNL     1      52.121   3.040  18.472  0.00  0.00    +0.000 N 
ATOM     29  C   UNL     1      50.976   3.799  18.389  0.00  0.00    +0.000 A 
ATOM     30  O   UNL     1      50.875   4.847  19.018  0.00  0.00    +0.000 OA
ATOM     31  C   UNL     1      49.965   3.241  17.528  0.00  0.00    +0.000 A 
ATOM     32  H   UNL     1      52.851   3.405  19.067  0.00  0.00    +0.000 HD
ENDBRANCH  20  22
ENDBRANCH  19  20
ENDBRANCH  18  19
ENDBRANCH   5  18
TORSDOF 7
ENDMDL
MODEL 5
REMARK VINA RESULT:    -7.961      3.123      4.483
REMARK INTER + INTRA:         -12.047
REMARK INTER:                 -10.391
REMARK INTRA:                  -1.656
REMARK UNBOUND:                -0.828
REMARK  Name = 
REMARK  7 active torsions:
REMARK  status: ('A' for Active; 'I' for Inactive)
REMARK    1  A    between atoms: C_2  and  C_25
REMARK    2  A    between atoms: N_3  and  C_4
REMARK    3  A    between atoms: C_4  and  C_5
REMARK    4  A    between atoms: C_9  and  C_10
REMARK    5  A    between atoms: C_10  and  C_11
REMARK    6  A    between atoms: C_11  and  C_12
REMARK    7  A    between atoms: C_12  and  C_14
REMARK                            x       y       z     vdW  Elec       q    Type
REMARK                         _______ _______ _______ _____ _____    ______ ____
ROOT
ATOM      1  C   UNL     1      44.682   8.383  11.467  0.00  0.00    +0.000 A 
ATOM      2  C   UNL     1      44.033   9.507  10.940  0.00  0.00    +0.000 A 
ATOM      3  C   UNL     1      44.613  10.768  11.046  0.00  0.00    +0.000 A 
ATOM      4  C   UNL     1      45.848  10.920  11.678  0.00  0.00    +0.000 A 
ATOM      5  C   UNL     1      46.517   9.810  12.216  0.00  0.00    +0.000 A 
ATOM      6  C   UNL     1      45.933   8.542  12.084  0.00  0.00    +0.000 A 
ENDROOT
BRANCH   1   7
ATOM      7  C   UNL     1      44.037   7.027  11.400  0.00  0.00    +0.000 C 
BRANCH   7  10
ATOM      8  O   UNL     1      43.247   4.409  10.903  0.00  0.00    +0.000 OA
ATOM      9  C   UNL     1      44.269   4.829  10.368  0.00  0.00    +0.000 C 
ATOM     10  N   UNL     1      44.768   6.098  10.581  0.00  0.00    +0.000 N 
ATOM     11  H   UNL     1      45.587   6.384  10.054  0.00  0.00    +0.000 HD
BRANCH   9  12
ATOM     12  C   UNL     1      45.042   3.979   9.407  0.00  0.00    +0.000 A 
ATOM     13  C   UNL     1      44.995   2.595   9.543  0.00  0.00    +0.000 A 
ATOM     14  C   UNL     1      45.672   1.818   8.612  0.00  0.00    +0.000 A 
ATOM     15  C   UNL     1      46.374   2.445   7.587  0.00  0.00    +0.000 A 
ATOM     16  C   UNL     1      46.379   3.833   7.539  0.00  0.00    +0.000 A 
ATOM     17  N   UNL     1      45.728   4.623   8.422  0.00  0.00    +0.000 NA
ENDBRANCH   9  12
ENDBRANCH   7  10
ENDBRANCH   1   7
BRANCH   5  18
ATOM     18  C   UNL     1      47.818   9.977  12.970  0.00  0.00    +0.000 C 
BRANCH  18  19
ATOM     19  C   UNL     1      49.002   9.521  12.119  0.00  0.00    +0.000 C 
BRANCH  19  20
ATOM     20  C   UNL     1      49.345   8.058  12.273  0.00  0.00    +0.000 C 
ATOM     21  O   UNL     1      49.662   7.377  11.298  0.00  0.00    +0.000 OA
BRANCH  20  22
ATOM     22  C   UNL     1      49.303   7.457  13.607  0.00  0.00    +0.000 A 
ATOM     23  C   UNL     1      50.156   7.848  14.623  0.00  0.00    +0.000 A 
ATOM     24  O   UNL     1      49.909   7.171  15.771  0.00  0.00    +0.000 OA
ATOM     25  C   UNL     1      48.885   6.313  15.522  0.00  0.00    +0.000 A 
ATOM     26  N   UNL     1      48.371   5.487  16.464  0.00  0.00    +0.000 NA
ATOM     27  C   UNL     1      47.399   4.754  16.031  0.00  0.00    +0.000 A 
ATOM     28  N   UNL     1      46.908   4.774  14.749  0.00  0.00    +0.000 N 
ATOM     29  C   UNL     1      47.413   5.591  13.762  0.00  0.00    +0.000 A 
ATOM     30  O   UNL     1      46.956   5.553  12.626  0.00  0.00    +0.000 OA
ATOM     31  C   UNL     1      48.488   6.443  14.202  0.00  0.00    +0.000 A 
ATOM     32  H   UNL     1      46.152   4.165  14.474  0.00  0.00    +0.000 HD
ENDBRANCH  20  22
ENDBRANCH  19  20
ENDBRANCH  18  19
ENDBRANCH   5  18
TORSDOF 7
ENDMDL
MODEL 6
REMARK VINA RESULT:    -7.569      3.069      8.756
REMARK INTER + INTRA:         -11.494
REMARK INTER:                 -10.370
REMARK INTRA:                  -1.124
REMARK UNBOUND:                -0.828
REMARK  Name = 
REMARK  7 active torsions:
REMARK  status: ('A' for Active; 'I' for Inactive)
REMARK    1  A    between atoms: C_2  and  C_25
REMARK    2  A    between atoms: N_3  and  C_4
REMARK    3  A    between atoms: C_4  and  C_5
REMARK    4  A    between atoms: C_9  and  C_10
REMARK    5  A    between atoms: C_10  and  C_11
REMARK    6  A    between atoms: C_11  and  C_12
REMARK    7  A    between atoms: C_12  and  C_14
REMARK                            x       y       z     vdW  Elec       q    Type
REMARK                         _______ _______ _______ _____ _____    ______ ____
ROOT
ATOM      1  C   UNL     1      48.658   5.024  17.724  0.00  0.00    +0.000 A 
ATOM      2  C   UNL     1      48.423   5.836  18.841  0.00  0.00    +0.000 A 
ATOM      3  C   UNL     1      48.395   7.223  18.710  0.00  0.00    +0.000 A 
ATOM      4  C   UNL     1      48.601   7.812  17.462  0.00  0.00    +0.000 A 
ATOM      5  C   UNL     1      48.841   7.020  16.329  0.00  0.00    +0.000 A 
ATOM      6  C   UNL     1      48.846   5.626  16.469  0.00  0.00    +0.000 A 
ENDROOT
BRANCH   1   7
ATOM      7  C   UNL     1      48.740   3.531  17.869  0.00  0.00    +0.000 C 
BRANCH   7  10
ATOM      8  O   UNL     1      50.156   1.663  16.376  0.00  0.00    +0.000 OA
ATOM      9  C   UNL     1      50.695   2.165  17.358  0.00  0.00    +0.000 C 
ATOM     10  N   UNL     1      50.064   3.070  18.187  0.00  0.00    +0.000 N 
ATOM     11  H   UNL     1      50.602   3.479  18.944  0.00  0.00    +0.000 HD
BRANCH   9  12
ATOM     12  C   UNL     1      52.113   1.838  17.711  0.00  0.00    +0.000 A 
ATOM     13  C   UNL     1      53.001   2.879  17.969  0.00  0.00    +0.000 A 
ATOM     14  C   UNL     1      54.298   2.560  18.349  0.00  0.00    +0.000 A 
ATOM     15  C   UNL     1      54.665   1.222  18.452  0.00  0.00    +0.000 A 
ATOM     16  C   UNL     1      53.717   0.250  18.160  0.00  0.00    +0.000 A 
ATOM     17  N   UNL     1      52.444   0.519  17.793  0.00  0.00    +0.000 NA
ENDBRANCH   9  12
ENDBRANCH   7  10
ENDBRANCH   1   7
BRANCH   5  18
ATOM     18  C   UNL     1      49.143   7.654  14.988  0.00  0.00    +0.000 C 
BRANCH  18  19
ATOM     19  C   UNL     1      47.905   7.645  14.093  0.00  0.00    +0.000 C 
BRANCH  19  20
ATOM     20  C   UNL     1      47.838   6.473  13.144  0.00  0.00    +0.000 C 
ATOM     21  O   UNL     1      48.835   5.791  12.910  0.00  0.00    +0.000 OA
BRANCH  20  22
ATOM     22  C   UNL     1      46.561   6.150  12.506  0.00  0.00    +0.000 A 
ATOM     23  C   UNL     1      45.836   7.081  11.784  0.00  0.00    +0.000 A 
ATOM     24  O   UNL     1      44.705   6.543  11.267  0.00  0.00    +0.000 OA
ATOM     25  C   UNL     1      44.666   5.239  11.650  0.00  0.00    +0.000 A 
ATOM     26  N   UNL     1      43.669   4.395  11.292  0.00  0.00    +0.000 NA
ATOM     27  C   UNL     1      43.818   3.198  11.752  0.00  0.00    +0.000 A 
ATOM     28  N   UNL     1      44.865   2.779  12.535  0.00  0.00    +0.000 N 
ATOM     29  C   UNL     1      45.889   3.610  12.929  0.00  0.00    +0.000 A 
ATOM     30  O   UNL     1      46.789   3.194  13.650  0.00  0.00    +0.000 OA
ATOM     31  C   UNL     1      45.779   4.955  12.424  0.00  0.00    +0.000 A 
ATOM     32  H   UNL     1      44.914   1.829  12.871  0.00  0.00    +0.000 HD
ENDBRANCH  20  22
ENDBRANCH  19  20
ENDBRANCH  18  19
ENDBRANCH   5  18
TORSDOF 7
ENDMDL
MODEL 7
REMARK VINA RESULT:    -7.535      2.500      3.371
REMARK INTER + INTRA:         -11.447
REMARK INTER:                 -10.199
REMARK INTRA:                  -1.248
REMARK UNBOUND:                -0.828
REMARK  Name = 
REMARK  7 active torsions:
REMARK  status: ('A' for Active; 'I' for Inactive)
REMARK    1  A    between atoms: C_2  and  C_25
REMARK    2  A    between atoms: N_3  and  C_4
REMARK    3  A    between atoms: C_4  and  C_5
REMARK    4  A    between atoms: C_9  and  C_10
REMARK    5  A    between atoms: C_10  and  C_11
REMARK    6  A    between atoms: C_11  and  C_12
REMARK    7  A    between atoms: C_12  and  C_14
REMARK                            x       y       z     vdW  Elec       q    Type
REMARK                         _______ _______ _______ _____ _____    ______ ____
ROOT
ATOM      1  C   UNL     1      45.639   5.499  11.889  0.00  0.00    +0.000 A 
ATOM      2  C   UNL     1      45.460   4.587  12.937  0.00  0.00    +0.000 A 
ATOM      3  C   UNL     1      46.235   4.680  14.091  0.00  0.00    +0.000 A 
ATOM      4  C   UNL     1      47.195   5.686  14.210  0.00  0.00    +0.000 A 
ATOM      5  C   UNL     1      47.394   6.610  13.173  0.00  0.00    +0.000 A 
ATOM      6  C   UNL     1      46.594   6.519  12.026  0.00  0.00    +0.000 A 
ENDROOT
BRANCH   1   7
ATOM      7  C   UNL     1      44.842   5.373  10.621  0.00  0.00    +0.000 C 
BRANCH   7  10
ATOM      8  O   UNL     1      44.298   2.723   9.982  0.00  0.00    +0.000 OA
ATOM      9  C   UNL     1      45.154   3.323   9.337  0.00  0.00    +0.000 C 
ATOM     10  N   UNL     1      45.526   4.625   9.601  0.00  0.00    +0.000 N 
ATOM     11  H   UNL     1      46.201   5.063   8.983  0.00  0.00    +0.000 HD
BRANCH   9  12
ATOM     12  C   UNL     1      45.845   2.670   8.180  0.00  0.00    +0.000 A 
ATOM     13  C   UNL     1      46.056   3.407   7.019  0.00  0.00    +0.000 A 
ATOM     14  C   UNL     1      46.748   2.808   5.974  0.00  0.00    +0.000 A 
ATOM     15  C   UNL     1      47.196   1.498   6.121  0.00  0.00    +0.000 A 
ATOM     16  C   UNL     1      46.925   0.834   7.310  0.00  0.00    +0.000 A 
ATOM     17  N   UNL     1      46.262   1.385   8.351  0.00  0.00    +0.000 NA
ENDBRANCH   9  12
ENDBRANCH   7  10
ENDBRANCH   1   7
BRANCH   5  18
ATOM     18  C   UNL     1      48.485   7.654  13.263  0.00  0.00    +0.000 C 
BRANCH  18  19
ATOM     19  C   UNL     1      48.124   8.730  14.286  0.00  0.00    +0.000 C 
BRANCH  19  20
ATOM     20  C   UNL     1      49.070   8.806  15.461  0.00  0.00    +0.000 C 
ATOM     21  O   UNL     1      50.214   9.237  15.325  0.00  0.00    +0.000 OA
BRANCH  20  22
ATOM     22  C   UNL     1      48.601   8.366  16.776  0.00  0.00    +0.000 A 
ATOM     23  C   UNL     1      47.897   9.196  17.630  0.00  0.00    +0.000 A 
ATOM     24  O   UNL     1      47.548   8.557  18.773  0.00  0.00    +0.000 OA
ATOM     25  C   UNL     1      48.027   7.288  18.689  0.00  0.00    +0.000 A 
ATOM     26  N   UNL     1      47.844   6.366  19.664  0.00  0.00    +0.000 NA
ATOM     27  C   UNL     1      48.371   5.219  19.394  0.00  0.00    +0.000 A 
ATOM     28  N   UNL     1      49.064   4.921  18.246  0.00  0.00    +0.000 N 
ATOM     29  C   UNL     1      49.281   5.835  17.240  0.00  0.00    +0.000 A 
ATOM     30  O   UNL     1      49.927   5.527  16.245  0.00  0.00    +0.000 OA
ATOM     31  C   UNL     1      48.693   7.127  17.487  0.00  0.00    +0.000 A 
ATOM     32  H   UNL     1      49.461   4.004  18.103  0.00  0.00    +0.000 HD
ENDBRANCH  20  22
ENDBRANCH  19  20
ENDBRANCH  18  19
ENDBRANCH   5  18
TORSDOF 7
ENDMDL
MODEL 8
REMARK VINA RESULT:    -7.492      3.656      8.615
REMARK INTER + INTRA:         -11.386
REMARK INTER:                 -10.036
REMARK INTRA:                  -1.351
REMARK UNBOUND:                -0.828
REMARK  Name = 
REMARK  7 active torsions:
REMARK  status: ('A' for Active; 'I' for Inactive)
REMARK    1  A    between atoms: C_2  and  C_25
REMARK    2  A    between atoms: N_3  and  C_4
REMARK    3  A    between atoms: C_4  and  C_5
REMARK    4  A    between atoms: C_9  and  C_10
REMARK    5  A    between atoms: C_10  and  C_11
REMARK    6  A    between atoms: C_11  and  C_12
REMARK    7  A    between atoms: C_12  and  C_14
REMARK                            x       y       z     vdW  Elec       q    Type
REMARK                         _______ _______ _______ _____ _____    ______ ____
ROOT
ATOM      1  C   UNL     1      48.175   5.309  18.084  0.00  0.00    +0.000 A 
ATOM      2  C   UNL     1      47.775   6.154  19.127  0.00  0.00    +0.000 A 
ATOM      3  C   UNL     1      47.778   7.536  18.953  0.00  0.00    +0.000 A 
ATOM      4  C   UNL     1      48.179   8.087  17.736  0.00  0.00    +0.000 A 
ATOM      5  C   UNL     1      48.586   7.262  16.677  0.00  0.00    +0.000 A 
ATOM      6  C   UNL     1      48.558   5.872  16.856  0.00  0.00    +0.000 A 
ENDROOT
BRANCH   1   7
ATOM      7  C   UNL     1      48.222   3.820  18.283  0.00  0.00    +0.000 C 
BRANCH   7  10
ATOM      8  O   UNL     1      49.569   2.302  16.384  0.00  0.00    +0.000 OA
ATOM      9  C   UNL     1      50.153   2.603  17.421  0.00  0.00    +0.000 C 
ATOM     10  N   UNL     1      49.560   3.318  18.442  0.00  0.00    +0.000 N 
ATOM     11  H   UNL     1      50.133   3.573  19.240  0.00  0.00    +0.000 HD
BRANCH   9  12
ATOM     12  C   UNL     1      51.586   2.226  17.637  0.00  0.00    +0.000 A 
ATOM     13  C   UNL     1      51.962   0.894  17.495  0.00  0.00    +0.000 A 
ATOM     14  C   UNL     1      53.304   0.568  17.643  0.00  0.00    +0.000 A 
ATOM     15  C   UNL     1      54.218   1.576  17.934  0.00  0.00    +0.000 A 
ATOM     16  C   UNL     1      53.750   2.876  18.075  0.00  0.00    +0.000 A 
ATOM     17  N   UNL     1      52.454   3.234  17.931  0.00  0.00    +0.000 NA
ENDBRANCH   9  12
ENDBRANCH   7  10
ENDBRANCH   1   7
BRANCH   5  18
ATOM     18  C   UNL     1      49.095   7.855  15.381  0.00  0.00    +0.000 C 
BRANCH  18  19
ATOM     19  C   UNL     1      48.035   7.758  14.286  0.00  0.00    +0.000 C 
BRANCH  19  20
ATOM     20  C   UNL     1      48.158   6.531  13.414  0.00  0.00    +0.000 C 
ATOM     21  O   UNL     1      49.155   6.349  12.715  0.00  0.00    +0.000 OA
BRANCH  20  22
ATOM     22  C   UNL     1      47.073   5.548  13.418  0.00  0.00    +0.000 A 
ATOM     23  C   UNL     1      47.267   4.230  13.788  0.00  0.00    +0.000 A 
ATOM     24  O   UNL     1      46.113   3.522  13.738  0.00  0.00    +0.000 OA
ATOM     25  C   UNL     1      45.136   4.370  13.324  0.00  0.00    +0.000 A 
ATOM     26  N   UNL     1      43.844   3.990  13.177  0.00  0.00    +0.000 NA
ATOM     27  C   UNL     1      43.069   4.944  12.779  0.00  0.00    +0.000 A 
ATOM     28  N   UNL     1      43.473   6.229  12.514  0.00  0.00    +0.000 N 
ATOM     29  C   UNL     1      44.778   6.648  12.641  0.00  0.00    +0.000 A 
ATOM     30  O   UNL     1      45.092   7.801  12.368  0.00  0.00    +0.000 OA
ATOM     31  C   UNL     1      45.680   5.623  13.102  0.00  0.00    +0.000 A 
ATOM     32  H   UNL     1      42.815   6.924  12.195  0.00  0.00    +0.000 HD
ENDBRANCH  20  22
ENDBRANCH  19  20
ENDBRANCH  18  19
ENDBRANCH   5  18
TORSDOF 7
ENDMDL
MODEL 9
REMARK VINA RESULT:    -7.385      3.442      4.831
REMARK INTER + INTRA:         -11.235
REMARK INTER:                  -9.676
REMARK INTRA:                  -1.559
REMARK UNBOUND:                -0.828
REMARK  Name = 
REMARK  7 active torsions:
REMARK  status: ('A' for Active; 'I' for Inactive)
REMARK    1  A    between atoms: C_2  and  C_25
REMARK    2  A    between atoms: N_3  and  C_4
REMARK    3  A    between atoms: C_4  and  C_5
REMARK    4  A    between atoms: C_9  and  C_10
REMARK    5  A    between atoms: C_10  and  C_11
REMARK    6  A    between atoms: C_11  and  C_12
REMARK    7  A    between atoms: C_12  and  C_14
REMARK                            x       y       z     vdW  Elec       q    Type
REMARK                         _______ _______ _______ _____ _____    ______ ____
ROOT
ATOM      1  C   UNL     1      48.867   8.116  14.137  0.00  0.00    +0.000 A 
ATOM      2  C   UNL     1      49.179   9.442  13.813  0.00  0.00    +0.000 A 
ATOM      3  C   UNL     1      49.217  10.418  14.806  0.00  0.00    +0.000 A 
ATOM      4  C   UNL     1      48.944  10.080  16.132  0.00  0.00    +0.000 A 
ATOM      5  C   UNL     1      48.626   8.758  16.480  0.00  0.00    +0.000 A 
ATOM      6  C   UNL     1      48.612   7.781  15.476  0.00  0.00    +0.000 A 
ENDROOT
BRANCH   1   7
ATOM      7  C   UNL     1      48.775   7.068  13.063  0.00  0.00    +0.000 C 
BRANCH   7  10
ATOM      8  O   UNL     1      47.515   4.646  13.580  0.00  0.00    +0.000 OA
ATOM      9  C   UNL     1      46.876   5.538  13.031  0.00  0.00    +0.000 C 
ATOM     10  N   UNL     1      47.419   6.761  12.694  0.00  0.00    +0.000 N 
ATOM     11  H   UNL     1      46.804   7.463  12.294  0.00  0.00    +0.000 HD
BRANCH   9  12
ATOM     12  C   UNL     1      45.424   5.360  12.708  0.00  0.00    +0.000 A 
ATOM     13  C   UNL     1      44.823   6.231  11.804  0.00  0.00    +0.000 A 
ATOM     14  C   UNL     1      43.491   6.021  11.471  0.00  0.00    +0.000 A 
ATOM     15  C   UNL     1      42.807   4.958  12.054  0.00  0.00    +0.000 A 
ATOM     16  C   UNL     1      43.483   4.149  12.958  0.00  0.00    +0.000 A 
ATOM     17  N   UNL     1      44.779   4.318  13.302  0.00  0.00    +0.000 NA
ENDBRANCH   9  12
ENDBRANCH   7  10
ENDBRANCH   1   7
BRANCH   5  18
ATOM     18  C   UNL     1      48.253   8.399  17.902  0.00  0.00    +0.000 C 
BRANCH  18  19
ATOM     19  C   UNL     1      48.919   7.091  18.324  0.00  0.00    +0.000 C 
BRANCH  19  20
ATOM     20  C   UNL     1      47.951   5.960  18.583  0.00  0.00    +0.000 C 
ATOM     21  O   UNL     1      47.052   6.076  19.415  0.00  0.00    +0.000 OA
BRANCH  20  22
ATOM     22  C   UNL     1      48.092   4.720  17.819  0.00  0.00    +0.000 A 
ATOM     23  C   UNL     1      47.078   4.219  17.023  0.00  0.00    +0.000 A 
ATOM     24  O   UNL     1      47.451   3.078  16.395  0.00  0.00    +0.000 OA
ATOM     25  C   UNL     1      48.726   2.805  16.778  0.00  0.00    +0.000 A 
ATOM     26  N   UNL     1      49.419   1.733  16.324  0.00  0.00    +0.000 NA
ATOM     27  C   UNL     1      50.615   1.653  16.802  0.00  0.00    +0.000 A 
ATOM     28  N   UNL     1      51.170   2.541  17.691  0.00  0.00    +0.000 N 
ATOM     29  C   UNL     1      50.494   3.634  18.183  0.00  0.00    +0.000 A 
ATOM     30  O   UNL     1      51.025   4.383  18.995  0.00  0.00    +0.000 OA
ATOM     31  C   UNL     1      49.158   3.778  17.663  0.00  0.00    +0.000 A 
ATOM     32  H   UNL     1      52.111   2.411  18.035  0.00  0.00    +0.000 HD
ENDBRANCH  20  22
ENDBRANCH  19  20
ENDBRANCH  18  19
ENDBRANCH   5  18
TORSDOF 7
ENDMDL
