MODEL 1
REMARK VINA RESULT:    -8.043      0.000      0.000
REMARK INTER + INTRA:         -11.955
REMARK INTER:                 -11.334
REMARK INTRA:                  -0.620
REMARK UNBOUND:                -0.620
REMARK  Name = 
REMARK  8 active torsions:
REMARK  status: ('A' for Active; 'I' for Inactive)
REMARK    1  A    between atoms: C_1  and  N_2
REMARK    2  A    between atoms: N_2  and  C_3
REMARK    3  A    between atoms: N_2  and  C_24
REMARK    4  A    between atoms: C_3  and  C_4
REMARK    5  A    between atoms: C_7  and  C_8
REMARK    6  A    between atoms: C_8  and  N_9
REMARK    7  A    between atoms: C_10  and  C_12
REMARK    8  A    between atoms: C_24  and  C_25
REMARK                            x       y       z     vdW  Elec       q    Type
REMARK                         _______ _______ _______ _____ _____    ______ ____
ROOT
ATOM      1  C   UNL     1      44.570   5.406  10.799  0.00  0.00    +0.000 A 
ATOM      2  C   UNL     1      45.790   5.908  10.316  0.00  0.00    +0.000 A 
ATOM      3  C   UNL     1      46.591   6.732  11.112  0.00  0.00    +0.000 A 
ATOM      4  C   UNL     1      46.185   7.081  12.405  0.00  0.00    +0.000 A 
ATOM      5  C   UNL     1      44.955   6.603  12.879  0.00  0.00    +0.000 A 
ATOM      6  C   UNL     1      44.164   5.761  12.091  0.00  0.00    +0.000 A 
ENDROOT
BRANCH   1   7
ATOM      7  C   UNL     1      43.718   4.498   9.932  0.00  0.00    +0.000 C 
BRANCH   7   9
ATOM      8  C   UNL     1      43.474   2.587  11.423  0.00  0.00    +0.000 C 
ATOM      9  N   UNL     1      43.963   3.053  10.117  0.00  0.00    +0.000 NA
BRANCH   9  10
ATOM     10  C   UNL     1      45.424   2.799  10.012  0.00  0.00    +0.000 C 
BRANCH  10  11
ATOM     11  C   UNL     1      45.918   2.574   8.592  0.00  0.00    +0.000 A 
ATOM     12  C   UNL     1      46.308   1.301   8.179  0.00  0.00    +0.000 A 
ATOM     13  C   UNL     1      46.853   1.144   6.908  0.00  0.00    +0.000 A 
ATOM     14  C   UNL     1      46.989   2.254   6.083  0.00  0.00    +0.000 A 
ATOM     15  C   UNL     1      46.564   3.481   6.562  0.00  0.00    +0.000 A 
ATOM     16  N   UNL     1      46.032   3.667   7.790  0.00  0.00    +0.000 NA
ENDBRANCH  10  11
ENDBRANCH   9  10
ENDBRANCH   7   9
ENDBRANCH   1   7
BRANCH   4  17
ATOM     17  C   UNL     1      47.026   7.998  13.253  0.00  0.00    +0.000 C 
BRANCH  17  18
ATOM     18  N   UNL     1      47.447   7.338  14.464  0.00  0.00    +0.000 N 
ATOM     19  C   UNL     1      48.697   6.786  14.574  0.00  0.00    +0.000 C 
ATOM     20  O   UNL     1      49.526   6.875  13.672  0.00  0.00    +0.000 OA
ATOM     21  H   UNL     1      46.720   7.076  15.123  0.00  0.00    +0.000 HD
BRANCH  19  22
ATOM     22  C   UNL     1      49.020   6.131  15.847  0.00  0.00    +0.000 A 
ATOM     23  C   UNL     1      50.086   6.598  16.606  0.00  0.00    +0.000 A 
ATOM     24  S   UNL     1      50.311   5.752  18.068  0.00  0.00    +0.000 S 
ATOM     25  C   UNL     1      49.024   4.699  17.719  0.00  0.00    +0.000 A 
ATOM     26  N   UNL     1      48.695   3.691  18.573  0.00  0.00    +0.000 NA
ATOM     27  C   UNL     1      47.716   2.950  18.172  0.00  0.00    +0.000 A 
ATOM     28  N   UNL     1      47.033   3.129  16.996  0.00  0.00    +0.000 N 
ATOM     29  C   UNL     1      47.309   4.148  16.117  0.00  0.00    +0.000 A 
ATOM     30  O   UNL     1      46.650   4.303  15.095  0.00  0.00    +0.000 OA
ATOM     31  C   UNL     1      48.411   5.003  16.514  0.00  0.00    +0.000 A 
ATOM     32  H   UNL     1      46.266   2.520  16.747  0.00  0.00    +0.000 HD
ENDBRANCH  19  22
ENDBRANCH  17  18
ENDBRANCH   4  17
TORSDOF 7
ENDMDL
MODEL 2
REMARK VINA RESULT:    -8.000      1.871      2.454
REMARK INTER + INTRA:         -11.895
REMARK INTER:                 -11.029
REMARK INTRA:                  -0.866
REMARK UNBOUND:                -0.620
REMARK  Name = 
REMARK  8 active torsions:
REMARK  status: ('A' for Active; 'I' for Inactive)
REMARK    1  A    between atoms: C_1  and  N_2
REMARK    2  A    between atoms: N_2  and  C_3
REMARK    3  A    between atoms: N_2  and  C_24
REMARK    4  A    between atoms: C_3  and  C_4
REMARK    5  A    between atoms: C_7  and  C_8
REMARK    6  A    between atoms: C_8  and  N_9
REMARK    7  A    between atoms: C_10  and  C_12
REMARK    8  A    between atoms: C_24  and  C_25
REMARK                            x       y       z     vdW  Elec       q    Type
REMARK                         _______ _______ _______ _____ _____    ______ ____
ROOT
ATOM      1  C   UNL     1      45.981   4.607  12.464  0.00  0.00    +0.000 A 
ATOM      2  C   UNL     1      46.556   4.420  13.732  0.00  0.00    +0.000 A 
ATOM      3  C   UNL     1      47.363   5.406  14.306  0.00  0.00    +0.000 A 
ATOM      4  C   UNL     1      47.622   6.597  13.619  0.00  0.00    +0.000 A 
ATOM      5  C   UNL     1      47.072   6.775  12.343  0.00  0.00    +0.000 A 
ATOM      6  C   UNL     1      46.246   5.798  11.778  0.00  0.00    +0.000 A 
ENDROOT
BRANCH   1   7
ATOM      7  C   UNL     1      45.091   3.537  11.859  0.00  0.00    +0.000 C 
BRANCH   7   9
ATOM      8  C   UNL     1      43.175   4.493  10.698  0.00  0.00    +0.000 C 
ATOM      9  N   UNL     1      44.505   3.884  10.548  0.00  0.00    +0.000 NA
BRANCH   9  10
ATOM     10  C   UNL     1      44.399   2.648   9.729  0.00  0.00    +0.000 C 
BRANCH  10  11
ATOM     11  C   UNL     1      45.476   2.510   8.665  0.00  0.00    +0.000 A 
ATOM     12  C   UNL     1      45.818   3.603   7.869  0.00  0.00    +0.000 A 
ATOM     13  C   UNL     1      46.732   3.421   6.835  0.00  0.00    +0.000 A 
ATOM     14  C   UNL     1      47.283   2.163   6.626  0.00  0.00    +0.000 A 
ATOM     15  C   UNL     1      46.903   1.134   7.470  0.00  0.00    +0.000 A 
ATOM     16  N   UNL     1      46.018   1.277   8.481  0.00  0.00    +0.000 NA
ENDBRANCH  10  11
ENDBRANCH   9  10
ENDBRANCH   7   9
ENDBRANCH   1   7
BRANCH   4  17
ATOM     17  C   UNL     1      48.521   7.648  14.217  0.00  0.00    +0.000 C 
BRANCH  17  18
ATOM     18  N   UNL     1      48.505   7.582  15.657  0.00  0.00    +0.000 N 
ATOM     19  C   UNL     1      49.529   6.992  16.352  0.00  0.00    +0.000 C 
ATOM     20  O   UNL     1      50.523   6.545  15.786  0.00  0.00    +0.000 OA
ATOM     21  H   UNL     1      47.616   7.752  16.116  0.00  0.00    +0.000 HD
BRANCH  19  22
ATOM     22  C   UNL     1      49.408   6.972  17.815  0.00  0.00    +0.000 A 
ATOM     23  C   UNL     1      49.630   8.138  18.537  0.00  0.00    +0.000 A 
ATOM     24  S   UNL     1      49.421   7.956  20.218  0.00  0.00    +0.000 S 
ATOM     25  C   UNL     1      49.074   6.301  20.050  0.00  0.00    +0.000 A 
ATOM     26  N   UNL     1      48.822   5.526  21.140  0.00  0.00    +0.000 NA
ATOM     27  C   UNL     1      48.601   4.283  20.871  0.00  0.00    +0.000 A 
ATOM     28  N   UNL     1      48.602   3.745  19.609  0.00  0.00    +0.000 N 
ATOM     29  C   UNL     1      48.823   4.492  18.477  0.00  0.00    +0.000 A 
ATOM     30  O   UNL     1      48.775   3.985  17.361  0.00  0.00    +0.000 OA
ATOM     31  C   UNL     1      49.090   5.895  18.725  0.00  0.00    +0.000 A 
ATOM     32  H   UNL     1      48.408   2.764  19.466  0.00  0.00    +0.000 HD
ENDBRANCH  19  22
ENDBRANCH  17  18
ENDBRANCH   4  17
TORSDOF 7
ENDMDL
MODEL 3
REMARK VINA RESULT:    -7.856      2.651      3.339
REMARK INTER + INTRA:         -11.691
REMARK INTER:                 -10.890
REMARK INTRA:                  -0.801
REMARK UNBOUND:                -0.620
REMARK  Name = 
REMARK  8 active torsions:
REMARK  status: ('A' for Active; 'I' for Inactive)
REMARK    1  A    between atoms: C_1  and  N_2
REMARK    2  A    between atoms: N_2  and  C_3
REMARK    3  A    between atoms: N_2  and  C_24
REMARK    4  A    between atoms: C_3  and  C_4
REMARK    5  A    between atoms: C_7  and  C_8
REMARK    6  A    between atoms: C_8  and  N_9
REMARK    7  A    between atoms: C_10  and  C_12
REMARK    8  A    between atoms: C_24  and  C_25
REMARK                            x       y       z     vdW  Elec       q    Type
REMARK                         _______ _______ _______ _____ _____    ______ ____
ROOT
ATOM      1  C   UNL     1      45.943   4.287  12.501  0.00  0.00    +0.000 A 
ATOM      2  C   UNL     1      46.420   3.880  13.758  0.00  0.00    +0.000 A 
ATOM      3  C   UNL     1      47.242   4.717  14.518  0.00  0.00    +0.000 A 
ATOM      4  C   UNL     1      47.614   5.975  14.032  0.00  0.00    +0.000 A 
ATOM      5  C   UNL     1      47.162   6.373  12.767  0.00  0.00    +0.000 A 
ATOM      6  C   UNL     1      46.321   5.544  12.016  0.00  0.00    +0.000 A 
ENDROOT
BRANCH   1   7
ATOM      7  C   UNL     1      45.037   3.377  11.693  0.00  0.00    +0.000 C 
BRANCH   7   9
ATOM      8  C   UNL     1      43.389   4.741  10.527  0.00  0.00    +0.000 C 
ATOM      9  N   UNL     1      44.606   3.926  10.391  0.00  0.00    +0.000 NA
BRANCH   9  10
ATOM     10  C   UNL     1      44.348   2.798   9.458  0.00  0.00    +0.000 C 
BRANCH  10  11
ATOM     11  C   UNL     1      45.504   2.489   8.519  0.00  0.00    +0.000 A 
ATOM     12  C   UNL     1      46.007   3.480   7.677  0.00  0.00    +0.000 A 
ATOM     13  C   UNL     1      46.994   3.142   6.756  0.00  0.00    +0.000 A 
ATOM     14  C   UNL     1      47.456   1.833   6.702  0.00  0.00    +0.000 A 
ATOM     15  C   UNL     1      46.917   0.912   7.583  0.00  0.00    +0.000 A 
ATOM     16  N   UNL     1      45.958   1.207   8.487  0.00  0.00    +0.000 NA
ENDBRANCH  10  11
ENDBRANCH   9  10
ENDBRANCH   7   9
ENDBRANCH   1   7
BRANCH   4  17
ATOM     17  C   UNL     1      48.530   6.866  14.830  0.00  0.00    +0.000 C 
BRANCH  17  18
ATOM     18  N   UNL     1      48.316   6.690  16.245  0.00  0.00    +0.000 N 
ATOM     19  C   UNL     1      49.243   6.053  17.029  0.00  0.00    +0.000 C 
ATOM     20  O   UNL     1      50.312   5.654  16.574  0.00  0.00    +0.000 OA
ATOM     21  H   UNL     1      47.370   6.821  16.588  0.00  0.00    +0.000 HD
BRANCH  19  22
ATOM     22  C   UNL     1      48.922   5.920  18.455  0.00  0.00    +0.000 A 
ATOM     23  C   UNL     1      49.160   4.714  19.101  0.00  0.00    +0.000 A 
ATOM     24  S   UNL     1      48.764   4.731  20.758  0.00  0.00    +0.000 S 
ATOM     25  C   UNL     1      48.212   6.336  20.664  0.00  0.00    +0.000 A 
ATOM     26  N   UNL     1      47.700   6.964  21.758  0.00  0.00    +0.000 NA
ATOM     27  C   UNL     1      47.294   8.169  21.540  0.00  0.00    +0.000 A 
ATOM     28  N   UNL     1      47.359   8.807  20.327  0.00  0.00    +0.000 N 
ATOM     29  C   UNL     1      47.893   8.225  19.203  0.00  0.00    +0.000 A 
ATOM     30  O   UNL     1      47.973   8.841  18.145  0.00  0.00    +0.000 OA
ATOM     31  C   UNL     1      48.352   6.863  19.391  0.00  0.00    +0.000 A 
ATOM     32  H   UNL     1      47.034   9.758  20.226  0.00  0.00    +0.000 HD
ENDBRANCH  19  22
ENDBRANCH  17  18
ENDBRANCH   4  17
TORSDOF 7
ENDMDL
MODEL 4
REMARK VINA RESULT:    -7.775      2.266      2.849
REMARK INTER + INTRA:         -11.577
REMARK INTER:                 -10.653
REMARK INTRA:                  -0.924
REMARK UNBOUND:                -0.620
REMARK  Name = 
REMARK  8 active torsions:
REMARK  status: ('A' for Active; 'I' for Inactive)
REMARK    1  A    between atoms: C_1  and  N_2
REMARK    2  A    between atoms: N_2  and  C_3
REMARK    3  A    between atoms: N_2  and  C_24
REMARK    4  A    between atoms: C_3  and  C_4
REMARK    5  A    between atoms: C_7  and  C_8
REMARK    6  A    between atoms: C_8  and  N_9
REMARK    7  A    between atoms: C_10  and  C_12
REMARK    8  A    between atoms: C_24  and  C_25
REMARK                            x       y       z     vdW  Elec       q    Type
REMARK                         _______ _______ _______ _____ _____    ______ ____
ROOT
ATOM      1  C   UNL     1      46.023   4.732  12.663  0.00  0.00    +0.000 A 
ATOM      2  C   UNL     1      46.267   5.935  11.981  0.00  0.00    +0.000 A 
ATOM      3  C   UNL     1      47.176   6.871  12.483  0.00  0.00    +0.000 A 
ATOM      4  C   UNL     1      47.852   6.629  13.684  0.00  0.00    +0.000 A 
ATOM      5  C   UNL     1      47.590   5.441  14.379  0.00  0.00    +0.000 A 
ATOM      6  C   UNL     1      46.697   4.494  13.866  0.00  0.00    +0.000 A 
ENDROOT
BRANCH   1   7
ATOM      7  C   UNL     1      45.047   3.715  12.099  0.00  0.00    +0.000 C 
BRANCH   7   9
ATOM      8  C   UNL     1      43.168   4.701  10.903  0.00  0.00    +0.000 C 
ATOM      9  N   UNL     1      44.485   4.060  10.777  0.00  0.00    +0.000 NA
BRANCH   9  10
ATOM     10  C   UNL     1      44.359   2.816   9.972  0.00  0.00    +0.000 C 
BRANCH  10  11
ATOM     11  C   UNL     1      45.385   2.688   8.857  0.00  0.00    +0.000 A 
ATOM     12  C   UNL     1      45.675   3.783   8.043  0.00  0.00    +0.000 A 
ATOM     13  C   UNL     1      46.539   3.610   6.966  0.00  0.00    +0.000 A 
ATOM     14  C   UNL     1      47.095   2.357   6.733  0.00  0.00    +0.000 A 
ATOM     15  C   UNL     1      46.769   1.326   7.597  0.00  0.00    +0.000 A 
ATOM     16  N   UNL     1      45.933   1.461   8.650  0.00  0.00    +0.000 NA
ENDBRANCH  10  11
ENDBRANCH   9  10
ENDBRANCH   7   9
ENDBRANCH   1   7
BRANCH   4  17
ATOM     17  C   UNL     1      48.805   7.650  14.248  0.00  0.00    +0.000 C 
BRANCH  17  18
ATOM     18  N   UNL     1      49.958   7.011  14.832  0.00  0.00    +0.000 N 
ATOM     19  C   UNL     1      50.142   6.983  16.190  0.00  0.00    +0.000 C 
ATOM     20  O   UNL     1      49.312   7.451  16.966  0.00  0.00    +0.000 OA
ATOM     21  H   UNL     1      50.738   6.812  14.213  0.00  0.00    +0.000 HD
BRANCH  19  22
ATOM     22  C   UNL     1      51.353   6.314  16.679  0.00  0.00    +0.000 A 
ATOM     23  C   UNL     1      52.568   6.987  16.646  0.00  0.00    +0.000 A 
ATOM     24  S   UNL     1      53.870   6.087  17.276  0.00  0.00    +0.000 S 
ATOM     25  C   UNL     1      52.870   4.746  17.571  0.00  0.00    +0.000 A 
ATOM     26  N   UNL     1      53.379   3.596  18.093  0.00  0.00    +0.000 NA
ATOM     27  C   UNL     1      52.515   2.649  18.241  0.00  0.00    +0.000 A 
ATOM     28  N   UNL     1      51.186   2.748  17.919  0.00  0.00    +0.000 N 
ATOM     29  C   UNL     1      50.620   3.895  17.417  0.00  0.00    +0.000 A 
ATOM     30  O   UNL     1      49.419   3.962  17.179  0.00  0.00    +0.000 OA
ATOM     31  C   UNL     1      51.552   4.988  17.219  0.00  0.00    +0.000 A 
ATOM     32  H   UNL     1      50.558   1.971  18.071  0.00  0.00    +0.000 HD
ENDBRANCH  19  22
ENDBRANCH  17  18
ENDBRANCH   4  17
TORSDOF 7
ENDMDL
MODEL 5
REMARK VINA RESULT:    -7.582      2.801      8.275
REMARK INTER + INTRA:         -11.305
REMARK INTER:                  -9.697
REMARK INTRA:                  -1.608
REMARK UNBOUND:                -0.620
REMARK  Name = 
REMARK  8 active torsions:
REMARK  status: ('A' for Active; 'I' for Inactive)
REMARK    1  A    between atoms: C_1  and  N_2
REMARK    2  A    between atoms: N_2  and  C_3
REMARK    3  A    between atoms: N_2  and  C_24
REMARK    4  A    between atoms: C_3  and  C_4
REMARK    5  A    between atoms: C_7  and  C_8
REMARK    6  A    between atoms: C_8  and  N_9
REMARK    7  A    between atoms: C_10  and  C_12
REMARK    8  A    between atoms: C_24  and  C_25
REMARK                            x       y       z     vdW  Elec       q    Type
REMARK                         _______ _______ _______ _____ _____    ______ ____
ROOT
ATOM      1  C   UNL     1      48.816   7.908  16.297  0.00  0.00    +0.000 A 
ATOM      2  C   UNL     1      48.264   9.033  15.663  0.00  0.00    +0.000 A 
ATOM      3  C   UNL     1      47.860   8.975  14.325  0.00  0.00    +0.000 A 
ATOM      4  C   UNL     1      48.010   7.795  13.590  0.00  0.00    +0.000 A 
ATOM      5  C   UNL     1      48.586   6.679  14.213  0.00  0.00    +0.000 A 
ATOM      6  C   UNL     1      48.970   6.729  15.557  0.00  0.00    +0.000 A 
ENDROOT
BRANCH   1   7
ATOM      7  C   UNL     1      49.234   7.977  17.754  0.00  0.00    +0.000 C 
BRANCH   7   9
ATOM      8  C   UNL     1      47.914   8.481  19.738  0.00  0.00    +0.000 C 
ATOM      9  N   UNL     1      48.230   7.475  18.713  0.00  0.00    +0.000 NA
BRANCH   9  10
ATOM     10  C   UNL     1      48.762   6.249  19.366  0.00  0.00    +0.000 C 
BRANCH  10  11
ATOM     11  C   UNL     1      48.564   4.976  18.557  0.00  0.00    +0.000 A 
ATOM     12  C   UNL     1      49.649   4.144  18.285  0.00  0.00    +0.000 A 
ATOM     13  C   UNL     1      49.459   3.042  17.457  0.00  0.00    +0.000 A 
ATOM     14  C   UNL     1      48.198   2.796  16.928  0.00  0.00    +0.000 A 
ATOM     15  C   UNL     1      47.170   3.661  17.259  0.00  0.00    +0.000 A 
ATOM     16  N   UNL     1      47.321   4.739  18.059  0.00  0.00    +0.000 NA
ENDBRANCH  10  11
ENDBRANCH   9  10
ENDBRANCH   7   9
ENDBRANCH   1   7
BRANCH   4  17
ATOM     17  C   UNL     1      47.611   7.738  12.139  0.00  0.00    +0.000 C 
BRANCH  17  18
ATOM     18  N   UNL     1      46.914   6.511  11.844  0.00  0.00    +0.000 N 
ATOM     19  C   UNL     1      45.554   6.416  11.982  0.00  0.00    +0.000 C 
ATOM     20  O   UNL     1      44.868   7.381  12.311  0.00  0.00    +0.000 OA
ATOM     21  H   UNL     1      47.475   5.667  11.777  0.00  0.00    +0.000 HD
BRANCH  19  22
ATOM     22  C   UNL     1      44.946   5.119  11.663  0.00  0.00    +0.000 A 
ATOM     23  C   UNL     1      44.248   4.430  12.646  0.00  0.00    +0.000 A 
ATOM     24  S   UNL     1      43.578   2.958  12.110  0.00  0.00    +0.000 S 
ATOM     25  C   UNL     1      44.237   3.162  10.557  0.00  0.00    +0.000 A 
ATOM     26  N   UNL     1      44.057   2.219   9.592  0.00  0.00    +0.000 NA
ATOM     27  C   UNL     1      44.634   2.488   8.469  0.00  0.00    +0.000 A 
ATOM     28  N   UNL     1      45.370   3.618   8.221  0.00  0.00    +0.000 N 
ATOM     29  C   UNL     1      45.556   4.611   9.153  0.00  0.00    +0.000 A 
ATOM     30  O   UNL     1      46.185   5.628   8.883  0.00  0.00    +0.000 OA
ATOM     31  C   UNL     1      44.938   4.351  10.439  0.00  0.00    +0.000 A 
ATOM     32  H   UNL     1      45.786   3.775   7.314  0.00  0.00    +0.000 HD
ENDBRANCH  19  22
ENDBRANCH  17  18
ENDBRANCH   4  17
TORSDOF 7
ENDMDL
MODEL 6
REMARK VINA RESULT:    -7.413      4.353      9.431
REMARK INTER + INTRA:         -11.067
REMARK INTER:                 -10.073
REMARK INTRA:                  -0.994
REMARK UNBOUND:                -0.620
REMARK  Name = 
REMARK  8 active torsions:
REMARK  status: ('A' for Active; 'I' for Inactive)
REMARK    1  A    between atoms: C_1  and  N_2
REMARK    2  A    between atoms: N_2  and  C_3
REMARK    3  A    between atoms: N_2  and  C_24
REMARK    4  A    between atoms: C_3  and  C_4
REMARK    5  A    between atoms: C_7  and  C_8
REMARK    6  A    between atoms: C_8  and  N_9
REMARK    7  A    between atoms: C_10  and  C_12
REMARK    8  A    between atoms: C_24  and  C_25
REMARK                            x       y       z     vdW  Elec       q    Type
REMARK                         _______ _______ _______ _____ _____    ______ ____
ROOT
ATOM      1  C   UNL     1      51.438   3.731  17.790  0.00  0.00    +0.000 A 
ATOM      2  C   UNL     1      50.580   4.839  17.874  0.00  0.00    +0.000 A 
ATOM      3  C   UNL     1      49.215   4.712  17.600  0.00  0.00    +0.000 A 
ATOM      4  C   UNL     1      48.680   3.474  17.226  0.00  0.00    +0.000 A 
ATOM      5  C   UNL     1      49.539   2.372  17.115  0.00  0.00    +0.000 A 
ATOM      6  C   UNL     1      50.901   2.495  17.411  0.00  0.00    +0.000 A 
ENDROOT
BRANCH   1   7
ATOM      7  C   UNL     1      52.914   3.877  18.107  0.00  0.00    +0.000 C 
BRANCH   7   9
ATOM      8  C   UNL     1      53.371   3.925  20.499  0.00  0.00    +0.000 C 
ATOM      9  N   UNL     1      53.378   3.106  19.279  0.00  0.00    +0.000 NA
BRANCH   9  10
ATOM     10  C   UNL     1      54.757   2.617  19.014  0.00  0.00    +0.000 C 
BRANCH  10  11
ATOM     11  C   UNL     1      54.818   1.260  18.332  0.00  0.00    +0.000 A 
ATOM     12  C   UNL     1      55.131   1.171  16.976  0.00  0.00    +0.000 A 
ATOM     13  C   UNL     1      55.078  -0.073  16.354  0.00  0.00    +0.000 A 
ATOM     14  C   UNL     1      54.721  -1.191  17.097  0.00  0.00    +0.000 A 
ATOM     15  C   UNL     1      54.440  -1.021  18.442  0.00  0.00    +0.000 A 
ATOM     16  N   UNL     1      54.481   0.171  19.074  0.00  0.00    +0.000 NA
ENDBRANCH  10  11
ENDBRANCH   9  10
ENDBRANCH   7   9
ENDBRANCH   1   7
BRANCH   4  17
ATOM     17  C   UNL     1      47.217   3.339  16.893  0.00  0.00    +0.000 C 
BRANCH  17  18
ATOM     18  N   UNL     1      46.812   4.337  15.936  0.00  0.00    +0.000 N 
ATOM     19  C   UNL     1      46.924   4.116  14.588  0.00  0.00    +0.000 C 
ATOM     20  O   UNL     1      47.324   3.045  14.139  0.00  0.00    +0.000 OA
ATOM     21  H   UNL     1      46.682   5.283  16.283  0.00  0.00    +0.000 HD
BRANCH  19  22
ATOM     22  C   UNL     1      46.490   5.202  13.702  0.00  0.00    +0.000 A 
ATOM     23  C   UNL     1      47.311   6.308  13.520  0.00  0.00    +0.000 A 
ATOM     24  S   UNL     1      46.678   7.463  12.440  0.00  0.00    +0.000 S 
ATOM     25  C   UNL     1      45.262   6.554  12.211  0.00  0.00    +0.000 A 
ATOM     26  N   UNL     1      44.265   7.005  11.401  0.00  0.00    +0.000 NA
ATOM     27  C   UNL     1      43.236   6.228  11.339  0.00  0.00    +0.000 A 
ATOM     28  N   UNL     1      43.115   5.037  12.009  0.00  0.00    +0.000 N 
ATOM     29  C   UNL     1      44.105   4.527  12.814  0.00  0.00    +0.000 A 
ATOM     30  O   UNL     1      43.980   3.438  13.364  0.00  0.00    +0.000 OA
ATOM     31  C   UNL     1      45.280   5.369  12.929  0.00  0.00    +0.000 A 
ATOM     32  H   UNL     1      42.286   4.469  11.907  0.00  0.00    +0.000 HD
ENDBRANCH  19  22
ENDBRANCH  17  18
ENDBRANCH   4  17
TORSDOF 7
ENDMDL
MODEL 7
REMARK VINA RESULT:    -7.079      3.170      8.493
REMARK INTER + INTRA:         -10.596
REMARK INTER:                  -9.547
REMARK INTRA:                  -1.049
REMARK UNBOUND:                -0.620
REMARK  Name = 
REMARK  8 active torsions:
REMARK  status: ('A' for Active; 'I' for Inactive)
REMARK    1  A    between atoms: C_1  and  N_2
REMARK    2  A    between atoms: N_2  and  C_3
REMARK    3  A    between atoms: N_2  and  C_24
REMARK    4  A    between atoms: C_3  and  C_4
REMARK    5  A    between atoms: C_7  and  C_8
REMARK    6  A    between atoms: C_8  and  N_9
REMARK    7  A    between atoms: C_10  and  C_12
REMARK    8  A    between atoms: C_24  and  C_25
REMARK                            x       y       z     vdW  Elec       q    Type
REMARK                         _______ _______ _______ _____ _____    ______ ____
ROOT
ATOM      1  C   UNL     1      50.316   7.512  15.130  0.00  0.00    +0.000 A 
ATOM      2  C   UNL     1      50.740   8.030  13.895  0.00  0.00    +0.000 A 
ATOM      3  C   UNL     1      49.851   8.143  12.822  0.00  0.00    +0.000 A 
ATOM      4  C   UNL     1      48.521   7.728  12.958  0.00  0.00    +0.000 A 
ATOM      5  C   UNL     1      48.103   7.186  14.181  0.00  0.00    +0.000 A 
ATOM      6  C   UNL     1      48.987   7.094  15.261  0.00  0.00    +0.000 A 
ENDROOT
BRANCH   1   7
ATOM      7  C   UNL     1      51.286   7.412  16.293  0.00  0.00    +0.000 C 
BRANCH   7   9
ATOM      8  C   UNL     1      50.661   6.852  18.580  0.00  0.00    +0.000 C 
ATOM      9  N   UNL     1      50.998   6.324  17.250  0.00  0.00    +0.000 NA
BRANCH   9  10
ATOM     10  C   UNL     1      52.194   5.446  17.351  0.00  0.00    +0.000 C 
BRANCH  10  11
ATOM     11  C   UNL     1      51.872   3.967  17.492  0.00  0.00    +0.000 A 
ATOM     12  C   UNL     1      52.856   3.073  17.914  0.00  0.00    +0.000 A 
ATOM     13  C   UNL     1      52.564   1.713  17.935  0.00  0.00    +0.000 A 
ATOM     14  C   UNL     1      51.304   1.280  17.541  0.00  0.00    +0.000 A 
ATOM     15  C   UNL     1      50.378   2.233  17.150  0.00  0.00    +0.000 A 
ATOM     16  N   UNL     1      50.630   3.559  17.118  0.00  0.00    +0.000 NA
ENDBRANCH  10  11
ENDBRANCH   9  10
ENDBRANCH   7   9
ENDBRANCH   1   7
BRANCH   4  17
ATOM     17  C   UNL     1      47.568   7.813  11.794  0.00  0.00    +0.000 C 
BRANCH  17  18
ATOM     18  N   UNL     1      46.881   6.560  11.600  0.00  0.00    +0.000 N 
ATOM     19  C   UNL     1      45.513   6.487  11.640  0.00  0.00    +0.000 C 
ATOM     20  O   UNL     1      44.815   7.487  11.791  0.00  0.00    +0.000 OA
ATOM     21  H   UNL     1      47.434   5.713  11.683  0.00  0.00    +0.000 HD
BRANCH  19  22
ATOM     22  C   UNL     1      44.915   5.162  11.438  0.00  0.00    +0.000 A 
ATOM     23  C   UNL     1      44.212   4.562  12.474  0.00  0.00    +0.000 A 
ATOM     24  S   UNL     1      43.555   3.043  12.070  0.00  0.00    +0.000 S 
ATOM     25  C   UNL     1      44.228   3.106  10.512  0.00  0.00    +0.000 A 
ATOM     26  N   UNL     1      44.063   2.077   9.637  0.00  0.00    +0.000 NA
ATOM     27  C   UNL     1      44.649   2.244   8.499  0.00  0.00    +0.000 A 
ATOM     28  N   UNL     1      45.381   3.352   8.153  0.00  0.00    +0.000 N 
ATOM     29  C   UNL     1      45.552   4.427   8.991  0.00  0.00    +0.000 A 
ATOM     30  O   UNL     1      46.178   5.419   8.633  0.00  0.00    +0.000 OA
ATOM     31  C   UNL     1      44.924   4.284  10.290  0.00  0.00    +0.000 A 
ATOM     32  H   UNL     1      45.804   3.426   7.239  0.00  0.00    +0.000 HD
ENDBRANCH  19  22
ENDBRANCH  17  18
ENDBRANCH   4  17
TORSDOF 7
ENDMDL
MODEL 8
REMARK VINA RESULT:    -6.980      2.959      3.572
REMARK INTER + INTRA:         -10.457
REMARK INTER:                  -9.972
REMARK INTRA:                  -0.485
REMARK UNBOUND:                -0.620
REMARK  Name = 
REMARK  8 active torsions:
REMARK  status: ('A' for Active; 'I' for Inactive)
REMARK    1  A    between atoms: C_1  and  N_2
REMARK    2  A    between atoms: N_2  and  C_3
REMARK    3  A    between atoms: N_2  and  C_24
REMARK    4  A    between atoms: C_3  and  C_4
REMARK    5  A    between atoms: C_7  and  C_8
REMARK    6  A    between atoms: C_8  and  N_9
REMARK    7  A    between atoms: C_10  and  C_12
REMARK    8  A    between atoms: C_24  and  C_25
REMARK                            x       y       z     vdW  Elec       q    Type
REMARK                         _______ _______ _______ _____ _____    ______ ____
ROOT
ATOM      1  C   UNL     1      46.410   6.622  11.774  0.00  0.00    +0.000 A 
ATOM      2  C   UNL     1      45.647   7.690  12.272  0.00  0.00    +0.000 A 
ATOM      3  C   UNL     1      46.163   8.546  13.249  0.00  0.00    +0.000 A 
ATOM      4  C   UNL     1      47.451   8.346  13.757  0.00  0.00    +0.000 A 
ATOM      5  C   UNL     1      48.205   7.265  13.281  0.00  0.00    +0.000 A 
ATOM      6  C   UNL     1      47.697   6.421  12.287  0.00  0.00    +0.000 A 
ENDROOT
BRANCH   1   7
ATOM      7  C   UNL     1      45.846   5.711  10.700  0.00  0.00    +0.000 C 
BRANCH   7   9
ATOM      8  C   UNL     1      44.984   3.833  11.990  0.00  0.00    +0.000 C 
ATOM      9  N   UNL     1      44.643   4.951  11.099  0.00  0.00    +0.000 NA
BRANCH   9  10
ATOM     10  C   UNL     1      43.979   4.429   9.875  0.00  0.00    +0.000 C 
BRANCH  10  11
ATOM     11  C   UNL     1      44.901   3.649   8.950  0.00  0.00    +0.000 A 
ATOM     12  C   UNL     1      45.088   2.280   9.139  0.00  0.00    +0.000 A 
ATOM     13  C   UNL     1      46.015   1.613   8.345  0.00  0.00    +0.000 A 
ATOM     14  C   UNL     1      46.724   2.322   7.383  0.00  0.00    +0.000 A 
ATOM     15  C   UNL     1      46.469   3.676   7.248  0.00  0.00    +0.000 A 
ATOM     16  N   UNL     1      45.577   4.353   8.003  0.00  0.00    +0.000 NA
ENDBRANCH  10  11
ENDBRANCH   9  10
ENDBRANCH   7   9
ENDBRANCH   1   7
BRANCH   4  17
ATOM     17  C   UNL     1      47.999   9.242  14.837  0.00  0.00    +0.000 C 
BRANCH  17  18
ATOM     18  N   UNL     1      47.784   8.668  16.141  0.00  0.00    +0.000 N 
ATOM     19  C   UNL     1      48.796   8.036  16.815  0.00  0.00    +0.000 C 
ATOM     20  O   UNL     1      49.937   7.977  16.363  0.00  0.00    +0.000 OA
ATOM     21  H   UNL     1      46.821   8.526  16.429  0.00  0.00    +0.000 HD
BRANCH  19  22
ATOM     22  C   UNL     1      48.467   7.480  18.133  0.00  0.00    +0.000 A 
ATOM     23  C   UNL     1      48.654   6.125  18.371  0.00  0.00    +0.000 A 
ATOM     24  S   UNL     1      48.255   5.643  19.956  0.00  0.00    +0.000 S 
ATOM     25  C   UNL     1      47.771   7.218  20.370  0.00  0.00    +0.000 A 
ATOM     26  N   UNL     1      47.282   7.495  21.610  0.00  0.00    +0.000 NA
ATOM     27  C   UNL     1      46.927   8.725  21.780  0.00  0.00    +0.000 A 
ATOM     28  N   UNL     1      47.020   9.704  20.824  0.00  0.00    +0.000 N 
ATOM     29  C   UNL     1      47.532   9.479  19.569  0.00  0.00    +0.000 A 
ATOM     30  O   UNL     1      47.640  10.388  18.753  0.00  0.00    +0.000 OA
ATOM     31  C   UNL     1      47.935   8.108  19.321  0.00  0.00    +0.000 A 
ATOM     32  H   UNL     1      46.736  10.652  21.027  0.00  0.00    +0.000 HD
ENDBRANCH  19  22
ENDBRANCH  17  18
ENDBRANCH   4  17
TORSDOF 7
ENDMDL
MODEL 9
REMARK VINA RESULT:    -6.862      3.698      9.124
REMARK INTER + INTRA:         -10.290
REMARK INTER:                  -8.888
REMARK INTRA:                  -1.402
REMARK UNBOUND:                -0.620
REMARK  Name = 
REMARK  8 active torsions:
REMARK  status: ('A' for Active; 'I' for Inactive)
REMARK    1  A    between atoms: C_1  and  N_2
REMARK    2  A    between atoms: N_2  and  C_3
REMARK    3  A    between atoms: N_2  and  C_24
REMARK    4  A    between atoms: C_3  and  C_4
REMARK    5  A    between atoms: C_7  and  C_8
REMARK    6  A    between atoms: C_8  and  N_9
REMARK    7  A    between atoms: C_10  and  C_12
REMARK    8  A    between atoms: C_24  and  C_25
REMARK                            x       y       z     vdW  Elec       q    Type
REMARK                         _______ _______ _______ _____ _____    ______ ____
ROOT
ATOM      1  C   UNL     1      51.478   3.670  18.127  0.00  0.00    +0.000 A 
ATOM      2  C   UNL     1      51.017   2.527  17.453  0.00  0.00    +0.000 A 
ATOM      3  C   UNL     1      49.679   2.416  17.064  0.00  0.00    +0.000 A 
ATOM      4  C   UNL     1      48.770   3.440  17.351  0.00  0.00    +0.000 A 
ATOM      5  C   UNL     1      49.221   4.569  18.047  0.00  0.00    +0.000 A 
ATOM      6  C   UNL     1      50.565   4.691  18.417  0.00  0.00    +0.000 A 
ENDROOT
BRANCH   1   7
ATOM      7  C   UNL     1      52.936   3.788  18.528  0.00  0.00    +0.000 C 
BRANCH   7   9
ATOM      8  C   UNL     1      54.922   2.890  17.439  0.00  0.00    +0.000 C 
ATOM      9  N   UNL     1      53.881   3.928  17.401  0.00  0.00    +0.000 NA
BRANCH   9  10
ATOM     10  C   UNL     1      54.515   5.271  17.473  0.00  0.00    +0.000 C 
BRANCH  10  11
ATOM     11  C   UNL     1      53.543   6.429  17.310  0.00  0.00    +0.000 A 
ATOM     12  C   UNL     1      52.860   6.606  16.107  0.00  0.00    +0.000 A 
ATOM     13  C   UNL     1      52.057   7.731  15.949  0.00  0.00    +0.000 A 
ATOM     14  C   UNL     1      51.951   8.644  16.992  0.00  0.00    +0.000 A 
ATOM     15  C   UNL     1      52.649   8.388  18.159  0.00  0.00    +0.000 A 
ATOM     16  N   UNL     1      53.437   7.306  18.343  0.00  0.00    +0.000 NA
ENDBRANCH  10  11
ENDBRANCH   9  10
ENDBRANCH   7   9
ENDBRANCH   1   7
BRANCH   4  17
ATOM     17  C   UNL     1      47.319   3.309  16.967  0.00  0.00    +0.000 C 
BRANCH  17  18
ATOM     18  N   UNL     1      46.942   4.329  16.021  0.00  0.00    +0.000 N 
ATOM     19  C   UNL     1      46.996   4.099  14.671  0.00  0.00    +0.000 C 
ATOM     20  O   UNL     1      47.315   3.006  14.212  0.00  0.00    +0.000 OA
ATOM     21  H   UNL     1      46.881   5.281  16.369  0.00  0.00    +0.000 HD
BRANCH  19  22
ATOM     22  C   UNL     1      46.598   5.209  13.796  0.00  0.00    +0.000 A 
ATOM     23  C   UNL     1      47.449   6.296  13.638  0.00  0.00    +0.000 A 
ATOM     24  S   UNL     1      46.857   7.482  12.568  0.00  0.00    +0.000 S 
ATOM     25  C   UNL     1      45.420   6.612  12.313  0.00  0.00    +0.000 A 
ATOM     26  N   UNL     1      44.442   7.100  11.501  0.00  0.00    +0.000 NA
ATOM     27  C   UNL     1      43.394   6.351  11.418  0.00  0.00    +0.000 A 
ATOM     28  N   UNL     1      43.237   5.154  12.070  0.00  0.00    +0.000 N 
ATOM     29  C   UNL     1      44.206   4.607  12.876  0.00  0.00    +0.000 A 
ATOM     30  O   UNL     1      44.047   3.515  13.410  0.00  0.00    +0.000 OA
ATOM     31  C   UNL     1      45.401   5.417  13.014  0.00  0.00    +0.000 A 
ATOM     32  H   UNL     1      42.395   4.609  11.952  0.00  0.00    +0.000 HD
ENDBRANCH  19  22
ENDBRANCH  17  18
ENDBRANCH   4  17
TORSDOF 7
ENDMDL
