MODEL 1
REMARK VINA RESULT:    -7.780      0.000      0.000
REMARK INTER + INTRA:         -12.826
REMARK INTER:                 -11.419
REMARK INTRA:                  -1.407
REMARK UNBOUND:                -1.407
REMARK  Name = 
REMARK  9 active torsions:
REMARK  status: ('A' for Active; 'I' for Inactive)
REMARK    1  A    between atoms: C_1  and  O_2
REMARK    2  A    between atoms: O_2  and  C_3
REMARK    3  A    between atoms: C_8  and  C_9
REMARK    4  A    between atoms: C_9  and  N_10
REMARK    5  A    between atoms: N_10  and  C_11
REMARK    6  A    between atoms: C_11  and  C_12
REMARK    7  A    between atoms: C_15  and  C_16
REMARK    8  A    between atoms: C_16  and  N_17
REMARK    9  A    between atoms: C_18  and  C_20
REMARK                            x       y       z     vdW  Elec       q    Type
REMARK                         _______ _______ _______ _____ _____    ______ ____
ROOT
ATOM      1  C   UNL     1      44.702   4.312  11.643  0.00  0.00    +0.000 A 
ATOM      2  C   UNL     1      45.226   5.442  10.997  0.00  0.00    +0.000 A 
ATOM      3  C   UNL     1      46.313   6.134  11.536  0.00  0.00    +0.000 A 
ATOM      4  C   UNL     1      46.893   5.720  12.740  0.00  0.00    +0.000 A 
ATOM      5  C   UNL     1      46.332   4.629  13.419  0.00  0.00    +0.000 A 
ATOM      6  C   UNL     1      45.253   3.928  12.873  0.00  0.00    +0.000 A 
ENDROOT
BRANCH   1   7
ATOM      7  C   UNL     1      43.570   3.525  11.014  0.00  0.00    +0.000 C 
BRANCH   7   8
ATOM      8  N   UNL     1      43.847   3.264   9.603  0.00  0.00    +0.000 NA
ATOM      9  H   UNL     1      42.974   3.075   9.115  0.00  0.00    +0.000 HD
BRANCH   8  10
ATOM     10  C   UNL     1      44.718   2.103   9.415  0.00  0.00    +0.000 C 
BRANCH  10  16
ATOM     11  C   UNL     1      46.522   1.326   7.765  0.00  0.00    +0.000 A 
ATOM     12  C   UNL     1      47.467   1.638   6.778  0.00  0.00    +0.000 A 
ATOM     13  C   UNL     1      47.602   2.947   6.308  0.00  0.00    +0.000 A 
ATOM     14  C   UNL     1      46.790   3.955   6.810  0.00  0.00    +0.000 A 
ATOM     15  C   UNL     1      45.854   3.658   7.799  0.00  0.00    +0.000 A 
ATOM     16  C   UNL     1      45.710   2.347   8.294  0.00  0.00    +0.000 A 
BRANCH  11  18
ATOM     17  C   UNL     1      46.698  -1.027   7.409  0.00  0.00    +0.000 C 
ATOM     18  O   UNL     1      46.298   0.058   8.238  0.00  0.00    +0.000 OA
ENDBRANCH  11  18
ENDBRANCH  10  16
ENDBRANCH   8  10
ENDBRANCH   7   8
ENDBRANCH   1   7
BRANCH   4  19
ATOM     19  C   UNL     1      48.077   6.451  13.312  0.00  0.00    +0.000 C 
BRANCH  19  20
ATOM     20  N   UNL     1      48.059   6.423  14.752  0.00  0.00    +0.000 N 
ATOM     21  C   UNL     1      49.116   6.897  15.483  0.00  0.00    +0.000 C 
ATOM     22  O   UNL     1      50.099   7.406  14.951  0.00  0.00    +0.000 OA
ATOM     23  H   UNL     1      47.371   5.821  15.191  0.00  0.00    +0.000 HD
BRANCH  21  24
ATOM     24  C   UNL     1      48.989   6.825  16.944  0.00  0.00    +0.000 A 
ATOM     25  C   UNL     1      48.960   7.997  17.687  0.00  0.00    +0.000 A 
ATOM     26  S   UNL     1      48.749   7.742  19.360  0.00  0.00    +0.000 S 
ATOM     27  C   UNL     1      48.745   6.054  19.156  0.00  0.00    +0.000 A 
ATOM     28  N   UNL     1      48.619   5.222  20.227  0.00  0.00    +0.000 NA
ATOM     29  C   UNL     1      48.661   3.966  19.931  0.00  0.00    +0.000 A 
ATOM     30  N   UNL     1      48.811   3.462  18.664  0.00  0.00    +0.000 N 
ATOM     31  C   UNL     1      48.918   4.264  17.553  0.00  0.00    +0.000 A 
ATOM     32  O   UNL     1      49.020   3.782  16.429  0.00  0.00    +0.000 OA
ATOM     33  C   UNL     1      48.885   5.688  17.828  0.00  0.00    +0.000 A 
ATOM     34  H   UNL     1      48.832   2.466  18.501  0.00  0.00    +0.000 HD
ENDBRANCH  21  24
ENDBRANCH  19  20
ENDBRANCH   4  19
TORSDOF 8
ENDMDL
MODEL 2
REMARK VINA RESULT:    -7.562      1.365      2.209
REMARK INTER + INTRA:         -12.505
REMARK INTER:                 -11.303
REMARK INTRA:                  -1.202
REMARK UNBOUND:                -1.407
REMARK  Name = 
REMARK  9 active torsions:
REMARK  status: ('A' for Active; 'I' for Inactive)
REMARK    1  A    between atoms: C_1  and  O_2
REMARK    2  A    between atoms: O_2  and  C_3
REMARK    3  A    between atoms: C_8  and  C_9
REMARK    4  A    between atoms: C_9  and  N_10
REMARK    5  A    between atoms: N_10  and  C_11
REMARK    6  A    between atoms: C_11  and  C_12
REMARK    7  A    between atoms: C_15  and  C_16
REMARK    8  A    between atoms: C_16  and  N_17
REMARK    9  A    between atoms: C_18  and  C_20
REMARK                            x       y       z     vdW  Elec       q    Type
REMARK                         _______ _______ _______ _____ _____    ______ ____
ROOT
ATOM      1  C   UNL     1      44.752   4.107  11.636  0.00  0.00    +0.000 A 
ATOM      2  C   UNL     1      45.534   3.474  12.614  0.00  0.00    +0.000 A 
ATOM      3  C   UNL     1      46.545   4.168  13.281  0.00  0.00    +0.000 A 
ATOM      4  C   UNL     1      46.807   5.509  12.977  0.00  0.00    +0.000 A 
ATOM      5  C   UNL     1      46.069   6.125  11.957  0.00  0.00    +0.000 A 
ATOM      6  C   UNL     1      45.047   5.435  11.299  0.00  0.00    +0.000 A 
ENDROOT
BRANCH   1   7
ATOM      7  C   UNL     1      43.610   3.367  10.970  0.00  0.00    +0.000 C 
BRANCH   7   8
ATOM      8  N   UNL     1      43.864   3.206   9.540  0.00  0.00    +0.000 NA
ATOM      9  H   UNL     1      42.979   3.130   9.044  0.00  0.00    +0.000 HD
BRANCH   8  10
ATOM     10  C   UNL     1      44.639   1.998   9.248  0.00  0.00    +0.000 C 
BRANCH  10  16
ATOM     11  C   UNL     1      46.637   1.304   7.797  0.00  0.00    +0.000 A 
ATOM     12  C   UNL     1      47.668   1.660   6.916  0.00  0.00    +0.000 A 
ATOM     13  C   UNL     1      47.799   2.976   6.466  0.00  0.00    +0.000 A 
ATOM     14  C   UNL     1      46.898   3.948   6.881  0.00  0.00    +0.000 A 
ATOM     15  C   UNL     1      45.876   3.608   7.764  0.00  0.00    +0.000 A 
ATOM     16  C   UNL     1      45.733   2.289   8.239  0.00  0.00    +0.000 A 
BRANCH  11  18
ATOM     17  C   UNL     1      46.593  -1.030   7.303  0.00  0.00    +0.000 C 
ATOM     18  O   UNL     1      46.415   0.025   8.240  0.00  0.00    +0.000 OA
ENDBRANCH  11  18
ENDBRANCH  10  16
ENDBRANCH   8  10
ENDBRANCH   7   8
ENDBRANCH   1   7
BRANCH   4  19
ATOM     19  C   UNL     1      47.882   6.265  13.708  0.00  0.00    +0.000 C 
BRANCH  19  20
ATOM     20  N   UNL     1      47.789   6.055  15.130  0.00  0.00    +0.000 N 
ATOM     21  C   UNL     1      48.872   6.248  15.947  0.00  0.00    +0.000 C 
ATOM     22  O   UNL     1      49.949   6.649  15.514  0.00  0.00    +0.000 OA
ATOM     23  H   UNL     1      46.992   5.524  15.465  0.00  0.00    +0.000 HD
BRANCH  21  24
ATOM     24  C   UNL     1      48.664   6.010  17.380  0.00  0.00    +0.000 A 
ATOM     25  C   UNL     1      48.864   4.737  17.899  0.00  0.00    +0.000 A 
ATOM     26  S   UNL     1      48.638   4.643  19.586  0.00  0.00    +0.000 S 
ATOM     27  C   UNL     1      48.212   6.288  19.675  0.00  0.00    +0.000 A 
ATOM     28  N   UNL     1      47.873   6.857  20.864  0.00  0.00    +0.000 NA
ATOM     29  C   UNL     1      47.545   8.103  20.782  0.00  0.00    +0.000 A 
ATOM     30  N   UNL     1      47.530   8.836  19.621  0.00  0.00    +0.000 N 
ATOM     31  C   UNL     1      47.887   8.308  18.404  0.00  0.00    +0.000 A 
ATOM     32  O   UNL     1      47.892   8.998  17.389  0.00  0.00    +0.000 OA
ATOM     33  C   UNL     1      48.258   6.906  18.438  0.00  0.00    +0.000 A 
ATOM     34  H   UNL     1      47.265   9.810  19.627  0.00  0.00    +0.000 HD
ENDBRANCH  21  24
ENDBRANCH  19  20
ENDBRANCH   4  19
TORSDOF 8
ENDMDL
MODEL 3
REMARK VINA RESULT:    -7.540      1.972      2.743
REMARK INTER + INTRA:         -12.474
REMARK INTER:                 -11.205
REMARK INTRA:                  -1.269
REMARK UNBOUND:                -1.407
REMARK  Name = 
REMARK  9 active torsions:
REMARK  status: ('A' for Active; 'I' for Inactive)
REMARK    1  A    between atoms: C_1  and  O_2
REMARK    2  A    between atoms: O_2  and  C_3
REMARK    3  A    between atoms: C_8  and  C_9
REMARK    4  A    between atoms: C_9  and  N_10
REMARK    5  A    between atoms: N_10  and  C_11
REMARK    6  A    between atoms: C_11  and  C_12
REMARK    7  A    between atoms: C_15  and  C_16
REMARK    8  A    between atoms: C_16  and  N_17
REMARK    9  A    between atoms: C_18  and  C_20
REMARK                            x       y       z     vdW  Elec       q    Type
REMARK                         _______ _______ _______ _____ _____    ______ ____
ROOT
ATOM      1  C   UNL     1      44.498   4.848  11.906  0.00  0.00    +0.000 A 
ATOM      2  C   UNL     1      45.707   4.974  12.607  0.00  0.00    +0.000 A 
ATOM      3  C   UNL     1      46.220   6.232  12.929  0.00  0.00    +0.000 A 
ATOM      4  C   UNL     1      45.542   7.395  12.546  0.00  0.00    +0.000 A 
ATOM      5  C   UNL     1      44.366   7.273  11.792  0.00  0.00    +0.000 A 
ATOM      6  C   UNL     1      43.846   6.014  11.482  0.00  0.00    +0.000 A 
ENDROOT
BRANCH   1   7
ATOM      7  C   UNL     1      43.913   3.479  11.626  0.00  0.00    +0.000 C 
BRANCH   7   8
ATOM      8  N   UNL     1      44.852   2.665  10.856  0.00  0.00    +0.000 NA
ATOM      9  H   UNL     1      45.730   3.169  10.750  0.00  0.00    +0.000 HD
BRANCH   8  10
ATOM     10  C   UNL     1      44.352   2.364   9.514  0.00  0.00    +0.000 C 
BRANCH  10  16
ATOM     11  C   UNL     1      45.965   3.429   7.827  0.00  0.00    +0.000 A 
ATOM     12  C   UNL     1      46.974   3.279   6.865  0.00  0.00    +0.000 A 
ATOM     13  C   UNL     1      47.520   2.022   6.593  0.00  0.00    +0.000 A 
ATOM     14  C   UNL     1      47.073   0.904   7.284  0.00  0.00    +0.000 A 
ATOM     15  C   UNL     1      46.063   1.039   8.234  0.00  0.00    +0.000 A 
ATOM     16  C   UNL     1      45.491   2.295   8.515  0.00  0.00    +0.000 A 
BRANCH  11  18
ATOM     17  C   UNL     1      46.221   5.510   8.964  0.00  0.00    +0.000 C 
ATOM     18  O   UNL     1      45.417   4.635   8.182  0.00  0.00    +0.000 OA
ENDBRANCH  11  18
ENDBRANCH  10  16
ENDBRANCH   8  10
ENDBRANCH   7   8
ENDBRANCH   1   7
BRANCH   4  19
ATOM     19  C   UNL     1      46.081   8.751  12.910  0.00  0.00    +0.000 C 
BRANCH  19  20
ATOM     20  N   UNL     1      46.756   8.718  14.182  0.00  0.00    +0.000 N 
ATOM     21  C   UNL     1      48.079   9.058  14.291  0.00  0.00    +0.000 C 
ATOM     22  O   UNL     1      48.732   9.447  13.326  0.00  0.00    +0.000 OA
ATOM     23  H   UNL     1      46.305   8.201  14.928  0.00  0.00    +0.000 HD
BRANCH  21  24
ATOM     24  C   UNL     1      48.665   8.994  15.635  0.00  0.00    +0.000 A 
ATOM     25  C   UNL     1      48.967  10.171  16.307  0.00  0.00    +0.000 A 
ATOM     26  S   UNL     1      49.584   9.925  17.877  0.00  0.00    +0.000 S 
ATOM     27  C   UNL     1      49.521   8.235  17.693  0.00  0.00    +0.000 A 
ATOM     28  N   UNL     1      49.940   7.409  18.692  0.00  0.00    +0.000 NA
ATOM     29  C   UNL     1      49.864   6.152  18.408  0.00  0.00    +0.000 A 
ATOM     30  N   UNL     1      49.403   5.642  17.220  0.00  0.00    +0.000 N 
ATOM     31  C   UNL     1      48.950   6.437  16.195  0.00  0.00    +0.000 A 
ATOM     32  O   UNL     1      48.515   5.949  15.156  0.00  0.00    +0.000 OA
ATOM     33  C   UNL     1      49.020   7.862  16.458  0.00  0.00    +0.000 A 
ATOM     34  H   UNL     1      49.367   4.645  17.064  0.00  0.00    +0.000 HD
ENDBRANCH  21  24
ENDBRANCH  19  20
ENDBRANCH   4  19
TORSDOF 8
ENDMDL
MODEL 4
REMARK VINA RESULT:    -7.438      1.180      1.859
REMARK INTER + INTRA:         -12.324
REMARK INTER:                 -11.150
REMARK INTRA:                  -1.174
REMARK UNBOUND:                -1.407
REMARK  Name = 
REMARK  9 active torsions:
REMARK  status: ('A' for Active; 'I' for Inactive)
REMARK    1  A    between atoms: C_1  and  O_2
REMARK    2  A    between atoms: O_2  and  C_3
REMARK    3  A    between atoms: C_8  and  C_9
REMARK    4  A    between atoms: C_9  and  N_10
REMARK    5  A    between atoms: N_10  and  C_11
REMARK    6  A    between atoms: C_11  and  C_12
REMARK    7  A    between atoms: C_15  and  C_16
REMARK    8  A    between atoms: C_16  and  N_17
REMARK    9  A    between atoms: C_18  and  C_20
REMARK                            x       y       z     vdW  Elec       q    Type
REMARK                         _______ _______ _______ _____ _____    ______ ____
ROOT
ATOM      1  C   UNL     1      45.031   4.392  12.190  0.00  0.00    +0.000 A 
ATOM      2  C   UNL     1      44.879   5.783  12.087  0.00  0.00    +0.000 A 
ATOM      3  C   UNL     1      45.819   6.649  12.650  0.00  0.00    +0.000 A 
ATOM      4  C   UNL     1      46.926   6.144  13.340  0.00  0.00    +0.000 A 
ATOM      5  C   UNL     1      47.048   4.757  13.498  0.00  0.00    +0.000 A 
ATOM      6  C   UNL     1      46.115   3.890  12.922  0.00  0.00    +0.000 A 
ENDROOT
BRANCH   1   7
ATOM      7  C   UNL     1      44.045   3.461  11.513  0.00  0.00    +0.000 C 
BRANCH   7   8
ATOM      8  N   UNL     1      44.749   2.416  10.772  0.00  0.00    +0.000 NA
ATOM      9  H   UNL     1      45.749   2.611  10.777  0.00  0.00    +0.000 HD
BRANCH   8  10
ATOM     10  C   UNL     1      44.321   2.345   9.375  0.00  0.00    +0.000 C 
BRANCH  10  16
ATOM     11  C   UNL     1      46.011   3.475   7.811  0.00  0.00    +0.000 A 
ATOM     12  C   UNL     1      47.076   3.365   6.907  0.00  0.00    +0.000 A 
ATOM     13  C   UNL     1      47.658   2.124   6.637  0.00  0.00    +0.000 A 
ATOM     14  C   UNL     1      47.190   0.981   7.273  0.00  0.00    +0.000 A 
ATOM     15  C   UNL     1      46.125   1.078   8.166  0.00  0.00    +0.000 A 
ATOM     16  C   UNL     1      45.517   2.318   8.442  0.00  0.00    +0.000 A 
BRANCH  11  18
ATOM     17  C   UNL     1      46.172   5.536   9.002  0.00  0.00    +0.000 C 
ATOM     18  O   UNL     1      45.424   4.664   8.163  0.00  0.00    +0.000 OA
ENDBRANCH  11  18
ENDBRANCH  10  16
ENDBRANCH   8  10
ENDBRANCH   7   8
ENDBRANCH   1   7
BRANCH   4  19
ATOM     19  C   UNL     1      47.951   7.074  13.930  0.00  0.00    +0.000 C 
BRANCH  19  20
ATOM     20  N   UNL     1      48.075   6.877  15.351  0.00  0.00    +0.000 N 
ATOM     21  C   UNL     1      49.194   7.286  16.028  0.00  0.00    +0.000 C 
ATOM     22  O   UNL     1      50.113   7.877  15.468  0.00  0.00    +0.000 OA
ATOM     23  H   UNL     1      47.441   6.211  15.779  0.00  0.00    +0.000 HD
BRANCH  21  24
ATOM     24  C   UNL     1      49.212   7.040  17.475  0.00  0.00    +0.000 A 
ATOM     25  C   UNL     1      49.419   8.100  18.347  0.00  0.00    +0.000 A 
ATOM     26  S   UNL     1      49.352   7.657  19.992  0.00  0.00    +0.000 S 
ATOM     27  C   UNL     1      49.100   6.022  19.596  0.00  0.00    +0.000 A 
ATOM     28  N   UNL     1      48.977   5.079  20.570  0.00  0.00    +0.000 NA
ATOM     29  C   UNL     1      48.818   3.877  20.129  0.00  0.00    +0.000 A 
ATOM     30  N   UNL     1      48.765   3.528  18.802  0.00  0.00    +0.000 N 
ATOM     31  C   UNL     1      48.862   4.449  17.787  0.00  0.00    +0.000 A 
ATOM     32  O   UNL     1      48.780   4.109  16.611  0.00  0.00    +0.000 OA
ATOM     33  C   UNL     1      49.049   5.818  18.228  0.00  0.00    +0.000 A 
ATOM     34  H   UNL     1      48.635   2.566  18.524  0.00  0.00    +0.000 HD
ENDBRANCH  21  24
ENDBRANCH  19  20
ENDBRANCH   4  19
TORSDOF 8
ENDMDL
MODEL 5
REMARK VINA RESULT:    -7.090      3.027      9.084
REMARK INTER + INTRA:         -11.812
REMARK INTER:                  -9.863
REMARK INTRA:                  -1.949
REMARK UNBOUND:                -1.407
REMARK  Name = 
REMARK  9 active torsions:
REMARK  status: ('A' for Active; 'I' for Inactive)
REMARK    1  A    between atoms: C_1  and  O_2
REMARK    2  A    between atoms: O_2  and  C_3
REMARK    3  A    between atoms: C_8  and  C_9
REMARK    4  A    between atoms: C_9  and  N_10
REMARK    5  A    between atoms: N_10  and  C_11
REMARK    6  A    between atoms: C_11  and  C_12
REMARK    7  A    between atoms: C_15  and  C_16
REMARK    8  A    between atoms: C_16  and  N_17
REMARK    9  A    between atoms: C_18  and  C_20
REMARK                            x       y       z     vdW  Elec       q    Type
REMARK                         _______ _______ _______ _____ _____    ______ ____
ROOT
ATOM      1  C   UNL     1      48.892   7.954  16.204  0.00  0.00    +0.000 A 
ATOM      2  C   UNL     1      48.200   9.023  15.614  0.00  0.00    +0.000 A 
ATOM      3  C   UNL     1      47.795   8.963  14.280  0.00  0.00    +0.000 A 
ATOM      4  C   UNL     1      48.083   7.838  13.499  0.00  0.00    +0.000 A 
ATOM      5  C   UNL     1      48.828   6.796  14.067  0.00  0.00    +0.000 A 
ATOM      6  C   UNL     1      49.222   6.849  15.408  0.00  0.00    +0.000 A 
ENDROOT
BRANCH   1   7
ATOM      7  C   UNL     1      49.263   7.998  17.672  0.00  0.00    +0.000 C 
BRANCH   7   8
ATOM      8  N   UNL     1      48.169   7.485  18.495  0.00  0.00    +0.000 NA
ATOM      9  H   UNL     1      47.851   8.215  19.130  0.00  0.00    +0.000 HD
BRANCH   8  10
ATOM     10  C   UNL     1      48.579   6.340  19.310  0.00  0.00    +0.000 C 
BRANCH  10  16
ATOM     11  C   UNL     1      49.645   4.245  18.284  0.00  0.00    +0.000 A 
ATOM     12  C   UNL     1      49.527   3.108  17.472  0.00  0.00    +0.000 A 
ATOM     13  C   UNL     1      48.302   2.766  16.895  0.00  0.00    +0.000 A 
ATOM     14  C   UNL     1      47.179   3.549  17.128  0.00  0.00    +0.000 A 
ATOM     15  C   UNL     1      47.287   4.687  17.925  0.00  0.00    +0.000 A 
ATOM     16  C   UNL     1      48.516   5.055  18.507  0.00  0.00    +0.000 A 
BRANCH  11  18
ATOM     17  C   UNL     1      51.806   5.245  18.141  0.00  0.00    +0.000 C 
ATOM     18  O   UNL     1      50.801   4.614  18.924  0.00  0.00    +0.000 OA
ENDBRANCH  11  18
ENDBRANCH  10  16
ENDBRANCH   8  10
ENDBRANCH   7   8
ENDBRANCH   1   7
BRANCH   4  19
ATOM     19  C   UNL     1      47.630   7.762  12.066  0.00  0.00    +0.000 C 
BRANCH  19  20
ATOM     20  N   UNL     1      46.942   6.524  11.805  0.00  0.00    +0.000 N 
ATOM     21  C   UNL     1      45.579   6.434  11.915  0.00  0.00    +0.000 C 
ATOM     22  O   UNL     1      44.884   7.408  12.195  0.00  0.00    +0.000 OA
ATOM     23  H   UNL     1      47.504   5.680  11.790  0.00  0.00    +0.000 HD
BRANCH  21  24
ATOM     24  C   UNL     1      44.981   5.127  11.620  0.00  0.00    +0.000 A 
ATOM     25  C   UNL     1      44.293   4.448  12.617  0.00  0.00    +0.000 A 
ATOM     26  S   UNL     1      43.610   2.975  12.096  0.00  0.00    +0.000 S 
ATOM     27  C   UNL     1      44.258   3.166  10.534  0.00  0.00    +0.000 A 
ATOM     28  N   UNL     1      44.058   2.220   9.576  0.00  0.00    +0.000 NA
ATOM     29  C   UNL     1      44.628   2.478   8.448  0.00  0.00    +0.000 A 
ATOM     30  N   UNL     1      45.376   3.599   8.184  0.00  0.00    +0.000 N 
ATOM     31  C   UNL     1      45.584   4.589   9.114  0.00  0.00    +0.000 A 
ATOM     32  O   UNL     1      46.232   5.594   8.838  0.00  0.00    +0.000 OA
ATOM     33  C   UNL     1      44.970   4.345  10.405  0.00  0.00    +0.000 A 
ATOM     34  H   UNL     1      45.793   3.741   7.276  0.00  0.00    +0.000 HD
ENDBRANCH  21  24
ENDBRANCH  19  20
ENDBRANCH   4  19
TORSDOF 8
ENDMDL
MODEL 6
REMARK VINA RESULT:    -6.952      3.740      8.606
REMARK INTER + INTRA:         -11.610
REMARK INTER:                  -9.878
REMARK INTRA:                  -1.732
REMARK UNBOUND:                -1.407
REMARK  Name = 
REMARK  9 active torsions:
REMARK  status: ('A' for Active; 'I' for Inactive)
REMARK    1  A    between atoms: C_1  and  O_2
REMARK    2  A    between atoms: O_2  and  C_3
REMARK    3  A    between atoms: C_8  and  C_9
REMARK    4  A    between atoms: C_9  and  N_10
REMARK    5  A    between atoms: N_10  and  C_11
REMARK    6  A    between atoms: C_11  and  C_12
REMARK    7  A    between atoms: C_15  and  C_16
REMARK    8  A    between atoms: C_16  and  N_17
REMARK    9  A    between atoms: C_18  and  C_20
REMARK                            x       y       z     vdW  Elec       q    Type
REMARK                         _______ _______ _______ _____ _____    ______ ____
ROOT
ATOM      1  C   UNL     1      50.448   7.284  15.428  0.00  0.00    +0.000 A 
ATOM      2  C   UNL     1      51.030   7.945  14.336  0.00  0.00    +0.000 A 
ATOM      3  C   UNL     1      50.277   8.254  13.202  0.00  0.00    +0.000 A 
ATOM      4  C   UNL     1      48.925   7.898  13.128  0.00  0.00    +0.000 A 
ATOM      5  C   UNL     1      48.356   7.184  14.191  0.00  0.00    +0.000 A 
ATOM      6  C   UNL     1      49.107   6.886  15.333  0.00  0.00    +0.000 A 
ENDROOT
BRANCH   1   7
ATOM      7  C   UNL     1      51.254   7.018  16.683  0.00  0.00    +0.000 C 
BRANCH   7   8
ATOM      8  N   UNL     1      51.599   5.601  16.783  0.00  0.00    +0.000 NA
ATOM      9  H   UNL     1      51.168   5.091  16.014  0.00  0.00    +0.000 HD
BRANCH   8  10
ATOM     10  C   UNL     1      51.123   5.003  18.031  0.00  0.00    +0.000 C 
BRANCH  10  16
ATOM     11  C   UNL     1      49.651   3.094  17.150  0.00  0.00    +0.000 A 
ATOM     12  C   UNL     1      48.373   2.559  16.937  0.00  0.00    +0.000 A 
ATOM     13  C   UNL     1      47.234   3.223  17.398  0.00  0.00    +0.000 A 
ATOM     14  C   UNL     1      47.358   4.423  18.086  0.00  0.00    +0.000 A 
ATOM     15  C   UNL     1      48.622   4.971  18.295  0.00  0.00    +0.000 A 
ATOM     16  C   UNL     1      49.782   4.322  17.827  0.00  0.00    +0.000 A 
BRANCH  11  18
ATOM     17  C   UNL     1      51.224   1.340  17.525  0.00  0.00    +0.000 C 
ATOM     18  O   UNL     1      50.815   2.475  16.772  0.00  0.00    +0.000 OA
ENDBRANCH  11  18
ENDBRANCH  10  16
ENDBRANCH   8  10
ENDBRANCH   7   8
ENDBRANCH   1   7
BRANCH   4  19
ATOM     19  C   UNL     1      48.105   8.249  11.916  0.00  0.00    +0.000 C 
BRANCH  19  20
ATOM     20  N   UNL     1      47.471   7.080  11.363  0.00  0.00    +0.000 N 
ATOM     21  C   UNL     1      46.108   6.937  11.385  0.00  0.00    +0.000 C 
ATOM     22  O   UNL     1      45.370   7.811  11.832  0.00  0.00    +0.000 OA
ATOM     23  H   UNL     1      48.060   6.272  11.197  0.00  0.00    +0.000 HD
BRANCH  21  24
ATOM     24  C   UNL     1      45.567   5.709  10.790  0.00  0.00    +0.000 A 
ATOM     25  C   UNL     1      45.761   5.461   9.437  0.00  0.00    +0.000 A 
ATOM     26  S   UNL     1      45.124   3.969   8.916  0.00  0.00    +0.000 S 
ATOM     27  C   UNL     1      44.517   3.626  10.468  0.00  0.00    +0.000 A 
ATOM     28  N   UNL     1      43.826   2.477  10.708  0.00  0.00    +0.000 NA
ATOM     29  C   UNL     1      43.399   2.359  11.921  0.00  0.00    +0.000 A 
ATOM     30  N   UNL     1      43.603   3.279  12.919  0.00  0.00    +0.000 N 
ATOM     31  C   UNL     1      44.314   4.439  12.726  0.00  0.00    +0.000 A 
ATOM     32  O   UNL     1      44.505   5.228  13.647  0.00  0.00    +0.000 OA
ATOM     33  C   UNL     1      44.811   4.627  11.376  0.00  0.00    +0.000 A 
ATOM     34  H   UNL     1      43.244   3.122  13.849  0.00  0.00    +0.000 HD
ENDBRANCH  21  24
ENDBRANCH  19  20
ENDBRANCH   4  19
TORSDOF 8
ENDMDL
MODEL 7
REMARK VINA RESULT:    -6.695      4.096      9.484
REMARK INTER + INTRA:         -11.232
REMARK INTER:                  -9.189
REMARK INTRA:                  -2.043
REMARK UNBOUND:                -1.407
REMARK  Name = 
REMARK  9 active torsions:
REMARK  status: ('A' for Active; 'I' for Inactive)
REMARK    1  A    between atoms: C_1  and  O_2
REMARK    2  A    between atoms: O_2  and  C_3
REMARK    3  A    between atoms: C_8  and  C_9
REMARK    4  A    between atoms: C_9  and  N_10
REMARK    5  A    between atoms: N_10  and  C_11
REMARK    6  A    between atoms: C_11  and  C_12
REMARK    7  A    between atoms: C_15  and  C_16
REMARK    8  A    between atoms: C_16  and  N_17
REMARK    9  A    between atoms: C_18  and  C_20
REMARK                            x       y       z     vdW  Elec       q    Type
REMARK                         _______ _______ _______ _____ _____    ______ ____
ROOT
ATOM      1  C   UNL     1      49.382   5.562  19.727  0.00  0.00    +0.000 A 
ATOM      2  C   UNL     1      50.077   4.630  18.940  0.00  0.00    +0.000 A 
ATOM      3  C   UNL     1      49.441   3.964  17.891  0.00  0.00    +0.000 A 
ATOM      4  C   UNL     1      48.091   4.204  17.610  0.00  0.00    +0.000 A 
ATOM      5  C   UNL     1      47.378   5.087  18.433  0.00  0.00    +0.000 A 
ATOM      6  C   UNL     1      48.018   5.765  19.475  0.00  0.00    +0.000 A 
ENDROOT
BRANCH   1   7
ATOM      7  C   UNL     1      50.099   6.333  20.816  0.00  0.00    +0.000 C 
BRANCH   7   8
ATOM      8  N   UNL     1      51.192   7.123  20.253  0.00  0.00    +0.000 NA
ATOM      9  H   UNL     1      51.967   7.149  20.912  0.00  0.00    +0.000 HD
BRANCH   8  10
ATOM     10  C   UNL     1      50.794   8.506  19.985  0.00  0.00    +0.000 C 
BRANCH  10  16
ATOM     11  C   UNL     1      50.479   8.155  17.463  0.00  0.00    +0.000 A 
ATOM     12  C   UNL     1      49.704   8.336  16.309  0.00  0.00    +0.000 A 
ATOM     13  C   UNL     1      48.445   8.938  16.382  0.00  0.00    +0.000 A 
ATOM     14  C   UNL     1      47.943   9.357  17.607  0.00  0.00    +0.000 A 
ATOM     15  C   UNL     1      48.709   9.192  18.758  0.00  0.00    +0.000 A 
ATOM     16  C   UNL     1      49.985   8.598  18.705  0.00  0.00    +0.000 A 
BRANCH  11  18
ATOM     17  C   UNL     1      51.963   6.592  16.438  0.00  0.00    +0.000 C 
ATOM     18  O   UNL     1      51.699   7.528  17.477  0.00  0.00    +0.000 OA
ENDBRANCH  11  18
ENDBRANCH  10  16
ENDBRANCH   8  10
ENDBRANCH   7   8
ENDBRANCH   1   7
BRANCH   4  19
ATOM     19  C   UNL     1      47.409   3.503  16.467  0.00  0.00    +0.000 C 
BRANCH  19  20
ATOM     20  N   UNL     1      46.799   4.449  15.568  0.00  0.00    +0.000 N 
ATOM     21  C   UNL     1      46.730   4.203  14.222  0.00  0.00    +0.000 C 
ATOM     22  O   UNL     1      47.138   3.154  13.731  0.00  0.00    +0.000 OA
ATOM     23  H   UNL     1      46.661   5.391  15.916  0.00  0.00    +0.000 HD
BRANCH  21  24
ATOM     24  C   UNL     1      46.082   5.231  13.399  0.00  0.00    +0.000 A 
ATOM     25  C   UNL     1      46.746   6.425  13.148  0.00  0.00    +0.000 A 
ATOM     26  S   UNL     1      45.884   7.487  12.130  0.00  0.00    +0.000 S 
ATOM     27  C   UNL     1      44.570   6.411  12.032  0.00  0.00    +0.000 A 
ATOM     28  N   UNL     1      43.459   6.730  11.312  0.00  0.00    +0.000 NA
ATOM     29  C   UNL     1      42.529   5.837  11.348  0.00  0.00    +0.000 A 
ATOM     30  N   UNL     1      42.606   4.649  12.031  0.00  0.00    +0.000 N 
ATOM     31  C   UNL     1      43.715   4.277  12.752  0.00  0.00    +0.000 A 
ATOM     32  O   UNL     1      43.765   3.195  13.328  0.00  0.00    +0.000 OA
ATOM     33  C   UNL     1      44.791   5.250  12.752  0.00  0.00    +0.000 A 
ATOM     34  H   UNL     1      41.841   3.991  12.015  0.00  0.00    +0.000 HD
ENDBRANCH  21  24
ENDBRANCH  19  20
ENDBRANCH   4  19
TORSDOF 8
ENDMDL
MODEL 8
REMARK VINA RESULT:    -6.515      3.645      8.704
REMARK INTER + INTRA:         -10.969
REMARK INTER:                  -9.303
REMARK INTRA:                  -1.666
REMARK UNBOUND:                -1.407
REMARK  Name = 
REMARK  9 active torsions:
REMARK  status: ('A' for Active; 'I' for Inactive)
REMARK    1  A    between atoms: C_1  and  O_2
REMARK    2  A    between atoms: O_2  and  C_3
REMARK    3  A    between atoms: C_8  and  C_9
REMARK    4  A    between atoms: C_9  and  N_10
REMARK    5  A    between atoms: N_10  and  C_11
REMARK    6  A    between atoms: C_11  and  C_12
REMARK    7  A    between atoms: C_15  and  C_16
REMARK    8  A    between atoms: C_16  and  N_17
REMARK    9  A    between atoms: C_18  and  C_20
REMARK                            x       y       z     vdW  Elec       q    Type
REMARK                         _______ _______ _______ _____ _____    ______ ____
ROOT
ATOM      1  C   UNL     1      49.494   7.545  16.244  0.00  0.00    +0.000 A 
ATOM      2  C   UNL     1      48.482   8.508  16.105  0.00  0.00    +0.000 A 
ATOM      3  C   UNL     1      47.952   8.812  14.850  0.00  0.00    +0.000 A 
ATOM      4  C   UNL     1      48.428   8.169  13.702  0.00  0.00    +0.000 A 
ATOM      5  C   UNL     1      49.481   7.252  13.830  0.00  0.00    +0.000 A 
ATOM      6  C   UNL     1      50.003   6.938  15.088  0.00  0.00    +0.000 A 
ENDROOT
BRANCH   1   7
ATOM      7  C   UNL     1      50.011   7.169  17.617  0.00  0.00    +0.000 C 
BRANCH   7   8
ATOM      8  N   UNL     1      48.946   6.578  18.425  0.00  0.00    +0.000 NA
ATOM      9  H   UNL     1      48.541   7.291  19.028  0.00  0.00    +0.000 HD
BRANCH   8  10
ATOM     10  C   UNL     1      49.438   5.500  19.285  0.00  0.00    +0.000 C 
BRANCH  10  16
ATOM     11  C   UNL     1      48.985   3.561  17.667  0.00  0.00    +0.000 A 
ATOM     12  C   UNL     1      49.451   2.428  16.984  0.00  0.00    +0.000 A 
ATOM     13  C   UNL     1      50.790   2.042  17.072  0.00  0.00    +0.000 A 
ATOM     14  C   UNL     1      51.682   2.786  17.832  0.00  0.00    +0.000 A 
ATOM     15  C   UNL     1      51.229   3.908  18.523  0.00  0.00    +0.000 A 
ATOM     16  C   UNL     1      49.880   4.307  18.457  0.00  0.00    +0.000 A 
BRANCH  11  18
ATOM     17  C   UNL     1      47.155   4.226  16.288  0.00  0.00    +0.000 C 
ATOM     18  O   UNL     1      47.699   4.029  17.588  0.00  0.00    +0.000 OA
ENDBRANCH  11  18
ENDBRANCH  10  16
ENDBRANCH   8  10
ENDBRANCH   7   8
ENDBRANCH   1   7
BRANCH   4  19
ATOM     19  C   UNL     1      47.844   8.480  12.350  0.00  0.00    +0.000 C 
BRANCH  19  20
ATOM     20  N   UNL     1      47.294   7.298  11.738  0.00  0.00    +0.000 N 
ATOM     21  C   UNL     1      45.942   7.152  11.568  0.00  0.00    +0.000 C 
ATOM     22  O   UNL     1      45.149   8.034  11.884  0.00  0.00    +0.000 OA
ATOM     23  H   UNL     1      47.901   6.488  11.676  0.00  0.00    +0.000 HD
BRANCH  21  24
ATOM     24  C   UNL     1      45.491   5.910  10.928  0.00  0.00    +0.000 A 
ATOM     25  C   UNL     1      45.787   5.683   9.591  0.00  0.00    +0.000 A 
ATOM     26  S   UNL     1      45.245   4.172   9.017  0.00  0.00    +0.000 S 
ATOM     27  C   UNL     1      44.547   3.791  10.521  0.00  0.00    +0.000 A 
ATOM     28  N   UNL     1      43.887   2.615  10.706  0.00  0.00    +0.000 NA
ATOM     29  C   UNL     1      43.383   2.469  11.886  0.00  0.00    +0.000 A 
ATOM     30  N   UNL     1      43.483   3.387  12.902  0.00  0.00    +0.000 N 
ATOM     31  C   UNL     1      44.160   4.575  12.766  0.00  0.00    +0.000 A 
ATOM     32  O   UNL     1      44.257   5.361  13.703  0.00  0.00    +0.000 OA
ATOM     33  C   UNL     1      44.740   4.795  11.455  0.00  0.00    +0.000 A 
ATOM     34  H   UNL     1      43.068   3.208  13.804  0.00  0.00    +0.000 HD
ENDBRANCH  21  24
ENDBRANCH  19  20
ENDBRANCH   4  19
TORSDOF 8
ENDMDL
MODEL 9
REMARK VINA RESULT:    -6.418      1.946      3.034
REMARK INTER + INTRA:         -10.826
REMARK INTER:                  -9.753
REMARK INTRA:                  -1.073
REMARK UNBOUND:                -1.407
REMARK  Name = 
REMARK  9 active torsions:
REMARK  status: ('A' for Active; 'I' for Inactive)
REMARK    1  A    between atoms: C_1  and  O_2
REMARK    2  A    between atoms: O_2  and  C_3
REMARK    3  A    between atoms: C_8  and  C_9
REMARK    4  A    between atoms: C_9  and  N_10
REMARK    5  A    between atoms: N_10  and  C_11
REMARK    6  A    between atoms: C_11  and  C_12
REMARK    7  A    between atoms: C_15  and  C_16
REMARK    8  A    between atoms: C_16  and  N_17
REMARK    9  A    between atoms: C_18  and  C_20
REMARK                            x       y       z     vdW  Elec       q    Type
REMARK                         _______ _______ _______ _____ _____    ______ ____
ROOT
ATOM      1  C   UNL     1      46.115   7.683  12.232  0.00  0.00    +0.000 A 
ATOM      2  C   UNL     1      47.052   6.642  12.141  0.00  0.00    +0.000 A 
ATOM      3  C   UNL     1      48.315   6.764  12.724  0.00  0.00    +0.000 A 
ATOM      4  C   UNL     1      48.675   7.935  13.401  0.00  0.00    +0.000 A 
ATOM      5  C   UNL     1      47.764   8.999  13.440  0.00  0.00    +0.000 A 
ATOM      6  C   UNL     1      46.494   8.872  12.868  0.00  0.00    +0.000 A 
ENDROOT
BRANCH   1   7
ATOM      7  C   UNL     1      44.722   7.512  11.659  0.00  0.00    +0.000 C 
BRANCH   7   8
ATOM      8  N   UNL     1      44.753   6.655  10.476  0.00  0.00    +0.000 NA
ATOM      9  H   UNL     1      44.378   7.164   9.678  0.00  0.00    +0.000 HD
BRANCH   8  10
ATOM     10  C   UNL     1      43.946   5.446  10.647  0.00  0.00    +0.000 C 
BRANCH  10  16
ATOM     11  C   UNL     1      44.174   2.957  10.068  0.00  0.00    +0.000 A 
ATOM     12  C   UNL     1      44.779   1.949   9.304  0.00  0.00    +0.000 A 
ATOM     13  C   UNL     1      45.688   2.267   8.292  0.00  0.00    +0.000 A 
ATOM     14  C   UNL     1      45.996   3.595   8.025  0.00  0.00    +0.000 A 
ATOM     15  C   UNL     1      45.409   4.605   8.784  0.00  0.00    +0.000 A 
ATOM     16  C   UNL     1      44.499   4.304   9.816  0.00  0.00    +0.000 A 
BRANCH  11  18
ATOM     17  C   UNL     1      43.691   2.693  12.389  0.00  0.00    +0.000 C 
ATOM     18  O   UNL     1      43.237   2.724  11.041  0.00  0.00    +0.000 OA
ENDBRANCH  11  18
ENDBRANCH  10  16
ENDBRANCH   8  10
ENDBRANCH   7   8
ENDBRANCH   1   7
BRANCH   4  19
ATOM     19  C   UNL     1      50.027   8.061  14.048  0.00  0.00    +0.000 C 
BRANCH  19  20
ATOM     20  N   UNL     1      50.095   7.292  15.264  0.00  0.00    +0.000 N 
ATOM     21  C   UNL     1      49.673   7.815  16.458  0.00  0.00    +0.000 C 
ATOM     22  O   UNL     1      49.179   8.937  16.538  0.00  0.00    +0.000 OA
ATOM     23  H   UNL     1      50.688   6.469  15.255  0.00  0.00    +0.000 HD
BRANCH  21  24
ATOM     24  C   UNL     1      49.781   6.942  17.633  0.00  0.00    +0.000 A 
ATOM     25  C   UNL     1      50.506   7.368  18.738  0.00  0.00    +0.000 A 
ATOM     26  S   UNL     1      50.485   6.265  20.037  0.00  0.00    +0.000 S 
ATOM     27  C   UNL     1      49.553   5.154  19.149  0.00  0.00    +0.000 A 
ATOM     28  N   UNL     1      49.193   3.957  19.688  0.00  0.00    +0.000 NA
ATOM     29  C   UNL     1      48.512   3.201  18.894  0.00  0.00    +0.000 A 
ATOM     30  N   UNL     1      48.150   3.531  17.612  0.00  0.00    +0.000 N 
ATOM     31  C   UNL     1      48.472   4.737  17.037  0.00  0.00    +0.000 A 
ATOM     32  O   UNL     1      48.107   5.015  15.899  0.00  0.00    +0.000 OA
ATOM     33  C   UNL     1      49.246   5.625  17.884  0.00  0.00    +0.000 A 
ATOM     34  H   UNL     1      47.612   2.893  17.045  0.00  0.00    +0.000 HD
ENDBRANCH  21  24
ENDBRANCH  19  20
ENDBRANCH   4  19
TORSDOF 8
ENDMDL
