MODEL 1
REMARK VINA RESULT:    -8.453      0.000      0.000
REMARK INTER + INTRA:         -12.581
REMARK INTER:                 -11.418
REMARK INTRA:                  -1.163
REMARK UNBOUND:                -1.163
REMARK  Name = 
REMARK  7 active torsions:
REMARK  status: ('A' for Active; 'I' for Inactive)
REMARK    1  A    between atoms: C_1  and  C_2
REMARK    2  A    between atoms: C_2  and  C_3
REMARK    3  A    between atoms: C_2  and  C_14
REMARK    4  A    between atoms: C_3  and  O_4
REMARK    5  A    between atoms: O_4  and  C_5
REMARK    6  A    between atoms: C_8  and  C_9
REMARK    7  A    between atoms: C_18  and  C_19
REMARK                            x       y       z     vdW  Elec       q    Type
REMARK                         _______ _______ _______ _____ _____    ______ ____
ROOT
ATOM      1  C   UNL     1      43.219   4.217  12.926  0.00  0.00    +0.000 C 
ATOM      2  C   UNL     1      43.776   5.418  12.156  0.00  0.00    +0.000 C 
ENDROOT
BRANCH   2   3
ATOM      3  C   UNL     1      45.232   5.665  12.518  0.00  0.00    +0.000 A 
ATOM      4  C   UNL     1      46.023   6.483  11.704  0.00  0.00    +0.000 A 
ATOM      5  C   UNL     1      47.354   6.726  12.032  0.00  0.00    +0.000 A 
ATOM      6  C   UNL     1      47.906   6.164  13.187  0.00  0.00    +0.000 A 
ATOM      7  C   UNL     1      47.141   5.361  14.048  0.00  0.00    +0.000 A 
ATOM      8  C   UNL     1      45.807   5.108  13.676  0.00  0.00    +0.000 A 
BRANCH   7   9
ATOM      9  C   UNL     1      47.678   4.863  15.336  0.00  0.00    +0.000 A 
ATOM     10  C   UNL     1      48.481   5.684  16.151  0.00  0.00    +0.000 A 
ATOM     11  C   UNL     1      48.914   5.267  17.412  0.00  0.00    +0.000 A 
ATOM     12  C   UNL     1      48.547   4.016  17.895  0.00  0.00    +0.000 A 
ATOM     13  C   UNL     1      47.771   3.173  17.106  0.00  0.00    +0.000 A 
ATOM     14  C   UNL     1      47.352   3.589  15.837  0.00  0.00    +0.000 A 
ENDBRANCH   7   9
ENDBRANCH   2   3
BRANCH   2  15
ATOM     15  C   UNL     1      43.573   5.231  10.641  0.00  0.00    +0.000 C 
BRANCH  15  16
ATOM     16  O   UNL     1      43.554   3.831  10.342  0.00  0.00    +0.000 OA
BRANCH  16  17
ATOM     17  C   UNL     1      44.502   3.368   9.477  0.00  0.00    +0.000 A 
ATOM     18  C   UNL     1      44.944   2.055   9.363  0.00  0.00    +0.000 A 
ATOM     19  C   UNL     1      45.898   1.731   8.396  0.00  0.00    +0.000 A 
ATOM     20  C   UNL     1      46.378   2.745   7.577  0.00  0.00    +0.000 A 
ATOM     21  N   UNL     1      45.986   4.046   7.670  0.00  0.00    +0.000 NA
ATOM     22  C   UNL     1      45.060   4.315   8.622  0.00  0.00    +0.000 A 
BRANCH  20  23
ATOM     23  C   UNL     1      47.374   2.420   6.507  0.00  0.00    +0.000 C 
ATOM     24  N   UNL     1      47.334   3.226   5.405  0.00  0.00    +0.000 N 
ATOM     25  O   UNL     1      48.164   1.488   6.601  0.00  0.00    +0.000 OA
ATOM     26  H   UNL     1      46.650   3.974   5.361  0.00  0.00    +0.000 HD
ATOM     27  H   UNL     1      47.955   3.047   4.631  0.00  0.00    +0.000 HD
ENDBRANCH  20  23
ENDBRANCH  16  17
ENDBRANCH  15  16
ENDBRANCH   2  15
TORSDOF 6
ENDMDL
MODEL 2
REMARK VINA RESULT:    -8.262      1.718      3.658
REMARK INTER + INTRA:         -12.323
REMARK INTER:                 -11.154
REMARK INTRA:                  -1.169
REMARK UNBOUND:                -1.163
REMARK  Name = 
REMARK  7 active torsions:
REMARK  status: ('A' for Active; 'I' for Inactive)
REMARK    1  A    between atoms: C_1  and  C_2
REMARK    2  A    between atoms: C_2  and  C_3
REMARK    3  A    between atoms: C_2  and  C_14
REMARK    4  A    between atoms: C_3  and  O_4
REMARK    5  A    between atoms: O_4  and  C_5
REMARK    6  A    between atoms: C_8  and  C_9
REMARK    7  A    between atoms: C_18  and  C_19
REMARK                            x       y       z     vdW  Elec       q    Type
REMARK                         _______ _______ _______ _____ _____    ______ ____
ROOT
ATOM      1  C   UNL     1      42.856   4.705  12.906  0.00  0.00    +0.000 C 
ATOM      2  C   UNL     1      43.662   5.682  12.046  0.00  0.00    +0.000 C 
ENDROOT
BRANCH   2   3
ATOM      3  C   UNL     1      45.102   5.764  12.525  0.00  0.00    +0.000 A 
ATOM      4  C   UNL     1      45.660   4.698  13.240  0.00  0.00    +0.000 A 
ATOM      5  C   UNL     1      46.982   4.757  13.674  0.00  0.00    +0.000 A 
ATOM      6  C   UNL     1      47.767   5.876  13.383  0.00  0.00    +0.000 A 
ATOM      7  C   UNL     1      47.258   6.955  12.643  0.00  0.00    +0.000 A 
ATOM      8  C   UNL     1      45.909   6.882  12.244  0.00  0.00    +0.000 A 
BRANCH   7   9
ATOM      9  C   UNL     1      48.114   8.090  12.223  0.00  0.00    +0.000 A 
ATOM     10  C   UNL     1      49.462   7.886  11.872  0.00  0.00    +0.000 A 
ATOM     11  C   UNL     1      50.256   8.925  11.380  0.00  0.00    +0.000 A 
ATOM     12  C   UNL     1      49.718  10.197  11.220  0.00  0.00    +0.000 A 
ATOM     13  C   UNL     1      48.395  10.435  11.578  0.00  0.00    +0.000 A 
ATOM     14  C   UNL     1      47.607   9.395  12.084  0.00  0.00    +0.000 A 
ENDBRANCH   7   9
ENDBRANCH   2   3
BRANCH   2  15
ATOM     15  C   UNL     1      43.562   5.301  10.557  0.00  0.00    +0.000 C 
BRANCH  15  16
ATOM     16  O   UNL     1      43.673   3.880  10.431  0.00  0.00    +0.000 OA
BRANCH  16  17
ATOM     17  C   UNL     1      44.590   3.406   9.538  0.00  0.00    +0.000 A 
ATOM     18  C   UNL     1      44.980   2.080   9.380  0.00  0.00    +0.000 A 
ATOM     19  C   UNL     1      45.907   1.748   8.391  0.00  0.00    +0.000 A 
ATOM     20  C   UNL     1      46.414   2.766   7.593  0.00  0.00    +0.000 A 
ATOM     21  N   UNL     1      46.074   4.077   7.728  0.00  0.00    +0.000 NA
ATOM     22  C   UNL     1      45.173   4.355   8.702  0.00  0.00    +0.000 A 
BRANCH  20  23
ATOM     23  C   UNL     1      47.382   2.434   6.499  0.00  0.00    +0.000 C 
ATOM     24  N   UNL     1      47.337   3.255   5.409  0.00  0.00    +0.000 N 
ATOM     25  O   UNL     1      48.153   1.484   6.566  0.00  0.00    +0.000 OA
ATOM     26  H   UNL     1      46.669   4.019   5.388  0.00  0.00    +0.000 HD
ATOM     27  H   UNL     1      47.938   3.074   4.620  0.00  0.00    +0.000 HD
ENDBRANCH  20  23
ENDBRANCH  16  17
ENDBRANCH  15  16
ENDBRANCH   2  15
TORSDOF 6
ENDMDL
MODEL 3
REMARK VINA RESULT:    -7.526      3.790      7.657
REMARK INTER + INTRA:         -11.329
REMARK INTER:                 -10.742
REMARK INTRA:                  -0.587
REMARK UNBOUND:                -1.163
REMARK  Name = 
REMARK  7 active torsions:
REMARK  status: ('A' for Active; 'I' for Inactive)
REMARK    1  A    between atoms: C_1  and  C_2
REMARK    2  A    between atoms: C_2  and  C_3
REMARK    3  A    between atoms: C_2  and  C_14
REMARK    4  A    between atoms: C_3  and  O_4
REMARK    5  A    between atoms: O_4  and  C_5
REMARK    6  A    between atoms: C_8  and  C_9
REMARK    7  A    between atoms: C_18  and  C_19
REMARK                            x       y       z     vdW  Elec       q    Type
REMARK                         _______ _______ _______ _____ _____    ______ ____
ROOT
ATOM      1  C   UNL     1      45.511   8.784  12.079  0.00  0.00    +0.000 C 
ATOM      2  C   UNL     1      46.010   7.363  12.358  0.00  0.00    +0.000 C 
ENDROOT
BRANCH   2   3
ATOM      3  C   UNL     1      45.147   6.336  11.643  0.00  0.00    +0.000 A 
ATOM      4  C   UNL     1      43.767   6.303  11.875  0.00  0.00    +0.000 A 
ATOM      5  C   UNL     1      42.965   5.375  11.217  0.00  0.00    +0.000 A 
ATOM      6  C   UNL     1      43.531   4.479  10.306  0.00  0.00    +0.000 A 
ATOM      7  C   UNL     1      44.906   4.496  10.021  0.00  0.00    +0.000 A 
ATOM      8  C   UNL     1      45.697   5.425  10.723  0.00  0.00    +0.000 A 
BRANCH   7   9
ATOM      9  C   UNL     1      45.497   3.636   8.968  0.00  0.00    +0.000 A 
ATOM     10  C   UNL     1      46.153   4.201   7.857  0.00  0.00    +0.000 A 
ATOM     11  C   UNL     1      46.801   3.408   6.907  0.00  0.00    +0.000 A 
ATOM     12  C   UNL     1      46.815   2.025   7.049  0.00  0.00    +0.000 A 
ATOM     13  C   UNL     1      46.159   1.435   8.124  0.00  0.00    +0.000 A 
ATOM     14  C   UNL     1      45.499   2.233   9.066  0.00  0.00    +0.000 A 
ENDBRANCH   7   9
ENDBRANCH   2   3
BRANCH   2  15
ATOM     15  C   UNL     1      47.500   7.232  11.991  0.00  0.00    +0.000 C 
BRANCH  15  16
ATOM     16  O   UNL     1      48.281   7.272  13.190  0.00  0.00    +0.000 OA
BRANCH  16  17
ATOM     17  C   UNL     1      48.000   6.339  14.146  0.00  0.00    +0.000 A 
ATOM     18  C   UNL     1      47.217   5.201  13.982  0.00  0.00    +0.000 A 
ATOM     19  C   UNL     1      47.054   4.318  15.051  0.00  0.00    +0.000 A 
ATOM     20  C   UNL     1      47.684   4.613  16.253  0.00  0.00    +0.000 A 
ATOM     21  N   UNL     1      48.442   5.726  16.460  0.00  0.00    +0.000 NA
ATOM     22  C   UNL     1      48.571   6.556  15.396  0.00  0.00    +0.000 A 
BRANCH  20  23
ATOM     23  C   UNL     1      47.558   3.665  17.406  0.00  0.00    +0.000 C 
ATOM     24  N   UNL     1      48.484   3.822  18.397  0.00  0.00    +0.000 N 
ATOM     25  O   UNL     1      46.694   2.798  17.455  0.00  0.00    +0.000 OA
ATOM     26  H   UNL     1      49.194   4.541  18.305  0.00  0.00    +0.000 HD
ATOM     27  H   UNL     1      48.479   3.198  19.190  0.00  0.00    +0.000 HD
ENDBRANCH  20  23
ENDBRANCH  16  17
ENDBRANCH  15  16
ENDBRANCH   2  15
TORSDOF 6
ENDMDL
MODEL 4
REMARK VINA RESULT:    -7.424      4.189      8.281
REMARK INTER + INTRA:         -11.191
REMARK INTER:                 -10.363
REMARK INTRA:                  -0.828
REMARK UNBOUND:                -1.163
REMARK  Name = 
REMARK  7 active torsions:
REMARK  status: ('A' for Active; 'I' for Inactive)
REMARK    1  A    between atoms: C_1  and  C_2
REMARK    2  A    between atoms: C_2  and  C_3
REMARK    3  A    between atoms: C_2  and  C_14
REMARK    4  A    between atoms: C_3  and  O_4
REMARK    5  A    between atoms: O_4  and  C_5
REMARK    6  A    between atoms: C_8  and  C_9
REMARK    7  A    between atoms: C_18  and  C_19
REMARK                            x       y       z     vdW  Elec       q    Type
REMARK                         _______ _______ _______ _____ _____    ______ ____
ROOT
ATOM      1  C   UNL     1      45.445   6.895  12.050  0.00  0.00    +0.000 C 
ATOM      2  C   UNL     1      45.321   5.626  12.898  0.00  0.00    +0.000 C 
ENDROOT
BRANCH   2   3
ATOM      3  C   UNL     1      44.834   4.458  12.056  0.00  0.00    +0.000 A 
ATOM      4  C   UNL     1      43.699   3.741  12.450  0.00  0.00    +0.000 A 
ATOM      5  C   UNL     1      43.236   2.677  11.680  0.00  0.00    +0.000 A 
ATOM      6  C   UNL     1      43.894   2.328  10.497  0.00  0.00    +0.000 A 
ATOM      7  C   UNL     1      45.019   3.039  10.048  0.00  0.00    +0.000 A 
ATOM      8  C   UNL     1      45.483   4.090  10.863  0.00  0.00    +0.000 A 
BRANCH   7   9
ATOM      9  C   UNL     1      45.650   2.759   8.737  0.00  0.00    +0.000 A 
ATOM     10  C   UNL     1      45.845   3.786   7.794  0.00  0.00    +0.000 A 
ATOM     11  C   UNL     1      46.525   3.561   6.595  0.00  0.00    +0.000 A 
ATOM     12  C   UNL     1      47.036   2.300   6.311  0.00  0.00    +0.000 A 
ATOM     13  C   UNL     1      46.843   1.259   7.213  0.00  0.00    +0.000 A 
ATOM     14  C   UNL     1      46.148   1.485   8.406  0.00  0.00    +0.000 A 
ENDBRANCH   7   9
ENDBRANCH   2   3
BRANCH   2  15
ATOM     15  C   UNL     1      46.652   5.318  13.610  0.00  0.00    +0.000 C 
BRANCH  15  16
ATOM     16  O   UNL     1      46.397   4.453  14.722  0.00  0.00    +0.000 OA
BRANCH  16  17
ATOM     17  C   UNL     1      47.402   4.301  15.633  0.00  0.00    +0.000 A 
ATOM     18  C   UNL     1      47.700   3.146  16.347  0.00  0.00    +0.000 A 
ATOM     19  C   UNL     1      48.791   3.138  17.219  0.00  0.00    +0.000 A 
ATOM     20  C   UNL     1      49.545   4.298  17.343  0.00  0.00    +0.000 A 
ATOM     21  N   UNL     1      49.274   5.455  16.677  0.00  0.00    +0.000 NA
ATOM     22  C   UNL     1      48.206   5.418  15.844  0.00  0.00    +0.000 A 
BRANCH  20  23
ATOM     23  C   UNL     1      50.743   4.307  18.242  0.00  0.00    +0.000 C 
ATOM     24  N   UNL     1      50.472   4.373  19.579  0.00  0.00    +0.000 N 
ATOM     25  O   UNL     1      51.890   4.274  17.813  0.00  0.00    +0.000 OA
ATOM     26  H   UNL     1      49.506   4.419  19.889  0.00  0.00    +0.000 HD
ATOM     27  H   UNL     1      51.230   4.415  20.243  0.00  0.00    +0.000 HD
ENDBRANCH  20  23
ENDBRANCH  16  17
ENDBRANCH  15  16
ENDBRANCH   2  15
TORSDOF 6
ENDMDL
MODEL 5
REMARK VINA RESULT:    -6.843      3.948      7.687
REMARK INTER + INTRA:         -10.407
REMARK INTER:                  -9.503
REMARK INTRA:                  -0.904
REMARK UNBOUND:                -1.163
REMARK  Name = 
REMARK  7 active torsions:
REMARK  status: ('A' for Active; 'I' for Inactive)
REMARK    1  A    between atoms: C_1  and  C_2
REMARK    2  A    between atoms: C_2  and  C_3
REMARK    3  A    between atoms: C_2  and  C_14
REMARK    4  A    between atoms: C_3  and  O_4
REMARK    5  A    between atoms: O_4  and  C_5
REMARK    6  A    between atoms: C_8  and  C_9
REMARK    7  A    between atoms: C_18  and  C_19
REMARK                            x       y       z     vdW  Elec       q    Type
REMARK                         _______ _______ _______ _____ _____    ______ ____
ROOT
ATOM      1  C   UNL     1      44.229   7.332  11.350  0.00  0.00    +0.000 C 
ATOM      2  C   UNL     1      44.594   6.239  12.360  0.00  0.00    +0.000 C 
ENDROOT
BRANCH   2   3
ATOM      3  C   UNL     1      44.411   4.858  11.750  0.00  0.00    +0.000 A 
ATOM      4  C   UNL     1      43.507   3.958  12.324  0.00  0.00    +0.000 A 
ATOM      5  C   UNL     1      43.323   2.694  11.768  0.00  0.00    +0.000 A 
ATOM      6  C   UNL     1      44.031   2.323  10.621  0.00  0.00    +0.000 A 
ATOM      7  C   UNL     1      44.926   3.205   9.995  0.00  0.00    +0.000 A 
ATOM      8  C   UNL     1      45.114   4.464  10.597  0.00  0.00    +0.000 A 
BRANCH   7   9
ATOM      9  C   UNL     1      45.587   2.870   8.712  0.00  0.00    +0.000 A 
ATOM     10  C   UNL     1      45.828   3.861   7.742  0.00  0.00    +0.000 A 
ATOM     11  C   UNL     1      46.537   3.584   6.570  0.00  0.00    +0.000 A 
ATOM     12  C   UNL     1      47.029   2.304   6.342  0.00  0.00    +0.000 A 
ATOM     13  C   UNL     1      46.789   1.297   7.271  0.00  0.00    +0.000 A 
ATOM     14  C   UNL     1      46.067   1.576   8.436  0.00  0.00    +0.000 A 
ENDBRANCH   7   9
ENDBRANCH   2   3
BRANCH   2  15
ATOM     15  C   UNL     1      46.019   6.456  12.901  0.00  0.00    +0.000 C 
BRANCH  15  16
ATOM     16  O   UNL     1      46.790   7.156  11.918  0.00  0.00    +0.000 OA
BRANCH  16  17
ATOM     17  C   UNL     1      48.037   7.569  12.286  0.00  0.00    +0.000 A 
ATOM     18  C   UNL     1      48.746   8.636  11.747  0.00  0.00    +0.000 A 
ATOM     19  C   UNL     1      50.004   8.958  12.261  0.00  0.00    +0.000 A 
ATOM     20  C   UNL     1      50.508   8.189  13.302  0.00  0.00    +0.000 A 
ATOM     21  N   UNL     1      49.855   7.123  13.844  0.00  0.00    +0.000 NA
ATOM     22  C   UNL     1      48.639   6.846  13.313  0.00  0.00    +0.000 A 
BRANCH  20  23
ATOM     23  C   UNL     1      51.838   8.533  13.898  0.00  0.00    +0.000 C 
ATOM     24  N   UNL     1      52.326   7.633  14.801  0.00  0.00    +0.000 N 
ATOM     25  O   UNL     1      52.444   9.558  13.610  0.00  0.00    +0.000 OA
ATOM     26  H   UNL     1      51.780   6.807  15.024  0.00  0.00    +0.000 HD
ATOM     27  H   UNL     1      53.202   7.814  15.267  0.00  0.00    +0.000 HD
ENDBRANCH  20  23
ENDBRANCH  16  17
ENDBRANCH  15  16
ENDBRANCH   2  15
TORSDOF 6
ENDMDL
MODEL 6
REMARK VINA RESULT:    -6.447      3.245      5.934
REMARK INTER + INTRA:          -9.872
REMARK INTER:                  -8.873
REMARK INTRA:                  -0.999
REMARK UNBOUND:                -1.163
REMARK  Name = 
REMARK  7 active torsions:
REMARK  status: ('A' for Active; 'I' for Inactive)
REMARK    1  A    between atoms: C_1  and  C_2
REMARK    2  A    between atoms: C_2  and  C_3
REMARK    3  A    between atoms: C_2  and  C_14
REMARK    4  A    between atoms: C_3  and  O_4
REMARK    5  A    between atoms: O_4  and  C_5
REMARK    6  A    between atoms: C_8  and  C_9
REMARK    7  A    between atoms: C_18  and  C_19
REMARK                            x       y       z     vdW  Elec       q    Type
REMARK                         _______ _______ _______ _____ _____    ______ ____
ROOT
ATOM      1  C   UNL     1      49.095   8.334  16.797  0.00  0.00    +0.000 C 
ATOM      2  C   UNL     1      49.198   7.118  15.872  0.00  0.00    +0.000 C 
ENDROOT
BRANCH   2   3
ATOM      3  C   UNL     1      49.090   5.825  16.664  0.00  0.00    +0.000 A 
ATOM      4  C   UNL     1      47.835   5.358  17.068  0.00  0.00    +0.000 A 
ATOM      5  C   UNL     1      47.723   4.169  17.784  0.00  0.00    +0.000 A 
ATOM      6  C   UNL     1      48.866   3.424  18.091  0.00  0.00    +0.000 A 
ATOM      7  C   UNL     1      50.142   3.840  17.680  0.00  0.00    +0.000 A 
ATOM      8  C   UNL     1      50.228   5.061  16.984  0.00  0.00    +0.000 A 
BRANCH   7   9
ATOM      9  C   UNL     1      51.345   2.999  17.890  0.00  0.00    +0.000 A 
ATOM     10  C   UNL     1      51.395   1.677  17.410  0.00  0.00    +0.000 A 
ATOM     11  C   UNL     1      52.554   0.904  17.512  0.00  0.00    +0.000 A 
ATOM     12  C   UNL     1      53.698   1.438  18.094  0.00  0.00    +0.000 A 
ATOM     13  C   UNL     1      53.674   2.735  18.597  0.00  0.00    +0.000 A 
ATOM     14  C   UNL     1      52.506   3.501  18.506  0.00  0.00    +0.000 A 
ENDBRANCH   7   9
ENDBRANCH   2   3
BRANCH   2  15
ATOM     15  C   UNL     1      48.149   7.203  14.748  0.00  0.00    +0.000 C 
BRANCH  15  16
ATOM     16  O   UNL     1      48.400   6.164  13.795  0.00  0.00    +0.000 OA
BRANCH  16  17
ATOM     17  C   UNL     1      47.312   5.576  13.218  0.00  0.00    +0.000 A 
ATOM     18  C   UNL     1      46.558   6.089  12.168  0.00  0.00    +0.000 A 
ATOM     19  C   UNL     1      45.491   5.345  11.659  0.00  0.00    +0.000 A 
ATOM     20  C   UNL     1      45.217   4.108  12.229  0.00  0.00    +0.000 A 
ATOM     21  N   UNL     1      45.918   3.581  13.271  0.00  0.00    +0.000 NA
ATOM     22  C   UNL     1      46.944   4.337  13.734  0.00  0.00    +0.000 A 
BRANCH  20  23
ATOM     23  C   UNL     1      44.103   3.272  11.680  0.00  0.00    +0.000 C 
ATOM     24  N   UNL     1      43.598   2.334  12.535  0.00  0.00    +0.000 N 
ATOM     25  O   UNL     1      43.679   3.406  10.538  0.00  0.00    +0.000 OA
ATOM     26  H   UNL     1      43.994   2.246  13.466  0.00  0.00    +0.000 HD
ATOM     27  H   UNL     1      42.867   1.714  12.223  0.00  0.00    +0.000 HD
ENDBRANCH  20  23
ENDBRANCH  16  17
ENDBRANCH  15  16
ENDBRANCH   2  15
TORSDOF 6
ENDMDL
MODEL 7
REMARK VINA RESULT:    -6.292      2.985      4.932
REMARK INTER + INTRA:          -9.662
REMARK INTER:                  -8.128
REMARK INTRA:                  -1.534
REMARK UNBOUND:                -1.163
REMARK  Name = 
REMARK  7 active torsions:
REMARK  status: ('A' for Active; 'I' for Inactive)
REMARK    1  A    between atoms: C_1  and  C_2
REMARK    2  A    between atoms: C_2  and  C_3
REMARK    3  A    between atoms: C_2  and  C_14
REMARK    4  A    between atoms: C_3  and  O_4
REMARK    5  A    between atoms: O_4  and  C_5
REMARK    6  A    between atoms: C_8  and  C_9
REMARK    7  A    between atoms: C_18  and  C_19
REMARK                            x       y       z     vdW  Elec       q    Type
REMARK                         _______ _______ _______ _____ _____    ______ ____
ROOT
ATOM      1  C   UNL     1      49.020   9.959  12.449  0.00  0.00    +0.000 C 
ATOM      2  C   UNL     1      49.498   8.567  12.874  0.00  0.00    +0.000 C 
ENDROOT
BRANCH   2   3
ATOM      3  C   UNL     1      49.198   8.317  14.343  0.00  0.00    +0.000 A 
ATOM      4  C   UNL     1      48.898   9.393  15.186  0.00  0.00    +0.000 A 
ATOM      5  C   UNL     1      48.610   9.176  16.531  0.00  0.00    +0.000 A 
ATOM      6  C   UNL     1      48.603   7.876  17.045  0.00  0.00    +0.000 A 
ATOM      7  C   UNL     1      48.869   6.764  16.230  0.00  0.00    +0.000 A 
ATOM      8  C   UNL     1      49.187   7.017  14.881  0.00  0.00    +0.000 A 
BRANCH   7   9
ATOM      9  C   UNL     1      48.743   5.376  16.733  0.00  0.00    +0.000 A 
ATOM     10  C   UNL     1      49.826   4.736  17.367  0.00  0.00    +0.000 A 
ATOM     11  C   UNL     1      49.696   3.467  17.935  0.00  0.00    +0.000 A 
ATOM     12  C   UNL     1      48.474   2.805  17.889  0.00  0.00    +0.000 A 
ATOM     13  C   UNL     1      47.391   3.402  17.253  0.00  0.00    +0.000 A 
ATOM     14  C   UNL     1      47.529   4.668  16.672  0.00  0.00    +0.000 A 
ENDBRANCH   7   9
ENDBRANCH   2   3
BRANCH   2  15
ATOM     15  C   UNL     1      48.892   7.485  11.961  0.00  0.00    +0.000 C 
BRANCH  15  16
ATOM     16  O   UNL     1      47.489   7.731  11.815  0.00  0.00    +0.000 OA
BRANCH  16  17
ATOM     17  C   UNL     1      46.655   6.659  11.945  0.00  0.00    +0.000 A 
ATOM     18  C   UNL     1      46.350   5.990  13.125  0.00  0.00    +0.000 A 
ATOM     19  C   UNL     1      45.442   4.929  13.101  0.00  0.00    +0.000 A 
ATOM     20  C   UNL     1      44.874   4.575  11.883  0.00  0.00    +0.000 A 
ATOM     21  N   UNL     1      45.161   5.191  10.703  0.00  0.00    +0.000 NA
ATOM     22  C   UNL     1      46.048   6.214  10.774  0.00  0.00    +0.000 A 
BRANCH  20  23
ATOM     23  C   UNL     1      43.869   3.465  11.832  0.00  0.00    +0.000 C 
ATOM     24  N   UNL     1      44.155   2.380  12.611  0.00  0.00    +0.000 N 
ATOM     25  O   UNL     1      42.866   3.515  11.131  0.00  0.00    +0.000 OA
ATOM     26  H   UNL     1      45.008   2.374  13.161  0.00  0.00    +0.000 HD
ATOM     27  H   UNL     1      43.539   1.581  12.603  0.00  0.00    +0.000 HD
ENDBRANCH  20  23
ENDBRANCH  16  17
ENDBRANCH  15  16
ENDBRANCH   2  15
TORSDOF 6
ENDMDL
MODEL 8
REMARK VINA RESULT:    -6.131      3.581      6.315
REMARK INTER + INTRA:          -9.445
REMARK INTER:                  -8.514
REMARK INTRA:                  -0.931
REMARK UNBOUND:                -1.163
REMARK  Name = 
REMARK  7 active torsions:
REMARK  status: ('A' for Active; 'I' for Inactive)
REMARK    1  A    between atoms: C_1  and  C_2
REMARK    2  A    between atoms: C_2  and  C_3
REMARK    3  A    between atoms: C_2  and  C_14
REMARK    4  A    between atoms: C_3  and  O_4
REMARK    5  A    between atoms: O_4  and  C_5
REMARK    6  A    between atoms: C_8  and  C_9
REMARK    7  A    between atoms: C_18  and  C_19
REMARK                            x       y       z     vdW  Elec       q    Type
REMARK                         _______ _______ _______ _____ _____    ______ ____
ROOT
ATOM      1  C   UNL     1      50.371   8.351  15.574  0.00  0.00    +0.000 C 
ATOM      2  C   UNL     1      49.607   7.054  15.290  0.00  0.00    +0.000 C 
ENDROOT
BRANCH   2   3
ATOM      3  C   UNL     1      48.924   6.543  16.549  0.00  0.00    +0.000 A 
ATOM      4  C   UNL     1      48.747   5.168  16.736  0.00  0.00    +0.000 A 
ATOM      5  C   UNL     1      48.133   4.688  17.890  0.00  0.00    +0.000 A 
ATOM      6  C   UNL     1      47.703   5.578  18.878  0.00  0.00    +0.000 A 
ATOM      7  C   UNL     1      47.887   6.963  18.746  0.00  0.00    +0.000 A 
ATOM      8  C   UNL     1      48.483   7.423  17.555  0.00  0.00    +0.000 A 
BRANCH   7   9
ATOM      9  C   UNL     1      47.549   7.906  19.838  0.00  0.00    +0.000 A 
ATOM     10  C   UNL     1      47.122   9.218  19.556  0.00  0.00    +0.000 A 
ATOM     11  C   UNL     1      46.705  10.087  20.567  0.00  0.00    +0.000 A 
ATOM     12  C   UNL     1      46.699   9.662  21.891  0.00  0.00    +0.000 A 
ATOM     13  C   UNL     1      47.134   8.378  22.205  0.00  0.00    +0.000 A 
ATOM     14  C   UNL     1      47.564   7.516  21.190  0.00  0.00    +0.000 A 
ENDBRANCH   7   9
ENDBRANCH   2   3
BRANCH   2  15
ATOM     15  C   UNL     1      48.617   7.252  14.127  0.00  0.00    +0.000 C 
BRANCH  15  16
ATOM     16  O   UNL     1      48.379   5.989  13.497  0.00  0.00    +0.000 OA
BRANCH  16  17
ATOM     17  C   UNL     1      47.113   5.749  13.047  0.00  0.00    +0.000 A 
ATOM     18  C   UNL     1      46.514   6.318  11.929  0.00  0.00    +0.000 A 
ATOM     19  C   UNL     1      45.217   5.939  11.574  0.00  0.00    +0.000 A 
ATOM     20  C   UNL     1      44.565   5.000  12.364  0.00  0.00    +0.000 A 
ATOM     21  N   UNL     1      45.109   4.435  13.477  0.00  0.00    +0.000 NA
ATOM     22  C   UNL     1      46.368   4.833  13.784  0.00  0.00    +0.000 A 
BRANCH  20  23
ATOM     23  C   UNL     1      43.188   4.547  11.987  0.00  0.00    +0.000 C 
ATOM     24  N   UNL     1      43.053   3.207  11.764  0.00  0.00    +0.000 N 
ATOM     25  O   UNL     1      42.247   5.323  11.872  0.00  0.00    +0.000 OA
ATOM     26  H   UNL     1      43.864   2.604  11.852  0.00  0.00    +0.000 HD
ATOM     27  H   UNL     1      42.161   2.834  11.476  0.00  0.00    +0.000 HD
ENDBRANCH  20  23
ENDBRANCH  16  17
ENDBRANCH  15  16
ENDBRANCH   2  15
TORSDOF 6
ENDMDL
MODEL 9
REMARK VINA RESULT:    -6.014      4.584      7.097
REMARK INTER + INTRA:          -9.287
REMARK INTER:                  -8.439
REMARK INTRA:                  -0.848
REMARK UNBOUND:                -1.163
REMARK  Name = 
REMARK  7 active torsions:
REMARK  status: ('A' for Active; 'I' for Inactive)
REMARK    1  A    between atoms: C_1  and  C_2
REMARK    2  A    between atoms: C_2  and  C_3
REMARK    3  A    between atoms: C_2  and  C_14
REMARK    4  A    between atoms: C_3  and  O_4
REMARK    5  A    between atoms: O_4  and  C_5
REMARK    6  A    between atoms: C_8  and  C_9
REMARK    7  A    between atoms: C_18  and  C_19
REMARK                            x       y       z     vdW  Elec       q    Type
REMARK                         _______ _______ _______ _____ _____    ______ ____
ROOT
ATOM      1  C   UNL     1      48.137   9.209  12.382  0.00  0.00    +0.000 C 
ATOM      2  C   UNL     1      48.769   7.870  11.989  0.00  0.00    +0.000 C 
ENDROOT
BRANCH   2   3
ATOM      3  C   UNL     1      50.267   8.021  11.779  0.00  0.00    +0.000 A 
ATOM      4  C   UNL     1      51.051   8.635  12.762  0.00  0.00    +0.000 A 
ATOM      5  C   UNL     1      52.425   8.768  12.586  0.00  0.00    +0.000 A 
ATOM      6  C   UNL     1      53.035   8.274  11.429  0.00  0.00    +0.000 A 
ATOM      7  C   UNL     1      52.292   7.624  10.430  0.00  0.00    +0.000 A 
ATOM      8  C   UNL     1      50.900   7.531  10.621  0.00  0.00    +0.000 A 
BRANCH   7   9
ATOM      9  C   UNL     1      52.943   6.988   9.260  0.00  0.00    +0.000 A 
ATOM     10  C   UNL     1      53.575   5.736   9.377  0.00  0.00    +0.000 A 
ATOM     11  C   UNL     1      54.106   5.076   8.265  0.00  0.00    +0.000 A 
ATOM     12  C   UNL     1      54.012   5.653   7.004  0.00  0.00    +0.000 A 
ATOM     13  C   UNL     1      53.412   6.899   6.858  0.00  0.00    +0.000 A 
ATOM     14  C   UNL     1      52.894   7.563   7.976  0.00  0.00    +0.000 A 
ENDBRANCH   7   9
ENDBRANCH   2   3
BRANCH   2  15
ATOM     15  C   UNL     1      48.431   6.786  13.030  0.00  0.00    +0.000 C 
BRANCH  15  16
ATOM     16  O   UNL     1      47.026   6.823  13.303  0.00  0.00    +0.000 OA
BRANCH  16  17
ATOM     17  C   UNL     1      46.244   5.917  12.648  0.00  0.00    +0.000 A 
ATOM     18  C   UNL     1      45.784   6.017  11.339  0.00  0.00    +0.000 A 
ATOM     19  C   UNL     1      45.020   4.981  10.797  0.00  0.00    +0.000 A 
ATOM     20  C   UNL     1      44.741   3.879  11.595  0.00  0.00    +0.000 A 
ATOM     21  N   UNL     1      45.154   3.753  12.886  0.00  0.00    +0.000 NA
ATOM     22  C   UNL     1      45.892   4.781  13.372  0.00  0.00    +0.000 A 
BRANCH  20  23
ATOM     23  C   UNL     1      43.955   2.737  11.028  0.00  0.00    +0.000 C 
ATOM     24  N   UNL     1      44.493   2.150   9.919  0.00  0.00    +0.000 N 
ATOM     25  O   UNL     1      42.895   2.361  11.513  0.00  0.00    +0.000 OA
ATOM     26  H   UNL     1      45.364   2.507   9.539  0.00  0.00    +0.000 HD
ATOM     27  H   UNL     1      44.002   1.395   9.464  0.00  0.00    +0.000 HD
ENDBRANCH  20  23
ENDBRANCH  16  17
ENDBRANCH  15  16
ENDBRANCH   2  15
TORSDOF 6
ENDMDL
