MODEL 1
REMARK VINA RESULT:    -8.131      0.000      0.000
REMARK INTER + INTRA:         -12.258
REMARK INTER:                 -11.458
REMARK INTRA:                  -0.799
REMARK UNBOUND:                -0.799
REMARK  Name = 
REMARK  7 active torsions:
REMARK  status: ('A' for Active; 'I' for Inactive)
REMARK    1  A    between atoms: C_2  and  C_4
REMARK    2  A    between atoms: C_7  and  C_8
REMARK    3  A    between atoms: C_8  and  C_9
REMARK    4  A    between atoms: C_9  and  C_10
REMARK    5  A    between atoms: C_10  and  C_11
REMARK    6  A    between atoms: C_15  and  O_16
REMARK    7  A    between atoms: O_16  and  C_17
REMARK                            x       y       z     vdW  Elec       q    Type
REMARK                         _______ _______ _______ _____ _____    ______ ____
ROOT
ATOM      1  C   UNL     1      43.851   3.797  11.633  0.00  0.00    +0.000 C 
ENDROOT
BRANCH   1   2
ATOM      2  C   UNL     1      43.677   4.318  10.206  0.00  0.00    +0.000 C 
BRANCH   2   6
ATOM      3  C   UNL     1      46.568   2.672   7.543  0.00  0.00    +0.000 A 
ATOM      4  C   UNL     1      45.876   1.811   8.394  0.00  0.00    +0.000 A 
ATOM      5  C   UNL     1      44.926   2.335   9.270  0.00  0.00    +0.000 A 
ATOM      6  C   UNL     1      44.688   3.708   9.269  0.00  0.00    +0.000 A 
ATOM      7  N   UNL     1      45.362   4.561   8.459  0.00  0.00    +0.000 NA
ATOM      8  C   UNL     1      46.292   4.029   7.624  0.00  0.00    +0.000 A 
BRANCH   3  10
ATOM      9  N   UNL     1      47.852   3.010   5.512  0.00  0.00    +0.000 N 
ATOM     10  C   UNL     1      47.593   2.204   6.589  0.00  0.00    +0.000 C 
ATOM     11  O   UNL     1      48.216   1.170   6.770  0.00  0.00    +0.000 OA
ATOM     12  H   UNL     1      48.621   2.732   4.914  0.00  0.00    +0.000 HD
ATOM     13  H   UNL     1      47.548   3.973   5.466  0.00  0.00    +0.000 HD
ENDBRANCH   3  10
ENDBRANCH   2   6
ENDBRANCH   1   2
BRANCH   1  14
ATOM     14  C   UNL     1      43.911   4.942  12.645  0.00  0.00    +0.000 C 
BRANCH  14  15
ATOM     15  C   UNL     1      45.326   5.421  12.854  0.00  0.00    +0.000 A 
ATOM     16  C   UNL     1      45.902   6.327  11.959  0.00  0.00    +0.000 A 
ATOM     17  C   UNL     1      47.210   6.782  12.163  0.00  0.00    +0.000 A 
ATOM     18  C   UNL     1      47.955   6.328  13.256  0.00  0.00    +0.000 A 
ATOM     19  C   UNL     1      47.403   5.395  14.131  0.00  0.00    +0.000 A 
ATOM     20  C   UNL     1      46.093   4.948  13.929  0.00  0.00    +0.000 A 
BRANCH  19  21
ATOM     21  O   UNL     1      48.026   4.880  15.242  0.00  0.00    +0.000 OA
BRANCH  21  22
ATOM     22  C   UNL     1      47.257   4.109  16.195  0.00  0.00    +0.000 C 
ATOM     23  C   UNL     1      47.188   4.618  17.648  0.00  0.00    +0.000 C 
ATOM     24  N   UNL     1      47.652   3.317  18.149  0.00  0.00    +0.000 NA
ATOM     25  C   UNL     1      47.987   2.882  16.787  0.00  0.00    +0.000 C 
ATOM     26  H   UNL     1      46.927   2.758  18.598  0.00  0.00    +0.000 HD
ENDBRANCH  21  22
ENDBRANCH  19  21
ENDBRANCH  14  15
ENDBRANCH   1  14
TORSDOF 7
ENDMDL
MODEL 2
REMARK VINA RESULT:    -7.622      2.696      3.856
REMARK INTER + INTRA:         -11.541
REMARK INTER:                 -10.822
REMARK INTRA:                  -0.718
REMARK UNBOUND:                -0.799
REMARK  Name = 
REMARK  7 active torsions:
REMARK  status: ('A' for Active; 'I' for Inactive)
REMARK    1  A    between atoms: C_2  and  C_4
REMARK    2  A    between atoms: C_7  and  C_8
REMARK    3  A    between atoms: C_8  and  C_9
REMARK    4  A    between atoms: C_9  and  C_10
REMARK    5  A    between atoms: C_10  and  C_11
REMARK    6  A    between atoms: C_15  and  O_16
REMARK    7  A    between atoms: O_16  and  C_17
REMARK                            x       y       z     vdW  Elec       q    Type
REMARK                         _______ _______ _______ _____ _____    ______ ____
ROOT
ATOM      1  C   UNL     1      43.247   3.913  11.478  0.00  0.00    +0.000 C 
ENDROOT
BRANCH   1   2
ATOM      2  C   UNL     1      43.593   4.642  10.179  0.00  0.00    +0.000 C 
BRANCH   2   6
ATOM      3  C   UNL     1      46.338   2.445   7.771  0.00  0.00    +0.000 A 
ATOM      4  C   UNL     1      45.553   1.752   8.692  0.00  0.00    +0.000 A 
ATOM      5  C   UNL     1      44.650   2.457   9.486  0.00  0.00    +0.000 A 
ATOM      6  C   UNL     1      44.550   3.839   9.335  0.00  0.00    +0.000 A 
ATOM      7  N   UNL     1      45.315   4.529   8.455  0.00  0.00    +0.000 NA
ATOM      8  C   UNL     1      46.197   3.823   7.702  0.00  0.00    +0.000 A 
BRANCH   3  10
ATOM      9  N   UNL     1      48.415   2.515   6.518  0.00  0.00    +0.000 N 
ATOM     10  C   UNL     1      47.322   1.779   6.896  0.00  0.00    +0.000 C 
ATOM     11  O   UNL     1      47.198   0.612   6.557  0.00  0.00    +0.000 OA
ATOM     12  H   UNL     1      49.132   2.024   5.998  0.00  0.00    +0.000 HD
ATOM     13  H   UNL     1      48.676   3.377   6.975  0.00  0.00    +0.000 HD
ENDBRANCH   3  10
ENDBRANCH   2   6
ENDBRANCH   1   2
BRANCH   1  14
ATOM     14  C   UNL     1      43.398   4.830  12.693  0.00  0.00    +0.000 C 
BRANCH  14  15
ATOM     15  C   UNL     1      44.829   5.268  12.879  0.00  0.00    +0.000 A 
ATOM     16  C   UNL     1      45.735   4.448  13.559  0.00  0.00    +0.000 A 
ATOM     17  C   UNL     1      47.066   4.850  13.716  0.00  0.00    +0.000 A 
ATOM     18  C   UNL     1      47.501   6.077  13.205  0.00  0.00    +0.000 A 
ATOM     19  C   UNL     1      46.597   6.918  12.561  0.00  0.00    +0.000 A 
ATOM     20  C   UNL     1      45.268   6.511  12.398  0.00  0.00    +0.000 A 
BRANCH  19  21
ATOM     21  O   UNL     1      46.900   8.139  12.010  0.00  0.00    +0.000 OA
BRANCH  21  22
ATOM     22  C   UNL     1      46.440   9.348  12.661  0.00  0.00    +0.000 C 
ATOM     23  C   UNL     1      45.180  10.034  12.102  0.00  0.00    +0.000 C 
ATOM     24  N   UNL     1      45.902  11.308  11.977  0.00  0.00    +0.000 NA
ATOM     25  C   UNL     1      47.182  10.638  12.247  0.00  0.00    +0.000 C 
ATOM     26  H   UNL     1      45.643  12.007  12.673  0.00  0.00    +0.000 HD
ENDBRANCH  21  22
ENDBRANCH  19  21
ENDBRANCH  14  15
ENDBRANCH   1  14
TORSDOF 7
ENDMDL
MODEL 3
REMARK VINA RESULT:    -7.249      1.787      7.863
REMARK INTER + INTRA:         -11.014
REMARK INTER:                 -10.115
REMARK INTRA:                  -0.900
REMARK UNBOUND:                -0.799
REMARK  Name = 
REMARK  7 active torsions:
REMARK  status: ('A' for Active; 'I' for Inactive)
REMARK    1  A    between atoms: C_2  and  C_4
REMARK    2  A    between atoms: C_7  and  C_8
REMARK    3  A    between atoms: C_8  and  C_9
REMARK    4  A    between atoms: C_9  and  C_10
REMARK    5  A    between atoms: C_10  and  C_11
REMARK    6  A    between atoms: C_15  and  O_16
REMARK    7  A    between atoms: O_16  and  C_17
REMARK                            x       y       z     vdW  Elec       q    Type
REMARK                         _______ _______ _______ _____ _____    ______ ____
ROOT
ATOM      1  C   UNL     1      46.839   6.407  11.398  0.00  0.00    +0.000 C 
ENDROOT
BRANCH   1   2
ATOM      2  C   UNL     1      46.753   6.920  12.836  0.00  0.00    +0.000 C 
BRANCH   2   6
ATOM      3  C   UNL     1      47.748   3.923  15.699  0.00  0.00    +0.000 A 
ATOM      4  C   UNL     1      46.995   3.559  14.583  0.00  0.00    +0.000 A 
ATOM      5  C   UNL     1      46.662   4.528  13.638  0.00  0.00    +0.000 A 
ATOM      6  C   UNL     1      47.098   5.838  13.829  0.00  0.00    +0.000 A 
ATOM      7  N   UNL     1      47.819   6.212  14.914  0.00  0.00    +0.000 NA
ATOM      8  C   UNL     1      48.119   5.254  15.828  0.00  0.00    +0.000 A 
BRANCH   3  10
ATOM      9  N   UNL     1      47.278   2.815  17.805  0.00  0.00    +0.000 N 
ATOM     10  C   UNL     1      48.139   2.964  16.750  0.00  0.00    +0.000 C 
ATOM     11  O   UNL     1      49.159   2.298  16.667  0.00  0.00    +0.000 OA
ATOM     12  H   UNL     1      47.504   2.087  18.473  0.00  0.00    +0.000 HD
ATOM     13  H   UNL     1      46.325   3.149  17.783  0.00  0.00    +0.000 HD
ENDBRANCH   3  10
ENDBRANCH   2   6
ENDBRANCH   1   2
BRANCH   1  14
ATOM     14  C   UNL     1      45.464   6.380  10.729  0.00  0.00    +0.000 C 
BRANCH  14  15
ATOM     15  C   UNL     1      45.140   5.011  10.187  0.00  0.00    +0.000 A 
ATOM     16  C   UNL     1      44.467   4.079  10.983  0.00  0.00    +0.000 A 
ATOM     17  C   UNL     1      44.154   2.814  10.473  0.00  0.00    +0.000 A 
ATOM     18  C   UNL     1      44.518   2.467   9.168  0.00  0.00    +0.000 A 
ATOM     19  C   UNL     1      45.223   3.374   8.381  0.00  0.00    +0.000 A 
ATOM     20  C   UNL     1      45.529   4.641   8.891  0.00  0.00    +0.000 A 
BRANCH  19  21
ATOM     21  O   UNL     1      45.629   3.157   7.087  0.00  0.00    +0.000 OA
BRANCH  21  22
ATOM     22  C   UNL     1      47.044   3.106   6.785  0.00  0.00    +0.000 C 
ATOM     23  C   UNL     1      47.462   2.847   5.325  0.00  0.00    +0.000 C 
ATOM     24  N   UNL     1      48.306   1.719   5.743  0.00  0.00    +0.000 NA
ATOM     25  C   UNL     1      47.732   1.758   7.095  0.00  0.00    +0.000 C 
ATOM     26  H   UNL     1      49.306   1.909   5.709  0.00  0.00    +0.000 HD
ENDBRANCH  21  22
ENDBRANCH  19  21
ENDBRANCH  14  15
ENDBRANCH   1  14
TORSDOF 7
ENDMDL
MODEL 4
REMARK VINA RESULT:    -6.992      2.398      3.648
REMARK INTER + INTRA:         -10.653
REMARK INTER:                  -9.812
REMARK INTRA:                  -0.841
REMARK UNBOUND:                -0.799
REMARK  Name = 
REMARK  7 active torsions:
REMARK  status: ('A' for Active; 'I' for Inactive)
REMARK    1  A    between atoms: C_2  and  C_4
REMARK    2  A    between atoms: C_7  and  C_8
REMARK    3  A    between atoms: C_8  and  C_9
REMARK    4  A    between atoms: C_9  and  C_10
REMARK    5  A    between atoms: C_10  and  C_11
REMARK    6  A    between atoms: C_15  and  O_16
REMARK    7  A    between atoms: O_16  and  C_17
REMARK                            x       y       z     vdW  Elec       q    Type
REMARK                         _______ _______ _______ _____ _____    ______ ____
ROOT
ATOM      1  C   UNL     1      44.459   5.251  11.219  0.00  0.00    +0.000 C 
ENDROOT
BRANCH   1   2
ATOM      2  C   UNL     1      43.769   4.436  10.124  0.00  0.00    +0.000 C 
BRANCH   2   6
ATOM      3  C   UNL     1      46.640   2.750   7.464  0.00  0.00    +0.000 A 
ATOM      4  C   UNL     1      45.866   1.892   8.243  0.00  0.00    +0.000 A 
ATOM      5  C   UNL     1      44.922   2.429   9.118  0.00  0.00    +0.000 A 
ATOM      6  C   UNL     1      44.771   3.813   9.186  0.00  0.00    +0.000 A 
ATOM      7  N   UNL     1      45.525   4.662   8.446  0.00  0.00    +0.000 NA
ATOM      8  C   UNL     1      46.447   4.116   7.611  0.00  0.00    +0.000 A 
BRANCH   3  10
ATOM      9  N   UNL     1      47.777   2.941   5.329  0.00  0.00    +0.000 N 
ATOM     10  C   UNL     1      47.665   2.268   6.517  0.00  0.00    +0.000 C 
ATOM     11  O   UNL     1      48.412   1.342   6.793  0.00  0.00    +0.000 OA
ATOM     12  H   UNL     1      48.544   2.668   4.726  0.00  0.00    +0.000 HD
ATOM     13  H   UNL     1      47.362   3.849   5.175  0.00  0.00    +0.000 HD
ENDBRANCH   3  10
ENDBRANCH   2   6
ENDBRANCH   1   2
BRANCH   1  14
ATOM     14  C   UNL     1      45.021   4.350  12.319  0.00  0.00    +0.000 C 
BRANCH  14  15
ATOM     15  C   UNL     1      46.089   5.055  13.118  0.00  0.00    +0.000 A 
ATOM     16  C   UNL     1      46.635   4.449  14.254  0.00  0.00    +0.000 A 
ATOM     17  C   UNL     1      47.636   5.099  14.984  0.00  0.00    +0.000 A 
ATOM     18  C   UNL     1      48.094   6.361  14.592  0.00  0.00    +0.000 A 
ATOM     19  C   UNL     1      47.528   6.990  13.485  0.00  0.00    +0.000 A 
ATOM     20  C   UNL     1      46.532   6.335  12.752  0.00  0.00    +0.000 A 
BRANCH  19  21
ATOM     21  O   UNL     1      47.894   8.220  12.995  0.00  0.00    +0.000 OA
BRANCH  21  22
ATOM     22  C   UNL     1      48.662   8.298  11.771  0.00  0.00    +0.000 C 
ATOM     23  C   UNL     1      50.094   7.730  11.779  0.00  0.00    +0.000 C 
ATOM     24  N   UNL     1      50.626   9.005  11.275  0.00  0.00    +0.000 NA
ATOM     25  C   UNL     1      49.333   9.664  11.504  0.00  0.00    +0.000 C 
ATOM     26  H   UNL     1      50.914   8.981  10.297  0.00  0.00    +0.000 HD
ENDBRANCH  21  22
ENDBRANCH  19  21
ENDBRANCH  14  15
ENDBRANCH   1  14
TORSDOF 7
ENDMDL
MODEL 5
REMARK VINA RESULT:    -6.700      3.415      5.341
REMARK INTER + INTRA:         -10.241
REMARK INTER:                  -9.543
REMARK INTRA:                  -0.698
REMARK UNBOUND:                -0.799
REMARK  Name = 
REMARK  7 active torsions:
REMARK  status: ('A' for Active; 'I' for Inactive)
REMARK    1  A    between atoms: C_2  and  C_4
REMARK    2  A    between atoms: C_7  and  C_8
REMARK    3  A    between atoms: C_8  and  C_9
REMARK    4  A    between atoms: C_9  and  C_10
REMARK    5  A    between atoms: C_10  and  C_11
REMARK    6  A    between atoms: C_15  and  O_16
REMARK    7  A    between atoms: O_16  and  C_17
REMARK                            x       y       z     vdW  Elec       q    Type
REMARK                         _______ _______ _______ _____ _____    ______ ____
ROOT
ATOM      1  C   UNL     1      44.285   4.501  11.610  0.00  0.00    +0.000 C 
ENDROOT
BRANCH   1   2
ATOM      2  C   UNL     1      43.745   3.504  10.583  0.00  0.00    +0.000 C 
BRANCH   2   6
ATOM      3  C   UNL     1      46.552   2.697   7.480  0.00  0.00    +0.000 A 
ATOM      4  C   UNL     1      46.139   4.014   7.683  0.00  0.00    +0.000 A 
ATOM      5  C   UNL     1      45.221   4.293   8.695  0.00  0.00    +0.000 A 
ATOM      6  C   UNL     1      44.744   3.248   9.484  0.00  0.00    +0.000 A 
ATOM      7  N   UNL     1      45.125   1.962   9.292  0.00  0.00    +0.000 NA
ATOM      8  C   UNL     1      46.008   1.712   8.291  0.00  0.00    +0.000 A 
BRANCH   3  10
ATOM      9  N   UNL     1      47.452   3.002   5.248  0.00  0.00    +0.000 N 
ATOM     10  C   UNL     1      47.515   2.312   6.429  0.00  0.00    +0.000 C 
ATOM     11  O   UNL     1      48.359   1.450   6.614  0.00  0.00    +0.000 OA
ATOM     12  H   UNL     1      48.175   2.800   4.568  0.00  0.00    +0.000 HD
ATOM     13  H   UNL     1      46.950   3.874   5.151  0.00  0.00    +0.000 HD
ENDBRANCH   3  10
ENDBRANCH   2   6
ENDBRANCH   1   2
BRANCH   1  14
ATOM     14  C   UNL     1      43.752   5.912  11.355  0.00  0.00    +0.000 C 
BRANCH  14  15
ATOM     15  C   UNL     1      44.732   6.963  11.814  0.00  0.00    +0.000 A 
ATOM     16  C   UNL     1      45.809   6.612  12.634  0.00  0.00    +0.000 A 
ATOM     17  C   UNL     1      46.725   7.587  13.045  0.00  0.00    +0.000 A 
ATOM     18  C   UNL     1      46.569   8.919  12.649  0.00  0.00    +0.000 A 
ATOM     19  C   UNL     1      45.478   9.284  11.864  0.00  0.00    +0.000 A 
ATOM     20  C   UNL     1      44.566   8.307  11.448  0.00  0.00    +0.000 A 
BRANCH  19  21
ATOM     21  O   UNL     1      45.218  10.552  11.404  0.00  0.00    +0.000 OA
BRANCH  21  22
ATOM     22  C   UNL     1      44.019  10.796  10.630  0.00  0.00    +0.000 C 
ATOM     23  C   UNL     1      44.012  12.000   9.668  0.00  0.00    +0.000 C 
ATOM     24  N   UNL     1      42.781  12.514  10.284  0.00  0.00    +0.000 NA
ATOM     25  C   UNL     1      42.894  11.543  11.382  0.00  0.00    +0.000 C 
ATOM     26  H   UNL     1      41.946  12.398   9.711  0.00  0.00    +0.000 HD
ENDBRANCH  21  22
ENDBRANCH  19  21
ENDBRANCH  14  15
ENDBRANCH   1  14
TORSDOF 7
ENDMDL
MODEL 6
REMARK VINA RESULT:    -6.592      2.424      3.248
REMARK INTER + INTRA:         -10.089
REMARK INTER:                  -9.334
REMARK INTRA:                  -0.755
REMARK UNBOUND:                -0.799
REMARK  Name = 
REMARK  7 active torsions:
REMARK  status: ('A' for Active; 'I' for Inactive)
REMARK    1  A    between atoms: C_2  and  C_4
REMARK    2  A    between atoms: C_7  and  C_8
REMARK    3  A    between atoms: C_8  and  C_9
REMARK    4  A    between atoms: C_9  and  C_10
REMARK    5  A    between atoms: C_10  and  C_11
REMARK    6  A    between atoms: C_15  and  O_16
REMARK    7  A    between atoms: O_16  and  C_17
REMARK                            x       y       z     vdW  Elec       q    Type
REMARK                         _______ _______ _______ _____ _____    ______ ____
ROOT
ATOM      1  C   UNL     1      44.331   5.176  11.484  0.00  0.00    +0.000 C 
ENDROOT
BRANCH   1   2
ATOM      2  C   UNL     1      43.766   4.061  10.603  0.00  0.00    +0.000 C 
BRANCH   2   6
ATOM      3  C   UNL     1      46.514   2.817   7.592  0.00  0.00    +0.000 A 
ATOM      4  C   UNL     1      46.297   4.182   7.777  0.00  0.00    +0.000 A 
ATOM      5  C   UNL     1      45.401   4.604   8.759  0.00  0.00    +0.000 A 
ATOM      6  C   UNL     1      44.749   3.649   9.537  0.00  0.00    +0.000 A 
ATOM      7  N   UNL     1      44.938   2.318   9.361  0.00  0.00    +0.000 NA
ATOM      8  C   UNL     1      45.804   1.931   8.389  0.00  0.00    +0.000 A 
BRANCH   3  10
ATOM      9  N   UNL     1      47.557   2.995   5.409  0.00  0.00    +0.000 N 
ATOM     10  C   UNL     1      47.439   2.283   6.574  0.00  0.00    +0.000 C 
ATOM     11  O   UNL     1      48.105   1.279   6.771  0.00  0.00    +0.000 OA
ATOM     12  H   UNL     1      48.263   2.678   4.755  0.00  0.00    +0.000 HD
ATOM     13  H   UNL     1      47.225   3.945   5.314  0.00  0.00    +0.000 HD
ENDBRANCH   3  10
ENDBRANCH   2   6
ENDBRANCH   1   2
BRANCH   1  14
ATOM     14  C   UNL     1      43.471   6.438  11.411  0.00  0.00    +0.000 C 
BRANCH  14  15
ATOM     15  C   UNL     1      44.289   7.680  11.665  0.00  0.00    +0.000 A 
ATOM     16  C   UNL     1      43.974   8.877  11.016  0.00  0.00    +0.000 A 
ATOM     17  C   UNL     1      44.725  10.031  11.265  0.00  0.00    +0.000 A 
ATOM     18  C   UNL     1      45.803   9.996  12.156  0.00  0.00    +0.000 A 
ATOM     19  C   UNL     1      46.149   8.799  12.778  0.00  0.00    +0.000 A 
ATOM     20  C   UNL     1      45.391   7.648  12.533  0.00  0.00    +0.000 A 
BRANCH  19  21
ATOM     21  O   UNL     1      47.176   8.637  13.676  0.00  0.00    +0.000 OA
BRANCH  21  22
ATOM     22  C   UNL     1      48.348   7.882  13.287  0.00  0.00    +0.000 C 
ATOM     23  C   UNL     1      48.574   6.508  13.947  0.00  0.00    +0.000 C 
ATOM     24  N   UNL     1      49.927   6.905  14.361  0.00  0.00    +0.000 NA
ATOM     25  C   UNL     1      49.660   8.301  13.987  0.00  0.00    +0.000 C 
ATOM     26  H   UNL     1      50.675   6.467  13.825  0.00  0.00    +0.000 HD
ENDBRANCH  21  22
ENDBRANCH  19  21
ENDBRANCH  14  15
ENDBRANCH   1  14
TORSDOF 7
ENDMDL
MODEL 7
REMARK VINA RESULT:    -6.553      2.043      7.792
REMARK INTER + INTRA:         -10.034
REMARK INTER:                  -9.249
REMARK INTRA:                  -0.785
REMARK UNBOUND:                -0.799
REMARK  Name = 
REMARK  7 active torsions:
REMARK  status: ('A' for Active; 'I' for Inactive)
REMARK    1  A    between atoms: C_2  and  C_4
REMARK    2  A    between atoms: C_7  and  C_8
REMARK    3  A    between atoms: C_8  and  C_9
REMARK    4  A    between atoms: C_9  and  C_10
REMARK    5  A    between atoms: C_10  and  C_11
REMARK    6  A    between atoms: C_15  and  O_16
REMARK    7  A    between atoms: O_16  and  C_17
REMARK                            x       y       z     vdW  Elec       q    Type
REMARK                         _______ _______ _______ _____ _____    ______ ____
ROOT
ATOM      1  C   UNL     1      47.994   6.775  12.385  0.00  0.00    +0.000 C 
ENDROOT
BRANCH   1   2
ATOM      2  C   UNL     1      48.518   7.282  13.729  0.00  0.00    +0.000 C 
BRANCH   2   6
ATOM      3  C   UNL     1      47.844   4.376  16.772  0.00  0.00    +0.000 A 
ATOM      4  C   UNL     1      48.665   5.466  17.058  0.00  0.00    +0.000 A 
ATOM      5  C   UNL     1      48.894   6.426  16.073  0.00  0.00    +0.000 A 
ATOM      6  C   UNL     1      48.290   6.274  14.826  0.00  0.00    +0.000 A 
ATOM      7  N   UNL     1      47.500   5.214  14.527  0.00  0.00    +0.000 NA
ATOM      8  C   UNL     1      47.303   4.285  15.498  0.00  0.00    +0.000 A 
BRANCH   3  10
ATOM      9  N   UNL     1      48.418   3.188  18.808  0.00  0.00    +0.000 N 
ATOM     10  C   UNL     1      47.552   3.313  17.754  0.00  0.00    +0.000 C 
ATOM     11  O   UNL     1      46.563   2.603  17.660  0.00  0.00    +0.000 OA
ATOM     12  H   UNL     1      48.161   2.523  19.527  0.00  0.00    +0.000 HD
ATOM     13  H   UNL     1      49.087   3.905  19.052  0.00  0.00    +0.000 HD
ENDBRANCH   3  10
ENDBRANCH   2   6
ENDBRANCH   1   2
BRANCH   1  14
ATOM     14  C   UNL     1      46.796   7.595  11.904  0.00  0.00    +0.000 C 
BRANCH  14  15
ATOM     15  C   UNL     1      45.627   6.710  11.552  0.00  0.00    +0.000 A 
ATOM     16  C   UNL     1      44.321   7.206  11.620  0.00  0.00    +0.000 A 
ATOM     17  C   UNL     1      43.239   6.387  11.278  0.00  0.00    +0.000 A 
ATOM     18  C   UNL     1      43.451   5.065  10.873  0.00  0.00    +0.000 A 
ATOM     19  C   UNL     1      44.745   4.550  10.839  0.00  0.00    +0.000 A 
ATOM     20  C   UNL     1      45.826   5.373  11.175  0.00  0.00    +0.000 A 
BRANCH  19  21
ATOM     21  O   UNL     1      45.084   3.276  10.454  0.00  0.00    +0.000 OA
BRANCH  21  22
ATOM     22  C   UNL     1      44.912   2.882   9.072  0.00  0.00    +0.000 C 
ATOM     23  C   UNL     1      45.770   1.718   8.540  0.00  0.00    +0.000 C 
ATOM     24  N   UNL     1      46.251   2.551   7.429  0.00  0.00    +0.000 NA
ATOM     25  C   UNL     1      45.669   3.752   8.043  0.00  0.00    +0.000 C 
ATOM     26  H   UNL     1      45.852   2.312   6.522  0.00  0.00    +0.000 HD
ENDBRANCH  21  22
ENDBRANCH  19  21
ENDBRANCH  14  15
ENDBRANCH   1  14
TORSDOF 7
ENDMDL
MODEL 8
REMARK VINA RESULT:    -6.477      3.319      8.197
REMARK INTER + INTRA:          -9.927
REMARK INTER:                  -9.264
REMARK INTRA:                  -0.664
REMARK UNBOUND:                -0.799
REMARK  Name = 
REMARK  7 active torsions:
REMARK  status: ('A' for Active; 'I' for Inactive)
REMARK    1  A    between atoms: C_2  and  C_4
REMARK    2  A    between atoms: C_7  and  C_8
REMARK    3  A    between atoms: C_8  and  C_9
REMARK    4  A    between atoms: C_9  and  C_10
REMARK    5  A    between atoms: C_10  and  C_11
REMARK    6  A    between atoms: C_15  and  O_16
REMARK    7  A    between atoms: O_16  and  C_17
REMARK                            x       y       z     vdW  Elec       q    Type
REMARK                         _______ _______ _______ _____ _____    ______ ____
ROOT
ATOM      1  C   UNL     1      46.587   6.638  11.318  0.00  0.00    +0.000 C 
ENDROOT
BRANCH   1   2
ATOM      2  C   UNL     1      47.235   6.278  12.656  0.00  0.00    +0.000 C 
BRANCH   2   6
ATOM      3  C   UNL     1      50.922   8.319  13.292  0.00  0.00    +0.000 A 
ATOM      4  C   UNL     1      50.334   8.377  12.029  0.00  0.00    +0.000 A 
ATOM      5  C   UNL     1      49.128   7.715  11.806  0.00  0.00    +0.000 A 
ATOM      6  C   UNL     1      48.535   7.015  12.855  0.00  0.00    +0.000 A 
ATOM      7  N   UNL     1      49.100   6.936  14.085  0.00  0.00    +0.000 NA
ATOM      8  C   UNL     1      50.282   7.578  14.274  0.00  0.00    +0.000 A 
BRANCH   3  10
ATOM      9  N   UNL     1      52.188  10.353  13.668  0.00  0.00    +0.000 N 
ATOM     10  C   UNL     1      52.200   8.985  13.614  0.00  0.00    +0.000 C 
ATOM     11  O   UNL     1      53.212   8.350  13.864  0.00  0.00    +0.000 OA
ATOM     12  H   UNL     1      53.042  10.800  13.983  0.00  0.00    +0.000 HD
ATOM     13  H   UNL     1      51.334  10.890  13.719  0.00  0.00    +0.000 HD
ENDBRANCH   3  10
ENDBRANCH   2   6
ENDBRANCH   1   2
BRANCH   1  14
ATOM     14  C   UNL     1      45.138   6.154  11.249  0.00  0.00    +0.000 C 
BRANCH  14  15
ATOM     15  C   UNL     1      45.009   4.919  10.393  0.00  0.00    +0.000 A 
ATOM     16  C   UNL     1      44.302   3.808  10.861  0.00  0.00    +0.000 A 
ATOM     17  C   UNL     1      44.170   2.669  10.059  0.00  0.00    +0.000 A 
ATOM     18  C   UNL     1      44.751   2.627   8.788  0.00  0.00    +0.000 A 
ATOM     19  C   UNL     1      45.491   3.714   8.328  0.00  0.00    +0.000 A 
ATOM     20  C   UNL     1      45.615   4.855   9.129  0.00  0.00    +0.000 A 
BRANCH  19  21
ATOM     21  O   UNL     1      46.102   3.799   7.100  0.00  0.00    +0.000 OA
BRANCH  21  22
ATOM     22  C   UNL     1      46.559   2.590   6.448  0.00  0.00    +0.000 C 
ATOM     23  C   UNL     1      47.884   1.968   6.927  0.00  0.00    +0.000 C 
ATOM     24  N   UNL     1      48.409   1.976   5.554  0.00  0.00    +0.000 NA
ATOM     25  C   UNL     1      47.284   2.806   5.101  0.00  0.00    +0.000 C 
ATOM     26  H   UNL     1      48.451   1.057   5.116  0.00  0.00    +0.000 HD
ENDBRANCH  21  22
ENDBRANCH  19  21
ENDBRANCH  14  15
ENDBRANCH   1  14
TORSDOF 7
ENDMDL
MODEL 9
REMARK VINA RESULT:    -6.405      3.600      7.804
REMARK INTER + INTRA:          -9.826
REMARK INTER:                  -9.151
REMARK INTRA:                  -0.675
REMARK UNBOUND:                -0.799
REMARK  Name = 
REMARK  7 active torsions:
REMARK  status: ('A' for Active; 'I' for Inactive)
REMARK    1  A    between atoms: C_2  and  C_4
REMARK    2  A    between atoms: C_7  and  C_8
REMARK    3  A    between atoms: C_8  and  C_9
REMARK    4  A    between atoms: C_9  and  C_10
REMARK    5  A    between atoms: C_10  and  C_11
REMARK    6  A    between atoms: C_15  and  O_16
REMARK    7  A    between atoms: O_16  and  C_17
REMARK                            x       y       z     vdW  Elec       q    Type
REMARK                         _______ _______ _______ _____ _____    ______ ____
ROOT
ATOM      1  C   UNL     1      45.649   6.232  12.246  0.00  0.00    +0.000 C 
ENDROOT
BRANCH   1   2
ATOM      2  C   UNL     1      45.809   7.642  12.816  0.00  0.00    +0.000 C 
BRANCH   2   6
ATOM      3  C   UNL     1      49.425   9.512  11.556  0.00  0.00    +0.000 A 
ATOM      4  C   UNL     1      49.451   8.155  11.880  0.00  0.00    +0.000 A 
ATOM      5  C   UNL     1      48.275   7.530  12.293  0.00  0.00    +0.000 A 
ATOM      6  C   UNL     1      47.100   8.276  12.366  0.00  0.00    +0.000 A 
ATOM      7  N   UNL     1      47.061   9.598  12.069  0.00  0.00    +0.000 NA
ATOM      8  C   UNL     1      48.221  10.188  11.682  0.00  0.00    +0.000 A 
BRANCH   3  10
ATOM      9  N   UNL     1      50.770  11.531  11.589  0.00  0.00    +0.000 N 
ATOM     10  C   UNL     1      50.623  10.253  11.116  0.00  0.00    +0.000 C 
ATOM     11  O   UNL     1      51.470   9.742  10.400  0.00  0.00    +0.000 OA
ATOM     12  H   UNL     1      51.640  11.999  11.362  0.00  0.00    +0.000 HD
ATOM     13  H   UNL     1      50.236  11.888  12.368  0.00  0.00    +0.000 HD
ENDBRANCH   3  10
ENDBRANCH   2   6
ENDBRANCH   1   2
BRANCH   1  14
ATOM     14  C   UNL     1      45.449   6.260  10.730  0.00  0.00    +0.000 C 
BRANCH  14  15
ATOM     15  C   UNL     1      45.122   4.889  10.192  0.00  0.00    +0.000 A 
ATOM     16  C   UNL     1      44.450   3.960  10.992  0.00  0.00    +0.000 A 
ATOM     17  C   UNL     1      44.135   2.694  10.485  0.00  0.00    +0.000 A 
ATOM     18  C   UNL     1      44.496   2.343   9.180  0.00  0.00    +0.000 A 
ATOM     19  C   UNL     1      45.200   3.248   8.389  0.00  0.00    +0.000 A 
ATOM     20  C   UNL     1      45.508   4.516   8.896  0.00  0.00    +0.000 A 
BRANCH  19  21
ATOM     21  O   UNL     1      45.603   3.028   7.095  0.00  0.00    +0.000 OA
BRANCH  21  22
ATOM     22  C   UNL     1      47.016   3.017   6.782  0.00  0.00    +0.000 C 
ATOM     23  C   UNL     1      47.431   2.775   5.318  0.00  0.00    +0.000 C 
ATOM     24  N   UNL     1      48.308   1.668   5.726  0.00  0.00    +0.000 NA
ATOM     25  C   UNL     1      47.743   1.687   7.082  0.00  0.00    +0.000 C 
ATOM     26  H   UNL     1      49.303   1.886   5.686  0.00  0.00    +0.000 HD
ENDBRANCH  21  22
ENDBRANCH  19  21
ENDBRANCH  14  15
ENDBRANCH   1  14
TORSDOF 7
ENDMDL
