MODEL 1
REMARK VINA RESULT:    -8.407      0.000      0.000
REMARK INTER + INTRA:         -12.855
REMARK INTER:                 -11.847
REMARK INTRA:                  -1.008
REMARK UNBOUND:                -1.008
REMARK  Name = 
REMARK  8 active torsions:
REMARK  status: ('A' for Active; 'I' for Inactive)
REMARK    1  A    between atoms: C_1  and  C_2
REMARK    2  A    between atoms: C_5  and  C_6
REMARK    3  A    between atoms: C_6  and  N_7
REMARK    4  A    between atoms: N_7  and  C_8
REMARK    5  A    between atoms: C_8  and  C_9
REMARK    6  A    between atoms: C_12  and  C_13
REMARK    7  A    between atoms: C_13  and  N_14
REMARK    8  A    between atoms: C_15  and  C_17
REMARK                            x       y       z     vdW  Elec       q    Type
REMARK                         _______ _______ _______ _____ _____    ______ ____
ROOT
ATOM      1  C   UNL     1      44.699   5.665  11.956  0.00  0.00    +0.000 A 
ATOM      2  C   UNL     1      45.604   6.526  11.337  0.00  0.00    +0.000 A 
ATOM      3  C   UNL     1      46.809   6.808  11.974  0.00  0.00    +0.000 A 
ATOM      4  C   UNL     1      47.081   6.245  13.222  0.00  0.00    +0.000 A 
ATOM      5  C   UNL     1      46.129   5.386  13.756  0.00  0.00    +0.000 A 
ATOM      6  N   UNL     1      44.952   5.085  13.156  0.00  0.00    +0.000 NA
ENDROOT
BRANCH   1   7
ATOM      7  C   UNL     1      43.389   5.313  11.276  0.00  0.00    +0.000 C 
BRANCH   7   8
ATOM      8  N   UNL     1      43.536   4.726   9.934  0.00  0.00    +0.000 NA
ATOM      9  H   UNL     1      42.620   4.723   9.486  0.00  0.00    +0.000 HD
BRANCH   8  10
ATOM     10  C   UNL     1      44.011   3.341  10.005  0.00  0.00    +0.000 C 
BRANCH  10  15
ATOM     11  C   UNL     1      48.053   2.155   6.074  0.00  0.00    +0.000 C 
ATOM     12  C   UNL     1      47.005   2.514   7.083  0.00  0.00    +0.000 A 
ATOM     13  C   UNL     1      46.566   3.826   7.223  0.00  0.00    +0.000 A 
ATOM     14  C   UNL     1      45.586   4.107   8.173  0.00  0.00    +0.000 A 
ATOM     15  C   UNL     1      45.061   3.078   8.958  0.00  0.00    +0.000 A 
ATOM     16  C   UNL     1      45.570   1.802   8.752  0.00  0.00    +0.000 A 
ATOM     17  N   UNL     1      46.523   1.500   7.840  0.00  0.00    +0.000 NA
ENDBRANCH  10  15
ENDBRANCH   8  10
ENDBRANCH   7   8
ENDBRANCH   1   7
BRANCH   4  18
ATOM     18  C   UNL     1      48.370   6.516  13.939  0.00  0.00    +0.000 C 
BRANCH  18  19
ATOM     19  N   UNL     1      48.149   6.746  15.344  0.00  0.00    +0.000 N 
ATOM     20  C   UNL     1      49.144   6.520  16.260  0.00  0.00    +0.000 C 
ATOM     21  O   UNL     1      50.268   6.162  15.920  0.00  0.00    +0.000 OA
ATOM     22  H   UNL     1      47.186   6.809  15.661  0.00  0.00    +0.000 HD
BRANCH  20  23
ATOM     23  C   UNL     1      48.819   6.788  17.667  0.00  0.00    +0.000 A 
ATOM     24  C   UNL     1      48.600   8.094  18.082  0.00  0.00    +0.000 A 
ATOM     25  S   UNL     1      48.185   8.228  19.731  0.00  0.00    +0.000 S 
ATOM     26  C   UNL     1      48.332   6.549  19.961  0.00  0.00    +0.000 A 
ATOM     27  N   UNL     1      48.127   5.991  21.184  0.00  0.00    +0.000 NA
ATOM     28  C   UNL     1      48.303   4.712  21.223  0.00  0.00    +0.000 A 
ATOM     29  N   UNL     1      48.660   3.940  20.149  0.00  0.00    +0.000 N 
ATOM     30  C   UNL     1      48.849   4.455  18.888  0.00  0.00    +0.000 A 
ATOM     31  O   UNL     1      49.129   3.732  17.938  0.00  0.00    +0.000 OA
ATOM     32  C   UNL     1      48.677   5.893  18.792  0.00  0.00    +0.000 A 
ATOM     33  H   UNL     1      48.772   2.943  20.246  0.00  0.00    +0.000 HD
ENDBRANCH  20  23
ENDBRANCH  18  19
ENDBRANCH   4  18
TORSDOF 7
ENDMDL
MODEL 2
REMARK VINA RESULT:    -8.019      1.577      2.337
REMARK INTER + INTRA:         -12.309
REMARK INTER:                 -11.156
REMARK INTRA:                  -1.153
REMARK UNBOUND:                -1.008
REMARK  Name = 
REMARK  8 active torsions:
REMARK  status: ('A' for Active; 'I' for Inactive)
REMARK    1  A    between atoms: C_1  and  C_2
REMARK    2  A    between atoms: C_5  and  C_6
REMARK    3  A    between atoms: C_6  and  N_7
REMARK    4  A    between atoms: N_7  and  C_8
REMARK    5  A    between atoms: C_8  and  C_9
REMARK    6  A    between atoms: C_12  and  C_13
REMARK    7  A    between atoms: C_13  and  N_14
REMARK    8  A    between atoms: C_15  and  C_17
REMARK                            x       y       z     vdW  Elec       q    Type
REMARK                         _______ _______ _______ _____ _____    ______ ____
ROOT
ATOM      1  C   UNL     1      44.734   4.675  12.175  0.00  0.00    +0.000 A 
ATOM      2  C   UNL     1      45.427   5.683  11.507  0.00  0.00    +0.000 A 
ATOM      3  C   UNL     1      46.560   6.232  12.103  0.00  0.00    +0.000 A 
ATOM      4  C   UNL     1      46.968   5.781  13.359  0.00  0.00    +0.000 A 
ATOM      5  C   UNL     1      46.226   4.761  13.943  0.00  0.00    +0.000 A 
ATOM      6  N   UNL     1      45.127   4.202  13.384  0.00  0.00    +0.000 NA
ENDROOT
BRANCH   1   7
ATOM      7  C   UNL     1      43.513   4.035  11.541  0.00  0.00    +0.000 C 
BRANCH   7   8
ATOM      8  N   UNL     1      43.671   3.697  10.117  0.00  0.00    +0.000 NA
ATOM      9  H   UNL     1      42.743   3.621   9.703  0.00  0.00    +0.000 HD
BRANCH   8  10
ATOM     10  C   UNL     1      44.350   2.408   9.946  0.00  0.00    +0.000 C 
BRANCH  10  15
ATOM     11  C   UNL     1      47.976   2.365   5.469  0.00  0.00    +0.000 C 
ATOM     12  C   UNL     1      47.024   2.427   6.625  0.00  0.00    +0.000 A 
ATOM     13  C   UNL     1      46.351   3.603   6.935  0.00  0.00    +0.000 A 
ATOM     14  C   UNL     1      45.473   3.608   8.016  0.00  0.00    +0.000 A 
ATOM     15  C   UNL     1      45.279   2.442   8.762  0.00  0.00    +0.000 A 
ATOM     16  C   UNL     1      46.004   1.320   8.381  0.00  0.00    +0.000 A 
ATOM     17  N   UNL     1      46.865   1.287   7.338  0.00  0.00    +0.000 NA
ENDBRANCH  10  15
ENDBRANCH   8  10
ENDBRANCH   7   8
ENDBRANCH   1   7
BRANCH   4  18
ATOM     18  C   UNL     1      48.186   6.339  14.033  0.00  0.00    +0.000 C 
BRANCH  18  19
ATOM     19  N   UNL     1      47.943   6.587  15.431  0.00  0.00    +0.000 N 
ATOM     20  C   UNL     1      48.895   6.297  16.375  0.00  0.00    +0.000 C 
ATOM     21  O   UNL     1      50.002   5.865  16.065  0.00  0.00    +0.000 OA
ATOM     22  H   UNL     1      46.978   6.716  15.721  0.00  0.00    +0.000 HD
BRANCH  20  23
ATOM     23  C   UNL     1      48.551   6.590  17.771  0.00  0.00    +0.000 A 
ATOM     24  C   UNL     1      48.598   5.574  18.716  0.00  0.00    +0.000 A 
ATOM     25  S   UNL     1      48.219   6.090  20.296  0.00  0.00    +0.000 S 
ATOM     26  C   UNL     1      47.928   7.679  19.767  0.00  0.00    +0.000 A 
ATOM     27  N   UNL     1      47.533   8.645  20.639  0.00  0.00    +0.000 NA
ATOM     28  C   UNL     1      47.316   9.797  20.098  0.00  0.00    +0.000 A 
ATOM     29  N   UNL     1      47.464  10.073  18.763  0.00  0.00    +0.000 N 
ATOM     30  C   UNL     1      47.889   9.137  17.849  0.00  0.00    +0.000 A 
ATOM     31  O   UNL     1      48.051   9.426  16.668  0.00  0.00    +0.000 OA
ATOM     32  C   UNL     1      48.134   7.820  18.405  0.00  0.00    +0.000 A 
ATOM     33  H   UNL     1      47.287  10.999  18.406  0.00  0.00    +0.000 HD
ENDBRANCH  20  23
ENDBRANCH  18  19
ENDBRANCH   4  18
TORSDOF 7
ENDMDL
MODEL 3
REMARK VINA RESULT:    -7.716      3.194      4.113
REMARK INTER + INTRA:         -11.881
REMARK INTER:                 -11.002
REMARK INTRA:                  -0.879
REMARK UNBOUND:                -1.008
REMARK  Name = 
REMARK  8 active torsions:
REMARK  status: ('A' for Active; 'I' for Inactive)
REMARK    1  A    between atoms: C_1  and  C_2
REMARK    2  A    between atoms: C_5  and  C_6
REMARK    3  A    between atoms: C_6  and  N_7
REMARK    4  A    between atoms: N_7  and  C_8
REMARK    5  A    between atoms: C_8  and  C_9
REMARK    6  A    between atoms: C_12  and  C_13
REMARK    7  A    between atoms: C_13  and  N_14
REMARK    8  A    between atoms: C_15  and  C_17
REMARK                            x       y       z     vdW  Elec       q    Type
REMARK                         _______ _______ _______ _____ _____    ______ ____
ROOT
ATOM      1  C   UNL     1      46.901   4.543  14.036  0.00  0.00    +0.000 A 
ATOM      2  C   UNL     1      47.580   5.752  13.906  0.00  0.00    +0.000 A 
ATOM      3  C   UNL     1      48.235   6.280  15.016  0.00  0.00    +0.000 A 
ATOM      4  C   UNL     1      48.183   5.606  16.236  0.00  0.00    +0.000 A 
ATOM      5  C   UNL     1      47.495   4.399  16.269  0.00  0.00    +0.000 A 
ATOM      6  N   UNL     1      46.858   3.856  15.205  0.00  0.00    +0.000 NA
ENDROOT
BRANCH   1   7
ATOM      7  C   UNL     1      46.202   3.924  12.840  0.00  0.00    +0.000 C 
BRANCH   7   8
ATOM      8  N   UNL     1      44.742   3.796  12.984  0.00  0.00    +0.000 NA
ATOM      9  H   UNL     1      44.502   2.807  12.922  0.00  0.00    +0.000 HD
BRANCH   8  10
ATOM     10  C   UNL     1      44.034   4.502  11.912  0.00  0.00    +0.000 C 
BRANCH  10  15
ATOM     11  C   UNL     1      46.247   3.326   6.724  0.00  0.00    +0.000 C 
ATOM     12  C   UNL     1      45.653   3.583   8.076  0.00  0.00    +0.000 A 
ATOM     13  C   UNL     1      44.987   2.578   8.767  0.00  0.00    +0.000 A 
ATOM     14  C   UNL     1      44.457   2.865  10.023  0.00  0.00    +0.000 A 
ATOM     15  C   UNL     1      44.604   4.145  10.565  0.00  0.00    +0.000 A 
ATOM     16  C   UNL     1      45.276   5.085   9.794  0.00  0.00    +0.000 A 
ATOM     17  N   UNL     1      45.799   4.835   8.571  0.00  0.00    +0.000 NA
ENDBRANCH  10  15
ENDBRANCH   8  10
ENDBRANCH   7   8
ENDBRANCH   1   7
BRANCH   4  18
ATOM     18  C   UNL     1      48.880   6.136  17.454  0.00  0.00    +0.000 C 
BRANCH  18  19
ATOM     19  N   UNL     1      49.929   5.247  17.885  0.00  0.00    +0.000 N 
ATOM     20  C   UNL     1      51.191   5.338  17.357  0.00  0.00    +0.000 C 
ATOM     21  O   UNL     1      51.490   6.204  16.540  0.00  0.00    +0.000 OA
ATOM     22  H   UNL     1      49.651   4.397  18.367  0.00  0.00    +0.000 HD
BRANCH  20  23
ATOM     23  C   UNL     1      52.189   4.388  17.865  0.00  0.00    +0.000 A 
ATOM     24  C   UNL     1      53.342   4.866  18.472  0.00  0.00    +0.000 A 
ATOM     25  S   UNL     1      54.371   3.636  19.051  0.00  0.00    +0.000 S 
ATOM     26  C   UNL     1      53.337   2.419  18.465  0.00  0.00    +0.000 A 
ATOM     27  N   UNL     1      53.651   1.104  18.613  0.00  0.00    +0.000 NA
ATOM     28  C   UNL     1      52.794   0.289  18.093  0.00  0.00    +0.000 A 
ATOM     29  N   UNL     1      51.649   0.670  17.444  0.00  0.00    +0.000 N 
ATOM     30  C   UNL     1      51.276   1.985  17.296  0.00  0.00    +0.000 A 
ATOM     31  O   UNL     1      50.224   2.293  16.745  0.00  0.00    +0.000 OA
ATOM     32  C   UNL     1      52.213   2.944  17.851  0.00  0.00    +0.000 A 
ATOM     33  H   UNL     1      51.016  -0.020  17.069  0.00  0.00    +0.000 HD
ENDBRANCH  20  23
ENDBRANCH  18  19
ENDBRANCH   4  18
TORSDOF 7
ENDMDL
MODEL 4
REMARK VINA RESULT:    -7.321      2.346      2.803
REMARK INTER + INTRA:         -11.324
REMARK INTER:                 -10.287
REMARK INTRA:                  -1.037
REMARK UNBOUND:                -1.008
REMARK  Name = 
REMARK  8 active torsions:
REMARK  status: ('A' for Active; 'I' for Inactive)
REMARK    1  A    between atoms: C_1  and  C_2
REMARK    2  A    between atoms: C_5  and  C_6
REMARK    3  A    between atoms: C_6  and  N_7
REMARK    4  A    between atoms: N_7  and  C_8
REMARK    5  A    between atoms: C_8  and  C_9
REMARK    6  A    between atoms: C_12  and  C_13
REMARK    7  A    between atoms: C_13  and  N_14
REMARK    8  A    between atoms: C_15  and  C_17
REMARK                            x       y       z     vdW  Elec       q    Type
REMARK                         _______ _______ _______ _____ _____    ______ ____
ROOT
ATOM      1  C   UNL     1      45.391   5.179  12.786  0.00  0.00    +0.000 A 
ATOM      2  C   UNL     1      45.318   6.353  12.038  0.00  0.00    +0.000 A 
ATOM      3  C   UNL     1      46.429   7.190  11.988  0.00  0.00    +0.000 A 
ATOM      4  C   UNL     1      47.583   6.854  12.698  0.00  0.00    +0.000 A 
ATOM      5  C   UNL     1      47.571   5.657  13.404  0.00  0.00    +0.000 A 
ATOM      6  N   UNL     1      46.509   4.818  13.464  0.00  0.00    +0.000 NA
ENDROOT
BRANCH   1   7
ATOM      7  C   UNL     1      44.208   4.230  12.839  0.00  0.00    +0.000 C 
BRANCH   7   8
ATOM      8  N   UNL     1      44.362   3.017  12.019  0.00  0.00    +0.000 NA
ATOM      9  H   UNL     1      45.353   2.898  11.810  0.00  0.00    +0.000 HD
BRANCH   8  10
ATOM     10  C   UNL     1      43.640   3.135  10.748  0.00  0.00    +0.000 C 
BRANCH  10  15
ATOM     11  C   UNL     1      47.229   3.123   6.241  0.00  0.00    +0.000 C 
ATOM     12  C   UNL     1      46.301   3.074   7.417  0.00  0.00    +0.000 A 
ATOM     13  C   UNL     1      46.032   1.875   8.066  0.00  0.00    +0.000 A 
ATOM     14  C   UNL     1      45.166   1.883   9.158  0.00  0.00    +0.000 A 
ATOM     15  C   UNL     1      44.592   3.084   9.583  0.00  0.00    +0.000 A 
ATOM     16  C   UNL     1      44.913   4.228   8.864  0.00  0.00    +0.000 A 
ATOM     17  N   UNL     1      45.748   4.250   7.799  0.00  0.00    +0.000 NA
ENDBRANCH  10  15
ENDBRANCH   8  10
ENDBRANCH   7   8
ENDBRANCH   1   7
BRANCH   4  18
ATOM     18  C   UNL     1      48.804   7.724  12.665  0.00  0.00    +0.000 C 
BRANCH  18  19
ATOM     19  N   UNL     1      49.827   7.223  13.548  0.00  0.00    +0.000 N 
ATOM     20  C   UNL     1      49.957   7.710  14.824  0.00  0.00    +0.000 C 
ATOM     21  O   UNL     1      49.183   8.548  15.278  0.00  0.00    +0.000 OA
ATOM     22  H   UNL     1      50.602   6.719  13.126  0.00  0.00    +0.000 HD
BRANCH  20  23
ATOM     23  C   UNL     1      51.028   7.132  15.644  0.00  0.00    +0.000 A 
ATOM     24  C   UNL     1      52.336   7.562  15.464  0.00  0.00    +0.000 A 
ATOM     25  S   UNL     1      53.450   6.830  16.527  0.00  0.00    +0.000 S 
ATOM     26  C   UNL     1      52.233   5.875  17.233  0.00  0.00    +0.000 A 
ATOM     27  N   UNL     1      52.527   4.986  18.219  0.00  0.00    +0.000 NA
ATOM     28  C   UNL     1      51.514   4.304  18.642  0.00  0.00    +0.000 A 
ATOM     29  N   UNL     1      50.234   4.435  18.172  0.00  0.00    +0.000 N 
ATOM     30  C   UNL     1      49.884   5.340  17.197  0.00  0.00    +0.000 A 
ATOM     31  O   UNL     1      48.722   5.461  16.825  0.00  0.00    +0.000 OA
ATOM     32  C   UNL     1      50.990   6.123  16.677  0.00  0.00    +0.000 A 
ATOM     33  H   UNL     1      49.485   3.876  18.553  0.00  0.00    +0.000 HD
ENDBRANCH  20  23
ENDBRANCH  18  19
ENDBRANCH   4  18
TORSDOF 7
ENDMDL
MODEL 5
REMARK VINA RESULT:    -7.252      4.226      6.353
REMARK INTER + INTRA:         -11.227
REMARK INTER:                 -10.049
REMARK INTRA:                  -1.177
REMARK UNBOUND:                -1.008
REMARK  Name = 
REMARK  8 active torsions:
REMARK  status: ('A' for Active; 'I' for Inactive)
REMARK    1  A    between atoms: C_1  and  C_2
REMARK    2  A    between atoms: C_5  and  C_6
REMARK    3  A    between atoms: C_6  and  N_7
REMARK    4  A    between atoms: N_7  and  C_8
REMARK    5  A    between atoms: C_8  and  C_9
REMARK    6  A    between atoms: C_12  and  C_13
REMARK    7  A    between atoms: C_13  and  N_14
REMARK    8  A    between atoms: C_15  and  C_17
REMARK                            x       y       z     vdW  Elec       q    Type
REMARK                         _______ _______ _______ _____ _____    ______ ____
ROOT
ATOM      1  C   UNL     1      44.945   5.852  12.065  0.00  0.00    +0.000 A 
ATOM      2  C   UNL     1      45.419   5.079  13.124  0.00  0.00    +0.000 A 
ATOM      3  C   UNL     1      46.689   5.340  13.633  0.00  0.00    +0.000 A 
ATOM      4  C   UNL     1      47.468   6.350  13.066  0.00  0.00    +0.000 A 
ATOM      5  C   UNL     1      46.908   7.079  12.025  0.00  0.00    +0.000 A 
ATOM      6  N   UNL     1      45.674   6.856  11.515  0.00  0.00    +0.000 NA
ENDROOT
BRANCH   1   7
ATOM      7  C   UNL     1      43.555   5.614  11.506  0.00  0.00    +0.000 C 
BRANCH   7   8
ATOM      8  N   UNL     1      43.532   5.001  10.168  0.00  0.00    +0.000 NA
ATOM      9  H   UNL     1      42.585   5.079   9.798  0.00  0.00    +0.000 HD
BRANCH   8  10
ATOM     10  C   UNL     1      43.879   3.577  10.226  0.00  0.00    +0.000 C 
BRANCH  10  15
ATOM     11  C   UNL     1      47.838   2.077   6.318  0.00  0.00    +0.000 C 
ATOM     12  C   UNL     1      46.815   2.518   7.321  0.00  0.00    +0.000 A 
ATOM     13  C   UNL     1      46.481   3.859   7.459  0.00  0.00    +0.000 A 
ATOM     14  C   UNL     1      45.520   4.218   8.403  0.00  0.00    +0.000 A 
ATOM     15  C   UNL     1      44.911   3.233   9.185  0.00  0.00    +0.000 A 
ATOM     16  C   UNL     1      45.319   1.920   8.981  0.00  0.00    +0.000 A 
ATOM     17  N   UNL     1      46.251   1.544   8.075  0.00  0.00    +0.000 NA
ENDBRANCH  10  15
ENDBRANCH   8  10
ENDBRANCH   7   8
ENDBRANCH   1   7
BRANCH   4  18
ATOM     18  C   UNL     1      48.837   6.668  13.589  0.00  0.00    +0.000 C 
BRANCH  18  19
ATOM     19  N   UNL     1      49.599   7.428  12.631  0.00  0.00    +0.000 N 
ATOM     20  C   UNL     1      50.704   8.143  13.018  0.00  0.00    +0.000 C 
ATOM     21  O   UNL     1      51.114   8.125  14.175  0.00  0.00    +0.000 OA
ATOM     22  H   UNL     1      49.153   7.643  11.745  0.00  0.00    +0.000 HD
BRANCH  20  23
ATOM     23  C   UNL     1      51.413   8.882  11.966  0.00  0.00    +0.000 A 
ATOM     24  C   UNL     1      52.745   8.592  11.704  0.00  0.00    +0.000 A 
ATOM     25  S   UNL     1      53.405   9.503  10.422  0.00  0.00    +0.000 S 
ATOM     26  C   UNL     1      51.948  10.353  10.204  0.00  0.00    +0.000 A 
ATOM     27  N   UNL     1      51.841  11.323   9.256  0.00  0.00    +0.000 NA
ATOM     28  C   UNL     1      50.691  11.910   9.221  0.00  0.00    +0.000 A 
ATOM     29  N   UNL     1      49.636  11.610  10.043  0.00  0.00    +0.000 N 
ATOM     30  C   UNL     1      49.689  10.619  10.995  0.00  0.00    +0.000 A 
ATOM     31  O   UNL     1      48.714  10.348  11.689  0.00  0.00    +0.000 OA
ATOM     32  C   UNL     1      50.966   9.937  11.086  0.00  0.00    +0.000 A 
ATOM     33  H   UNL     1      48.760  12.102   9.957  0.00  0.00    +0.000 HD
ENDBRANCH  20  23
ENDBRANCH  18  19
ENDBRANCH   4  18
TORSDOF 7
ENDMDL
MODEL 6
REMARK VINA RESULT:    -6.882      5.003      9.741
REMARK INTER + INTRA:         -10.706
REMARK INTER:                  -9.782
REMARK INTRA:                  -0.924
REMARK UNBOUND:                -1.008
REMARK  Name = 
REMARK  8 active torsions:
REMARK  status: ('A' for Active; 'I' for Inactive)
REMARK    1  A    between atoms: C_1  and  C_2
REMARK    2  A    between atoms: C_5  and  C_6
REMARK    3  A    between atoms: C_6  and  N_7
REMARK    4  A    between atoms: N_7  and  C_8
REMARK    5  A    between atoms: C_8  and  C_9
REMARK    6  A    between atoms: C_12  and  C_13
REMARK    7  A    between atoms: C_13  and  N_14
REMARK    8  A    between atoms: C_15  and  C_17
REMARK                            x       y       z     vdW  Elec       q    Type
REMARK                         _______ _______ _______ _____ _____    ______ ____
ROOT
ATOM      1  C   UNL     1      51.388   3.471  18.071  0.00  0.00    +0.000 A 
ATOM      2  C   UNL     1      50.897   2.361  17.386  0.00  0.00    +0.000 A 
ATOM      3  C   UNL     1      49.552   2.331  17.027  0.00  0.00    +0.000 A 
ATOM      4  C   UNL     1      48.719   3.396  17.374  0.00  0.00    +0.000 A 
ATOM      5  C   UNL     1      49.298   4.467  18.043  0.00  0.00    +0.000 A 
ATOM      6  N   UNL     1      50.604   4.529  18.397  0.00  0.00    +0.000 NA
ENDROOT
BRANCH   1   7
ATOM      7  C   UNL     1      52.855   3.549  18.452  0.00  0.00    +0.000 C 
BRANCH   7   8
ATOM      8  N   UNL     1      53.312   2.471  19.345  0.00  0.00    +0.000 NA
ATOM      9  H   UNL     1      53.268   2.814  20.304  0.00  0.00    +0.000 HD
BRANCH   8  10
ATOM     10  C   UNL     1      54.700   2.094  19.061  0.00  0.00    +0.000 C 
BRANCH  10  15
ATOM     11  C   UNL     1      54.985  -3.017  16.418  0.00  0.00    +0.000 C 
ATOM     12  C   UNL     1      54.909  -1.664  17.058  0.00  0.00    +0.000 A 
ATOM     13  C   UNL     1      54.803  -0.513  16.287  0.00  0.00    +0.000 A 
ATOM     14  C   UNL     1      54.732   0.721  16.930  0.00  0.00    +0.000 A 
ATOM     15  C   UNL     1      54.761   0.781  18.326  0.00  0.00    +0.000 A 
ATOM     16  C   UNL     1      54.879  -0.422  19.010  0.00  0.00    +0.000 A 
ATOM     17  N   UNL     1      54.953  -1.634  18.411  0.00  0.00    +0.000 NA
ENDBRANCH  10  15
ENDBRANCH   8  10
ENDBRANCH   7   8
ENDBRANCH   1   7
BRANCH   4  18
ATOM     18  C   UNL     1      47.267   3.407  17.001  0.00  0.00    +0.000 C 
BRANCH  18  19
ATOM     19  N   UNL     1      46.983   4.438  16.034  0.00  0.00    +0.000 N 
ATOM     20  C   UNL     1      47.088   4.190  14.689  0.00  0.00    +0.000 C 
ATOM     21  O   UNL     1      47.377   3.078  14.256  0.00  0.00    +0.000 OA
ATOM     22  H   UNL     1      46.977   5.398  16.364  0.00  0.00    +0.000 HD
BRANCH  20  23
ATOM     23  C   UNL     1      46.775   5.305  13.787  0.00  0.00    +0.000 A 
ATOM     24  C   UNL     1      47.703   6.322  13.609  0.00  0.00    +0.000 A 
ATOM     25  S   UNL     1      47.208   7.513  12.493  0.00  0.00    +0.000 S 
ATOM     26  C   UNL     1      45.714   6.739  12.246  0.00  0.00    +0.000 A 
ATOM     27  N   UNL     1      44.785   7.265  11.404  0.00  0.00    +0.000 NA
ATOM     28  C   UNL     1      43.684   6.593  11.335  0.00  0.00    +0.000 A 
ATOM     29  N   UNL     1      43.431   5.438  12.029  0.00  0.00    +0.000 N 
ATOM     30  C   UNL     1      44.350   4.853  12.868  0.00  0.00    +0.000 A 
ATOM     31  O   UNL     1      44.108   3.797  13.444  0.00  0.00    +0.000 OA
ATOM     32  C   UNL     1      45.601   5.578  12.992  0.00  0.00    +0.000 A 
ATOM     33  H   UNL     1      42.552   4.955  11.922  0.00  0.00    +0.000 HD
ENDBRANCH  20  23
ENDBRANCH  18  19
ENDBRANCH   4  18
TORSDOF 7
ENDMDL
MODEL 7
REMARK VINA RESULT:    -6.840      1.739      2.272
REMARK INTER + INTRA:         -10.647
REMARK INTER:                  -9.936
REMARK INTRA:                  -0.711
REMARK UNBOUND:                -1.008
REMARK  Name = 
REMARK  8 active torsions:
REMARK  status: ('A' for Active; 'I' for Inactive)
REMARK    1  A    between atoms: C_1  and  C_2
REMARK    2  A    between atoms: C_5  and  C_6
REMARK    3  A    between atoms: C_6  and  N_7
REMARK    4  A    between atoms: N_7  and  C_8
REMARK    5  A    between atoms: C_8  and  C_9
REMARK    6  A    between atoms: C_12  and  C_13
REMARK    7  A    between atoms: C_13  and  N_14
REMARK    8  A    between atoms: C_15  and  C_17
REMARK                            x       y       z     vdW  Elec       q    Type
REMARK                         _______ _______ _______ _____ _____    ______ ____
ROOT
ATOM      1  C   UNL     1      45.429   4.802  12.357  0.00  0.00    +0.000 A 
ATOM      2  C   UNL     1      46.253   4.121  13.251  0.00  0.00    +0.000 A 
ATOM      3  C   UNL     1      47.212   4.837  13.963  0.00  0.00    +0.000 A 
ATOM      4  C   UNL     1      47.344   6.211  13.757  0.00  0.00    +0.000 A 
ATOM      5  C   UNL     1      46.469   6.808  12.859  0.00  0.00    +0.000 A 
ATOM      6  N   UNL     1      45.521   6.140  12.159  0.00  0.00    +0.000 NA
ENDROOT
BRANCH   1   7
ATOM      7  C   UNL     1      44.354   4.056  11.587  0.00  0.00    +0.000 C 
BRANCH   7   8
ATOM      8  N   UNL     1      44.753   2.717  11.124  0.00  0.00    +0.000 NA
ATOM      9  H   UNL     1      45.764   2.712  10.997  0.00  0.00    +0.000 HD
BRANCH   8  10
ATOM     10  C   UNL     1      44.131   2.389   9.837  0.00  0.00    +0.000 C 
BRANCH  10  15
ATOM     11  C   UNL     1      48.091   2.338   5.652  0.00  0.00    +0.000 C 
ATOM     12  C   UNL     1      47.051   2.401   6.730  0.00  0.00    +0.000 A 
ATOM     13  C   UNL     1      46.324   3.564   6.954  0.00  0.00    +0.000 A 
ATOM     14  C   UNL     1      45.365   3.572   7.964  0.00  0.00    +0.000 A 
ATOM     15  C   UNL     1      45.147   2.420   8.726  0.00  0.00    +0.000 A 
ATOM     16  C   UNL     1      45.930   1.311   8.434  0.00  0.00    +0.000 A 
ATOM     17  N   UNL     1      46.870   1.276   7.461  0.00  0.00    +0.000 NA
ENDBRANCH  10  15
ENDBRANCH   8  10
ENDBRANCH   7   8
ENDBRANCH   1   7
BRANCH   4  18
ATOM     18  C   UNL     1      48.358   7.021  14.508  0.00  0.00    +0.000 C 
BRANCH  18  19
ATOM     19  N   UNL     1      48.378   6.668  15.906  0.00  0.00    +0.000 N 
ATOM     20  C   UNL     1      49.558   6.380  16.543  0.00  0.00    +0.000 C 
ATOM     21  O   UNL     1      50.640   6.458  15.967  0.00  0.00    +0.000 OA
ATOM     22  H   UNL     1      47.501   6.373  16.325  0.00  0.00    +0.000 HD
BRANCH  20  23
ATOM     23  C   UNL     1      49.471   6.034  17.967  0.00  0.00    +0.000 A 
ATOM     24  C   UNL     1      48.703   4.948  18.362  0.00  0.00    +0.000 A 
ATOM     25  S   UNL     1      48.748   4.652  20.041  0.00  0.00    +0.000 S 
ATOM     26  C   UNL     1      49.755   5.996  20.306  0.00  0.00    +0.000 A 
ATOM     27  N   UNL     1      50.158   6.329  21.562  0.00  0.00    +0.000 NA
ATOM     28  C   UNL     1      50.893   7.390  21.622  0.00  0.00    +0.000 A 
ATOM     29  N   UNL     1      51.265   8.144  20.540  0.00  0.00    +0.000 N 
ATOM     30  C   UNL     1      50.906   7.830  19.250  0.00  0.00    +0.000 A 
ATOM     31  O   UNL     1      51.289   8.502  18.299  0.00  0.00    +0.000 OA
ATOM     32  C   UNL     1      50.067   6.652  19.128  0.00  0.00    +0.000 A 
ATOM     33  H   UNL     1      51.850   8.958  20.656  0.00  0.00    +0.000 HD
ENDBRANCH  20  23
ENDBRANCH  18  19
ENDBRANCH   4  18
TORSDOF 7
ENDMDL
MODEL 8
REMARK VINA RESULT:    -6.833      1.725      2.194
REMARK INTER + INTRA:         -10.638
REMARK INTER:                 -10.427
REMARK INTRA:                  -0.211
REMARK UNBOUND:                -1.008
REMARK  Name = 
REMARK  8 active torsions:
REMARK  status: ('A' for Active; 'I' for Inactive)
REMARK    1  A    between atoms: C_1  and  C_2
REMARK    2  A    between atoms: C_5  and  C_6
REMARK    3  A    between atoms: C_6  and  N_7
REMARK    4  A    between atoms: N_7  and  C_8
REMARK    5  A    between atoms: C_8  and  C_9
REMARK    6  A    between atoms: C_12  and  C_13
REMARK    7  A    between atoms: C_13  and  N_14
REMARK    8  A    between atoms: C_15  and  C_17
REMARK                            x       y       z     vdW  Elec       q    Type
REMARK                         _______ _______ _______ _____ _____    ______ ____
ROOT
ATOM      1  C   UNL     1      46.194   5.372  11.976  0.00  0.00    +0.000 A 
ATOM      2  C   UNL     1      46.935   6.293  12.714  0.00  0.00    +0.000 A 
ATOM      3  C   UNL     1      47.336   5.956  14.004  0.00  0.00    +0.000 A 
ATOM      4  C   UNL     1      46.976   4.718  14.540  0.00  0.00    +0.000 A 
ATOM      5  C   UNL     1      46.250   3.858  13.726  0.00  0.00    +0.000 A 
ATOM      6  N   UNL     1      45.854   4.154  12.466  0.00  0.00    +0.000 NA
ENDROOT
BRANCH   1   7
ATOM      7  C   UNL     1      45.765   5.697  10.557  0.00  0.00    +0.000 C 
BRANCH   7   8
ATOM      8  N   UNL     1      44.308   5.765  10.360  0.00  0.00    +0.000 NA
ATOM      9  H   UNL     1      43.884   6.091  11.228  0.00  0.00    +0.000 HD
BRANCH   8  10
ATOM     10  C   UNL     1      43.747   4.446  10.048  0.00  0.00    +0.000 C 
BRANCH  10  15
ATOM     11  C   UNL     1      47.359   1.263   6.884  0.00  0.00    +0.000 C 
ATOM     12  C   UNL     1      46.430   2.132   7.676  0.00  0.00    +0.000 A 
ATOM     13  C   UNL     1      46.208   3.456   7.316  0.00  0.00    +0.000 A 
ATOM     14  C   UNL     1      45.331   4.221   8.082  0.00  0.00    +0.000 A 
ATOM     15  C   UNL     1      44.691   3.651   9.186  0.00  0.00    +0.000 A 
ATOM     16  C   UNL     1      44.985   2.324   9.472  0.00  0.00    +0.000 A 
ATOM     17  N   UNL     1      45.833   1.559   8.748  0.00  0.00    +0.000 NA
ENDBRANCH  10  15
ENDBRANCH   8  10
ENDBRANCH   7   8
ENDBRANCH   1   7
BRANCH   4  18
ATOM     18  C   UNL     1      47.394   4.312  15.922  0.00  0.00    +0.000 C 
BRANCH  18  19
ATOM     19  N   UNL     1      47.900   5.437  16.667  0.00  0.00    +0.000 N 
ATOM     20  C   UNL     1      49.167   5.423  17.192  0.00  0.00    +0.000 C 
ATOM     21  O   UNL     1      49.933   4.481  17.008  0.00  0.00    +0.000 OA
ATOM     22  H   UNL     1      47.221   6.104  17.023  0.00  0.00    +0.000 HD
BRANCH  20  23
ATOM     23  C   UNL     1      49.588   6.619  17.932  0.00  0.00    +0.000 A 
ATOM     24  C   UNL     1      50.721   7.310  17.527  0.00  0.00    +0.000 A 
ATOM     25  S   UNL     1      51.044   8.701  18.459  0.00  0.00    +0.000 S 
ATOM     26  C   UNL     1      49.710   8.401  19.469  0.00  0.00    +0.000 A 
ATOM     27  N   UNL     1      49.425   9.224  20.514  0.00  0.00    +0.000 NA
ATOM     28  C   UNL     1      48.404   8.860  21.217  0.00  0.00    +0.000 A 
ATOM     29  N   UNL     1      47.639   7.752  20.966  0.00  0.00    +0.000 N 
ATOM     30  C   UNL     1      47.870   6.908  19.905  0.00  0.00    +0.000 A 
ATOM     31  O   UNL     1      47.142   5.946  19.684  0.00  0.00    +0.000 OA
ATOM     32  C   UNL     1      49.016   7.264  19.090  0.00  0.00    +0.000 A 
ATOM     33  H   UNL     1      46.847   7.529  21.550  0.00  0.00    +0.000 HD
ENDBRANCH  20  23
ENDBRANCH  18  19
ENDBRANCH   4  18
TORSDOF 7
ENDMDL
MODEL 9
REMARK VINA RESULT:    -6.766      3.293      9.060
REMARK INTER + INTRA:         -10.542
REMARK INTER:                  -9.482
REMARK INTRA:                  -1.061
REMARK UNBOUND:                -1.008
REMARK  Name = 
REMARK  8 active torsions:
REMARK  status: ('A' for Active; 'I' for Inactive)
REMARK    1  A    between atoms: C_1  and  C_2
REMARK    2  A    between atoms: C_5  and  C_6
REMARK    3  A    between atoms: C_6  and  N_7
REMARK    4  A    between atoms: N_7  and  C_8
REMARK    5  A    between atoms: C_8  and  C_9
REMARK    6  A    between atoms: C_12  and  C_13
REMARK    7  A    between atoms: C_13  and  N_14
REMARK    8  A    between atoms: C_15  and  C_17
REMARK                            x       y       z     vdW  Elec       q    Type
REMARK                         _______ _______ _______ _____ _____    ______ ____
ROOT
ATOM      1  C   UNL     1      48.711   8.216  16.292  0.00  0.00    +0.000 A 
ATOM      2  C   UNL     1      48.267   9.332  15.586  0.00  0.00    +0.000 A 
ATOM      3  C   UNL     1      47.945   9.192  14.238  0.00  0.00    +0.000 A 
ATOM      4  C   UNL     1      48.092   7.951  13.616  0.00  0.00    +0.000 A 
ATOM      5  C   UNL     1      48.526   6.891  14.403  0.00  0.00    +0.000 A 
ATOM      6  N   UNL     1      48.836   6.994  15.717  0.00  0.00    +0.000 NA
ENDROOT
BRANCH   1   7
ATOM      7  C   UNL     1      49.041   8.327  17.769  0.00  0.00    +0.000 C 
BRANCH   7   8
ATOM      8  N   UNL     1      47.920   8.015  18.671  0.00  0.00    +0.000 NA
ATOM      9  H   UNL     1      47.732   8.838  19.242  0.00  0.00    +0.000 HD
BRANCH   8  10
ATOM     10  C   UNL     1      48.251   6.905  19.571  0.00  0.00    +0.000 C 
BRANCH  10  15
ATOM     11  C   UNL     1      49.081   2.013  16.644  0.00  0.00    +0.000 C 
ATOM     12  C   UNL     1      48.815   3.285  17.391  0.00  0.00    +0.000 A 
ATOM     13  C   UNL     1      47.536   3.826  17.448  0.00  0.00    +0.000 A 
ATOM     14  C   UNL     1      47.339   5.007  18.160  0.00  0.00    +0.000 A 
ATOM     15  C   UNL     1      48.417   5.621  18.803  0.00  0.00    +0.000 A 
ATOM     16  C   UNL     1      49.659   5.010  18.680  0.00  0.00    +0.000 A 
ATOM     17  N   UNL     1      49.879   3.865  17.994  0.00  0.00    +0.000 NA
ENDBRANCH  10  15
ENDBRANCH   8  10
ENDBRANCH   7   8
ENDBRANCH   1   7
BRANCH   4  18
ATOM     18  C   UNL     1      47.750   7.755  12.169  0.00  0.00    +0.000 C 
BRANCH  18  19
ATOM     19  N   UNL     1      47.032   6.523  11.963  0.00  0.00    +0.000 N 
ATOM     20  C   UNL     1      45.697   6.531  11.646  0.00  0.00    +0.000 C 
ATOM     21  O   UNL     1      45.078   7.577  11.477  0.00  0.00    +0.000 OA
ATOM     22  H   UNL     1      47.453   5.672  12.322  0.00  0.00    +0.000 HD
BRANCH  20  23
ATOM     23  C   UNL     1      45.058   5.223  11.453  0.00  0.00    +0.000 A 
ATOM     24  C   UNL     1      44.378   4.632  12.509  0.00  0.00    +0.000 A 
ATOM     25  S   UNL     1      43.652   3.142  12.108  0.00  0.00    +0.000 S 
ATOM     26  C   UNL     1      44.264   3.209  10.523  0.00  0.00    +0.000 A 
ATOM     27  N   UNL     1      44.024   2.203   9.639  0.00  0.00    +0.000 NA
ATOM     28  C   UNL     1      44.575   2.367   8.482  0.00  0.00    +0.000 A 
ATOM     29  N   UNL     1      45.339   3.448   8.127  0.00  0.00    +0.000 N 
ATOM     30  C   UNL     1      45.584   4.502   8.977  0.00  0.00    +0.000 A 
ATOM     31  O   UNL     1      46.239   5.474   8.617  0.00  0.00    +0.000 OA
ATOM     32  C   UNL     1      44.998   4.360  10.297  0.00  0.00    +0.000 A 
ATOM     33  H   UNL     1      45.733   3.519   7.202  0.00  0.00    +0.000 HD
ENDBRANCH  20  23
ENDBRANCH  18  19
ENDBRANCH   4  18
TORSDOF 7
ENDMDL
