MODEL 1
REMARK VINA RESULT:    -8.239      0.000      0.000
REMARK INTER + INTRA:         -12.235
REMARK INTER:                 -11.129
REMARK INTRA:                  -1.105
REMARK UNBOUND:                -1.105
REMARK  Name = 
REMARK  7 active torsions:
REMARK  status: ('A' for Active; 'I' for Inactive)
REMARK    1  A    between atoms: C_1  and  N_2
REMARK    2  A    between atoms: N_2  and  C_3
REMARK    3  A    between atoms: C_3  and  C_4
REMARK    4  A    between atoms: C_7  and  C_8
REMARK    5  A    between atoms: C_8  and  N_9
REMARK    6  A    between atoms: C_10  and  C_12
REMARK    7  A    between atoms: C_24  and  C_26
REMARK                            x       y       z     vdW  Elec       q    Type
REMARK                         _______ _______ _______ _____ _____    ______ ____
ROOT
ATOM      1  C   UNL     1      46.422   4.571  13.443  0.00  0.00    +0.000 A 
ATOM      2  C   UNL     1      46.683   4.182  14.767  0.00  0.00    +0.000 A 
ATOM      3  C   UNL     1      47.558   4.920  15.564  0.00  0.00    +0.000 A 
ATOM      4  C   UNL     1      48.178   6.069  15.056  0.00  0.00    +0.000 A 
ATOM      5  C   UNL     1      47.925   6.448  13.731  0.00  0.00    +0.000 A 
ATOM      6  C   UNL     1      47.047   5.714  12.933  0.00  0.00    +0.000 A 
ENDROOT
BRANCH   1   7
ATOM      7  C   UNL     1      45.515   3.739  12.575  0.00  0.00    +0.000 C 
BRANCH   7   9
ATOM      8  C   UNL     1      43.383   5.060  12.977  0.00  0.00    +0.000 C 
ATOM      9  N   UNL     1      44.271   4.332  12.075  0.00  0.00    +0.000 N 
ATOM     10  C   UNL     1      43.954   4.445  10.708  0.00  0.00    +0.000 C 
ATOM     11  O   UNL     1      42.990   5.111  10.322  0.00  0.00    +0.000 OA
BRANCH  10  12
ATOM     12  C   UNL     1      44.787   3.815   9.650  0.00  0.00    +0.000 A 
ATOM     13  C   UNL     1      44.885   2.444   9.413  0.00  0.00    +0.000 A 
ATOM     14  C   UNL     1      45.741   1.966   8.421  0.00  0.00    +0.000 A 
ATOM     15  C   UNL     1      46.423   2.884   7.642  0.00  0.00    +0.000 A 
ATOM     16  N   UNL     1      46.301   4.220   7.788  0.00  0.00    +0.000 NA
ATOM     17  C   UNL     1      45.481   4.654   8.782  0.00  0.00    +0.000 A 
ENDBRANCH  10  12
ENDBRANCH   7   9
ENDBRANCH   1   7
BRANCH   4  18
ATOM     18  C   UNL     1      49.165   6.842  15.890  0.00  0.00    +0.000 C 
BRANCH  18  19
ATOM     19  N   UNL     1      50.196   5.966  16.378  0.00  0.00    +0.000 N 
ATOM     20  C   UNL     1      50.385   5.755  17.718  0.00  0.00    +0.000 C 
ATOM     21  O   UNL     1      49.663   6.268  18.567  0.00  0.00    +0.000 OA
ATOM     22  H   UNL     1      50.928   5.713  15.722  0.00  0.00    +0.000 HD
BRANCH  20  23
ATOM     23  C   UNL     1      51.463   4.827  18.079  0.00  0.00    +0.000 A 
ATOM     24  C   UNL     1      52.596   5.308  18.721  0.00  0.00    +0.000 A 
ATOM     25  S   UNL     1      53.714   4.091  19.140  0.00  0.00    +0.000 S 
ATOM     26  C   UNL     1      52.751   2.883  18.425  0.00  0.00    +0.000 A 
ATOM     27  N   UNL     1      53.155   1.586  18.417  0.00  0.00    +0.000 NA
ATOM     28  C   UNL     1      52.347   0.779  17.811  0.00  0.00    +0.000 A 
ATOM     29  N   UNL     1      51.171   1.155  17.216  0.00  0.00    +0.000 N 
ATOM     30  C   UNL     1      50.713   2.451  17.217  0.00  0.00    +0.000 A 
ATOM     31  O   UNL     1      49.639   2.746  16.703  0.00  0.00    +0.000 OA
ATOM     32  C   UNL     1      51.588   3.400  17.882  0.00  0.00    +0.000 A 
ATOM     33  H   UNL     1      50.582   0.474  16.760  0.00  0.00    +0.000 HD
ENDBRANCH  20  23
ENDBRANCH  18  19
ENDBRANCH   4  18
TORSDOF 6
ENDMDL
MODEL 2
REMARK VINA RESULT:    -7.750      2.574      3.109
REMARK INTER + INTRA:         -11.574
REMARK INTER:                 -10.819
REMARK INTRA:                  -0.756
REMARK UNBOUND:                -1.105
REMARK  Name = 
REMARK  7 active torsions:
REMARK  status: ('A' for Active; 'I' for Inactive)
REMARK    1  A    between atoms: C_1  and  N_2
REMARK    2  A    between atoms: N_2  and  C_3
REMARK    3  A    between atoms: C_3  and  C_4
REMARK    4  A    between atoms: C_7  and  C_8
REMARK    5  A    between atoms: C_8  and  N_9
REMARK    6  A    between atoms: C_10  and  C_12
REMARK    7  A    between atoms: C_24  and  C_26
REMARK                            x       y       z     vdW  Elec       q    Type
REMARK                         _______ _______ _______ _____ _____    ______ ____
ROOT
ATOM      1  C   UNL     1      45.441   6.735  11.467  0.00  0.00    +0.000 A 
ATOM      2  C   UNL     1      45.049   7.937  12.079  0.00  0.00    +0.000 A 
ATOM      3  C   UNL     1      45.918   8.614  12.936  0.00  0.00    +0.000 A 
ATOM      4  C   UNL     1      47.199   8.108  13.186  0.00  0.00    +0.000 A 
ATOM      5  C   UNL     1      47.584   6.902  12.584  0.00  0.00    +0.000 A 
ATOM      6  C   UNL     1      46.719   6.226  11.724  0.00  0.00    +0.000 A 
ENDROOT
BRANCH   1   7
ATOM      7  C   UNL     1      44.478   5.987  10.584  0.00  0.00    +0.000 C 
BRANCH   7   9
ATOM      8  C   UNL     1      42.840   4.841  12.150  0.00  0.00    +0.000 C 
ATOM      9  N   UNL     1      43.848   4.766  11.096  0.00  0.00    +0.000 N 
ATOM     10  C   UNL     1      43.981   3.504  10.487  0.00  0.00    +0.000 C 
ATOM     11  O   UNL     1      43.292   2.543  10.838  0.00  0.00    +0.000 OA
BRANCH  10  12
ATOM     12  C   UNL     1      44.919   3.268   9.358  0.00  0.00    +0.000 A 
ATOM     13  C   UNL     1      45.443   4.258   8.526  0.00  0.00    +0.000 A 
ATOM     14  C   UNL     1      46.278   3.908   7.465  0.00  0.00    +0.000 A 
ATOM     15  C   UNL     1      46.623   2.577   7.310  0.00  0.00    +0.000 A 
ATOM     16  N   UNL     1      46.198   1.598   8.135  0.00  0.00    +0.000 NA
ATOM     17  C   UNL     1      45.364   1.966   9.143  0.00  0.00    +0.000 A 
ENDBRANCH  10  12
ENDBRANCH   7   9
ENDBRANCH   1   7
BRANCH   4  18
ATOM     18  C   UNL     1      48.124   8.802  14.151  0.00  0.00    +0.000 C 
BRANCH  18  19
ATOM     19  N   UNL     1      48.356   7.971  15.302  0.00  0.00    +0.000 N 
ATOM     20  C   UNL     1      49.572   7.383  15.529  0.00  0.00    +0.000 C 
ATOM     21  O   UNL     1      50.533   7.564  14.789  0.00  0.00    +0.000 OA
ATOM     22  H   UNL     1      47.535   7.634  15.795  0.00  0.00    +0.000 HD
BRANCH  20  23
ATOM     23  C   UNL     1      49.677   6.571  16.748  0.00  0.00    +0.000 A 
ATOM     24  C   UNL     1      50.548   6.959  17.757  0.00  0.00    +0.000 A 
ATOM     25  S   UNL     1      50.492   5.955  19.133  0.00  0.00    +0.000 S 
ATOM     26  C   UNL     1      49.343   4.931  18.407  0.00  0.00    +0.000 A 
ATOM     27  N   UNL     1      48.876   3.834  19.060  0.00  0.00    +0.000 NA
ATOM     28  C   UNL     1      48.035   3.126  18.381  0.00  0.00    +0.000 A 
ATOM     29  N   UNL     1      47.620   3.417  17.108  0.00  0.00    +0.000 N 
ATOM     30  C   UNL     1      48.049   4.525  16.416  0.00  0.00    +0.000 A 
ATOM     31  O   UNL     1      47.630   4.773  15.290  0.00  0.00    +0.000 OA
ATOM     32  C   UNL     1      49.000   5.354  17.134  0.00  0.00    +0.000 A 
ATOM     33  H   UNL     1      46.957   2.822  16.631  0.00  0.00    +0.000 HD
ENDBRANCH  20  23
ENDBRANCH  18  19
ENDBRANCH   4  18
TORSDOF 6
ENDMDL
MODEL 3
REMARK VINA RESULT:    -7.457      3.156      3.812
REMARK INTER + INTRA:         -11.178
REMARK INTER:                  -9.991
REMARK INTRA:                  -1.187
REMARK UNBOUND:                -1.105
REMARK  Name = 
REMARK  7 active torsions:
REMARK  status: ('A' for Active; 'I' for Inactive)
REMARK    1  A    between atoms: C_1  and  N_2
REMARK    2  A    between atoms: N_2  and  C_3
REMARK    3  A    between atoms: C_3  and  C_4
REMARK    4  A    between atoms: C_7  and  C_8
REMARK    5  A    between atoms: C_8  and  N_9
REMARK    6  A    between atoms: C_10  and  C_12
REMARK    7  A    between atoms: C_24  and  C_26
REMARK                            x       y       z     vdW  Elec       q    Type
REMARK                         _______ _______ _______ _____ _____    ______ ____
ROOT
ATOM      1  C   UNL     1      46.416   4.571  13.271  0.00  0.00    +0.000 A 
ATOM      2  C   UNL     1      46.837   5.770  12.672  0.00  0.00    +0.000 A 
ATOM      3  C   UNL     1      47.671   6.653  13.359  0.00  0.00    +0.000 A 
ATOM      4  C   UNL     1      48.109   6.347  14.654  0.00  0.00    +0.000 A 
ATOM      5  C   UNL     1      47.678   5.156  15.254  0.00  0.00    +0.000 A 
ATOM      6  C   UNL     1      46.848   4.270  14.567  0.00  0.00    +0.000 A 
ENDROOT
BRANCH   1   7
ATOM      7  C   UNL     1      45.476   3.650  12.540  0.00  0.00    +0.000 C 
BRANCH   7   9
ATOM      8  C   UNL     1      43.264   4.834  12.943  0.00  0.00    +0.000 C 
ATOM      9  N   UNL     1      44.207   4.185  12.035  0.00  0.00    +0.000 N 
ATOM     10  C   UNL     1      43.906   4.321  10.667  0.00  0.00    +0.000 C 
ATOM     11  O   UNL     1      42.911   4.941  10.284  0.00  0.00    +0.000 OA
BRANCH  10  12
ATOM     12  C   UNL     1      44.791   3.772   9.606  0.00  0.00    +0.000 A 
ATOM     13  C   UNL     1      44.952   2.416   9.314  0.00  0.00    +0.000 A 
ATOM     14  C   UNL     1      45.851   2.018   8.326  0.00  0.00    +0.000 A 
ATOM     15  C   UNL     1      46.514   2.995   7.605  0.00  0.00    +0.000 A 
ATOM     16  N   UNL     1      46.332   4.317   7.804  0.00  0.00    +0.000 NA
ATOM     17  C   UNL     1      45.470   4.674   8.793  0.00  0.00    +0.000 A 
ENDBRANCH  10  12
ENDBRANCH   7   9
ENDBRANCH   1   7
BRANCH   4  18
ATOM     18  C   UNL     1      48.965   7.317  15.424  0.00  0.00    +0.000 C 
BRANCH  18  19
ATOM     19  N   UNL     1      48.530   7.384  16.793  0.00  0.00    +0.000 N 
ATOM     20  C   UNL     1      49.217   8.111  17.730  0.00  0.00    +0.000 C 
ATOM     21  O   UNL     1      50.210   8.771  17.444  0.00  0.00    +0.000 OA
ATOM     22  H   UNL     1      47.858   6.685  17.094  0.00  0.00    +0.000 HD
BRANCH  20  23
ATOM     23  C   UNL     1      48.657   8.105  19.087  0.00  0.00    +0.000 A 
ATOM     24  C   UNL     1      48.358   9.309  19.710  0.00  0.00    +0.000 A 
ATOM     25  S   UNL     1      47.644   9.125  21.247  0.00  0.00    +0.000 S 
ATOM     26  C   UNL     1      47.761   7.430  21.159  0.00  0.00    +0.000 A 
ATOM     27  N   UNL     1      47.337   6.649  22.187  0.00  0.00    +0.000 NA
ATOM     28  C   UNL     1      47.516   5.382  22.005  0.00  0.00    +0.000 A 
ATOM     29  N   UNL     1      48.081   4.828  20.886  0.00  0.00    +0.000 N 
ATOM     30  C   UNL     1      48.506   5.576  19.814  0.00  0.00    +0.000 A 
ATOM     31  O   UNL     1      48.976   5.044  18.814  0.00  0.00    +0.000 OA
ATOM     32  C   UNL     1      48.330   7.009  19.970  0.00  0.00    +0.000 A 
ATOM     33  H   UNL     1      48.192   3.827  20.804  0.00  0.00    +0.000 HD
ENDBRANCH  20  23
ENDBRANCH  18  19
ENDBRANCH   4  18
TORSDOF 6
ENDMDL
MODEL 4
REMARK VINA RESULT:    -7.397      1.871      3.258
REMARK INTER + INTRA:         -11.097
REMARK INTER:                  -9.923
REMARK INTRA:                  -1.175
REMARK UNBOUND:                -1.105
REMARK  Name = 
REMARK  7 active torsions:
REMARK  status: ('A' for Active; 'I' for Inactive)
REMARK    1  A    between atoms: C_1  and  N_2
REMARK    2  A    between atoms: N_2  and  C_3
REMARK    3  A    between atoms: C_3  and  C_4
REMARK    4  A    between atoms: C_7  and  C_8
REMARK    5  A    between atoms: C_8  and  N_9
REMARK    6  A    between atoms: C_10  and  C_12
REMARK    7  A    between atoms: C_24  and  C_26
REMARK                            x       y       z     vdW  Elec       q    Type
REMARK                         _______ _______ _______ _____ _____    ______ ____
ROOT
ATOM      1  C   UNL     1      47.440   5.701  13.714  0.00  0.00    +0.000 A 
ATOM      2  C   UNL     1      46.913   4.398  13.691  0.00  0.00    +0.000 A 
ATOM      3  C   UNL     1      46.969   3.589  14.826  0.00  0.00    +0.000 A 
ATOM      4  C   UNL     1      47.541   4.072  16.009  0.00  0.00    +0.000 A 
ATOM      5  C   UNL     1      48.077   5.367  16.027  0.00  0.00    +0.000 A 
ATOM      6  C   UNL     1      48.018   6.179  14.894  0.00  0.00    +0.000 A 
ENDROOT
BRANCH   1   7
ATOM      7  C   UNL     1      47.420   6.547  12.468  0.00  0.00    +0.000 C 
BRANCH   7   9
ATOM      8  C   UNL     1      46.452   8.885  12.693  0.00  0.00    +0.000 C 
ATOM      9  N   UNL     1      46.317   7.493  12.271  0.00  0.00    +0.000 N 
ATOM     10  C   UNL     1      45.180   7.216  11.490  0.00  0.00    +0.000 C 
ATOM     11  O   UNL     1      44.367   8.096  11.199  0.00  0.00    +0.000 OA
BRANCH  10  12
ATOM     12  C   UNL     1      44.918   5.864  10.929  0.00  0.00    +0.000 A 
ATOM     13  C   UNL     1      45.529   5.332   9.793  0.00  0.00    +0.000 A 
ATOM     14  C   UNL     1      45.165   4.067   9.332  0.00  0.00    +0.000 A 
ATOM     15  C   UNL     1      44.247   3.338  10.068  0.00  0.00    +0.000 A 
ATOM     16  N   UNL     1      43.689   3.784  11.211  0.00  0.00    +0.000 NA
ATOM     17  C   UNL     1      44.042   5.031  11.620  0.00  0.00    +0.000 A 
ENDBRANCH  10  12
ENDBRANCH   7   9
ENDBRANCH   1   7
BRANCH   4  18
ATOM     18  C   UNL     1      47.654   3.189  17.223  0.00  0.00    +0.000 C 
BRANCH  18  19
ATOM     19  N   UNL     1      49.033   3.050  17.609  0.00  0.00    +0.000 N 
ATOM     20  C   UNL     1      49.893   2.236  16.919  0.00  0.00    +0.000 C 
ATOM     21  O   UNL     1      49.545   1.618  15.919  0.00  0.00    +0.000 OA
ATOM     22  H   UNL     1      49.281   3.368  18.540  0.00  0.00    +0.000 HD
BRANCH  20  23
ATOM     23  C   UNL     1      51.276   2.197  17.410  0.00  0.00    +0.000 A 
ATOM     24  C   UNL     1      51.909   0.973  17.578  0.00  0.00    +0.000 A 
ATOM     25  S   UNL     1      53.534   1.106  18.078  0.00  0.00    +0.000 S 
ATOM     26  C   UNL     1      53.432   2.803  18.144  0.00  0.00    +0.000 A 
ATOM     27  N   UNL     1      54.499   3.550  18.532  0.00  0.00    +0.000 NA
ATOM     28  C   UNL     1      54.275   4.822  18.572  0.00  0.00    +0.000 A 
ATOM     29  N   UNL     1      53.080   5.413  18.256  0.00  0.00    +0.000 N 
ATOM     30  C   UNL     1      51.980   4.701  17.839  0.00  0.00    +0.000 A 
ATOM     31  O   UNL     1      50.936   5.266  17.531  0.00  0.00    +0.000 OA
ATOM     32  C   UNL     1      52.178   3.264  17.781  0.00  0.00    +0.000 A 
ATOM     33  H   UNL     1      52.969   6.416  18.305  0.00  0.00    +0.000 HD
ENDBRANCH  20  23
ENDBRANCH  18  19
ENDBRANCH   4  18
TORSDOF 6
ENDMDL
MODEL 5
REMARK VINA RESULT:    -7.340      3.498      8.811
REMARK INTER + INTRA:         -11.020
REMARK INTER:                  -9.521
REMARK INTRA:                  -1.499
REMARK UNBOUND:                -1.105
REMARK  Name = 
REMARK  7 active torsions:
REMARK  status: ('A' for Active; 'I' for Inactive)
REMARK    1  A    between atoms: C_1  and  N_2
REMARK    2  A    between atoms: N_2  and  C_3
REMARK    3  A    between atoms: C_3  and  C_4
REMARK    4  A    between atoms: C_7  and  C_8
REMARK    5  A    between atoms: C_8  and  N_9
REMARK    6  A    between atoms: C_10  and  C_12
REMARK    7  A    between atoms: C_24  and  C_26
REMARK                            x       y       z     vdW  Elec       q    Type
REMARK                         _______ _______ _______ _____ _____    ______ ____
ROOT
ATOM      1  C   UNL     1      49.091   7.671  16.118  0.00  0.00    +0.000 A 
ATOM      2  C   UNL     1      48.328   8.784  15.728  0.00  0.00    +0.000 A 
ATOM      3  C   UNL     1      47.763   8.847  14.454  0.00  0.00    +0.000 A 
ATOM      4  C   UNL     1      47.940   7.791  13.551  0.00  0.00    +0.000 A 
ATOM      5  C   UNL     1      48.712   6.687  13.938  0.00  0.00    +0.000 A 
ATOM      6  C   UNL     1      49.274   6.621  15.212  0.00  0.00    +0.000 A 
ENDROOT
BRANCH   1   7
ATOM      7  C   UNL     1      49.738   7.637  17.477  0.00  0.00    +0.000 C 
BRANCH   7   9
ATOM      8  C   UNL     1      48.578   8.749  19.445  0.00  0.00    +0.000 C 
ATOM      9  N   UNL     1      48.886   7.551  18.667  0.00  0.00    +0.000 N 
ATOM     10  C   UNL     1      48.140   6.409  19.013  0.00  0.00    +0.000 C 
ATOM     11  O   UNL     1      47.298   6.436  19.913  0.00  0.00    +0.000 OA
BRANCH  10  12
ATOM     12  C   UNL     1      48.286   5.121  18.285  0.00  0.00    +0.000 A 
ATOM     13  C   UNL     1      49.417   4.304  18.313  0.00  0.00    +0.000 A 
ATOM     14  C   UNL     1      49.456   3.140  17.546  0.00  0.00    +0.000 A 
ATOM     15  C   UNL     1      48.328   2.787  16.826  0.00  0.00    +0.000 A 
ATOM     16  N   UNL     1      47.188   3.509  16.831  0.00  0.00    +0.000 NA
ATOM     17  C   UNL     1      47.190   4.652  17.565  0.00  0.00    +0.000 A 
ENDBRANCH  10  12
ENDBRANCH   7   9
ENDBRANCH   1   7
BRANCH   4  18
ATOM     18  C   UNL     1      47.380   7.873  12.156  0.00  0.00    +0.000 C 
BRANCH  18  19
ATOM     19  N   UNL     1      46.734   6.635  11.807  0.00  0.00    +0.000 N 
ATOM     20  C   UNL     1      45.431   6.385  12.147  0.00  0.00    +0.000 C 
ATOM     21  O   UNL     1      44.738   7.213  12.729  0.00  0.00    +0.000 OA
ATOM     22  H   UNL     1      47.338   5.868  11.531  0.00  0.00    +0.000 HD
BRANCH  20  23
ATOM     23  C   UNL     1      44.891   5.089  11.718  0.00  0.00    +0.000 A 
ATOM     24  C   UNL     1      44.188   4.305  12.623  0.00  0.00    +0.000 A 
ATOM     25  S   UNL     1      43.562   2.872  11.946  0.00  0.00    +0.000 S 
ATOM     26  C   UNL     1      44.258   3.218  10.431  0.00  0.00    +0.000 A 
ATOM     27  N   UNL     1      44.116   2.360   9.387  0.00  0.00    +0.000 NA
ATOM     28  C   UNL     1      44.724   2.727   8.307  0.00  0.00    +0.000 A 
ATOM     29  N   UNL     1      45.458   3.877   8.179  0.00  0.00    +0.000 N 
ATOM     30  C   UNL     1      45.612   4.784   9.200  0.00  0.00    +0.000 A 
ATOM     31  O   UNL     1      46.249   5.821   9.040  0.00  0.00    +0.000 OA
ATOM     32  C   UNL     1      44.951   4.416  10.440  0.00  0.00    +0.000 A 
ATOM     33  H   UNL     1      45.908   4.109   7.305  0.00  0.00    +0.000 HD
ENDBRANCH  20  23
ENDBRANCH  18  19
ENDBRANCH   4  18
TORSDOF 6
ENDMDL
MODEL 6
REMARK VINA RESULT:    -7.239      2.849      3.930
REMARK INTER + INTRA:         -10.884
REMARK INTER:                 -10.629
REMARK INTRA:                  -0.255
REMARK UNBOUND:                -1.105
REMARK  Name = 
REMARK  7 active torsions:
REMARK  status: ('A' for Active; 'I' for Inactive)
REMARK    1  A    between atoms: C_1  and  N_2
REMARK    2  A    between atoms: N_2  and  C_3
REMARK    3  A    between atoms: C_3  and  C_4
REMARK    4  A    between atoms: C_7  and  C_8
REMARK    5  A    between atoms: C_8  and  N_9
REMARK    6  A    between atoms: C_10  and  C_12
REMARK    7  A    between atoms: C_24  and  C_26
REMARK                            x       y       z     vdW  Elec       q    Type
REMARK                         _______ _______ _______ _____ _____    ______ ____
ROOT
ATOM      1  C   UNL     1      46.028   5.905  11.725  0.00  0.00    +0.000 A 
ATOM      2  C   UNL     1      46.349   5.118  12.844  0.00  0.00    +0.000 A 
ATOM      3  C   UNL     1      47.310   5.545  13.760  0.00  0.00    +0.000 A 
ATOM      4  C   UNL     1      47.959   6.773  13.581  0.00  0.00    +0.000 A 
ATOM      5  C   UNL     1      47.647   7.551  12.458  0.00  0.00    +0.000 A 
ATOM      6  C   UNL     1      46.683   7.127  11.543  0.00  0.00    +0.000 A 
ENDROOT
BRANCH   1   7
ATOM      7  C   UNL     1      45.026   5.411  10.715  0.00  0.00    +0.000 C 
BRANCH   7   9
ATOM      8  C   UNL     1      43.251   4.191  12.063  0.00  0.00    +0.000 C 
ATOM      9  N   UNL     1      44.263   4.194  11.009  0.00  0.00    +0.000 N 
ATOM     10  C   UNL     1      44.273   3.049  10.191  0.00  0.00    +0.000 C 
ATOM     11  O   UNL     1      43.482   2.120  10.371  0.00  0.00    +0.000 OA
BRANCH  10  12
ATOM     12  C   UNL     1      45.199   2.912   9.036  0.00  0.00    +0.000 A 
ATOM     13  C   UNL     1      45.853   1.737   8.663  0.00  0.00    +0.000 A 
ATOM     14  C   UNL     1      46.740   1.744   7.587  0.00  0.00    +0.000 A 
ATOM     15  C   UNL     1      46.893   2.916   6.867  0.00  0.00    +0.000 A 
ATOM     16  N   UNL     1      46.225   4.053   7.148  0.00  0.00    +0.000 NA
ATOM     17  C   UNL     1      45.389   4.024   8.219  0.00  0.00    +0.000 A 
ENDBRANCH  10  12
ENDBRANCH   7   9
ENDBRANCH   1   7
BRANCH   4  18
ATOM     18  C   UNL     1      49.036   7.218  14.535  0.00  0.00    +0.000 C 
BRANCH  18  19
ATOM     19  N   UNL     1      48.684   6.860  15.883  0.00  0.00    +0.000 N 
ATOM     20  C   UNL     1      49.542   6.157  16.687  0.00  0.00    +0.000 C 
ATOM     21  O   UNL     1      50.665   5.832  16.316  0.00  0.00    +0.000 OA
ATOM     22  H   UNL     1      47.701   6.922  16.130  0.00  0.00    +0.000 HD
BRANCH  20  23
ATOM     23  C   UNL     1      49.064   5.870  18.045  0.00  0.00    +0.000 A 
ATOM     24  C   UNL     1      49.166   4.581  18.549  0.00  0.00    +0.000 A 
ATOM     25  S   UNL     1      48.639   4.434  20.164  0.00  0.00    +0.000 S 
ATOM     26  C   UNL     1      48.201   6.077  20.229  0.00  0.00    +0.000 A 
ATOM     27  N   UNL     1      47.651   6.608  21.352  0.00  0.00    +0.000 NA
ATOM     28  C   UNL     1      47.333   7.857  21.253  0.00  0.00    +0.000 A 
ATOM     29  N   UNL     1      47.518   8.621  20.131  0.00  0.00    +0.000 N 
ATOM     30  C   UNL     1      48.088   8.134  18.979  0.00  0.00    +0.000 A 
ATOM     31  O   UNL     1      48.270   8.856  18.005  0.00  0.00    +0.000 OA
ATOM     32  C   UNL     1      48.461   6.732  19.037  0.00  0.00    +0.000 A 
ATOM     33  H   UNL     1      47.249   9.595  20.119  0.00  0.00    +0.000 HD
ENDBRANCH  20  23
ENDBRANCH  18  19
ENDBRANCH   4  18
TORSDOF 6
ENDMDL
MODEL 7
REMARK VINA RESULT:    -7.064      1.596      2.219
REMARK INTER + INTRA:         -10.647
REMARK INTER:                  -9.576
REMARK INTRA:                  -1.072
REMARK UNBOUND:                -1.105
REMARK  Name = 
REMARK  7 active torsions:
REMARK  status: ('A' for Active; 'I' for Inactive)
REMARK    1  A    between atoms: C_1  and  N_2
REMARK    2  A    between atoms: N_2  and  C_3
REMARK    3  A    between atoms: C_3  and  C_4
REMARK    4  A    between atoms: C_7  and  C_8
REMARK    5  A    between atoms: C_8  and  N_9
REMARK    6  A    between atoms: C_10  and  C_12
REMARK    7  A    between atoms: C_24  and  C_26
REMARK                            x       y       z     vdW  Elec       q    Type
REMARK                         _______ _______ _______ _____ _____    ______ ____
ROOT
ATOM      1  C   UNL     1      47.418   5.826  13.846  0.00  0.00    +0.000 A 
ATOM      2  C   UNL     1      46.887   4.653  14.408  0.00  0.00    +0.000 A 
ATOM      3  C   UNL     1      47.288   4.228  15.675  0.00  0.00    +0.000 A 
ATOM      4  C   UNL     1      48.218   4.975  16.408  0.00  0.00    +0.000 A 
ATOM      5  C   UNL     1      48.756   6.138  15.841  0.00  0.00    +0.000 A 
ATOM      6  C   UNL     1      48.353   6.567  14.576  0.00  0.00    +0.000 A 
ENDROOT
BRANCH   1   7
ATOM      7  C   UNL     1      47.017   6.248  12.457  0.00  0.00    +0.000 C 
BRANCH   7   9
ATOM      8  C   UNL     1      45.512   8.255  12.859  0.00  0.00    +0.000 C 
ATOM      9  N   UNL     1      45.737   6.939  12.268  0.00  0.00    +0.000 N 
ATOM     10  C   UNL     1      44.751   6.519  11.355  0.00  0.00    +0.000 C 
ATOM     11  O   UNL     1      43.774   7.223  11.092  0.00  0.00    +0.000 OA
BRANCH  10  12
ATOM     12  C   UNL     1      44.854   5.232  10.619  0.00  0.00    +0.000 A 
ATOM     13  C   UNL     1      45.482   5.057   9.385  0.00  0.00    +0.000 A 
ATOM     14  C   UNL     1      45.471   3.808   8.766  0.00  0.00    +0.000 A 
ATOM     15  C   UNL     1      44.891   2.746   9.438  0.00  0.00    +0.000 A 
ATOM     16  N   UNL     1      44.340   2.854  10.664  0.00  0.00    +0.000 NA
ATOM     17  C   UNL     1      44.341   4.090  11.229  0.00  0.00    +0.000 A 
ENDBRANCH  10  12
ENDBRANCH   7   9
ENDBRANCH   1   7
BRANCH   4  18
ATOM     18  C   UNL     1      48.697   4.497  17.754  0.00  0.00    +0.000 C 
BRANCH  18  19
ATOM     19  N   UNL     1      50.054   4.028  17.660  0.00  0.00    +0.000 N 
ATOM     20  C   UNL     1      50.949   4.214  18.679  0.00  0.00    +0.000 C 
ATOM     21  O   UNL     1      50.633   4.752  19.736  0.00  0.00    +0.000 OA
ATOM     22  H   UNL     1      50.390   3.787  16.733  0.00  0.00    +0.000 HD
BRANCH  20  23
ATOM     23  C   UNL     1      52.297   3.675  18.459  0.00  0.00    +0.000 A 
ATOM     24  C   UNL     1      53.405   4.458  18.752  0.00  0.00    +0.000 A 
ATOM     25  S   UNL     1      54.891   3.656  18.516  0.00  0.00    +0.000 S 
ATOM     26  C   UNL     1      54.108   2.252  17.958  0.00  0.00    +0.000 A 
ATOM     27  N   UNL     1      54.823   1.167  17.561  0.00  0.00    +0.000 NA
ATOM     28  C   UNL     1      54.105   0.184  17.127  0.00  0.00    +0.000 A 
ATOM     29  N   UNL     1      52.737   0.189  17.058  0.00  0.00    +0.000 N 
ATOM     30  C   UNL     1      51.971   1.254  17.467  0.00  0.00    +0.000 A 
ATOM     31  O   UNL     1      50.746   1.211  17.423  0.00  0.00    +0.000 OA
ATOM     32  C   UNL     1      52.730   2.390  17.960  0.00  0.00    +0.000 A 
ATOM     33  H   UNL     1      52.234  -0.615  16.710  0.00  0.00    +0.000 HD
ENDBRANCH  20  23
ENDBRANCH  18  19
ENDBRANCH   4  18
TORSDOF 6
ENDMDL
MODEL 8
REMARK VINA RESULT:    -7.037      2.185      2.878
REMARK INTER + INTRA:         -10.610
REMARK INTER:                  -9.945
REMARK INTRA:                  -0.665
REMARK UNBOUND:                -1.105
REMARK  Name = 
REMARK  7 active torsions:
REMARK  status: ('A' for Active; 'I' for Inactive)
REMARK    1  A    between atoms: C_1  and  N_2
REMARK    2  A    between atoms: N_2  and  C_3
REMARK    3  A    between atoms: C_3  and  C_4
REMARK    4  A    between atoms: C_7  and  C_8
REMARK    5  A    between atoms: C_8  and  N_9
REMARK    6  A    between atoms: C_10  and  C_12
REMARK    7  A    between atoms: C_24  and  C_26
REMARK                            x       y       z     vdW  Elec       q    Type
REMARK                         _______ _______ _______ _____ _____    ______ ____
ROOT
ATOM      1  C   UNL     1      45.606   6.656  11.783  0.00  0.00    +0.000 A 
ATOM      2  C   UNL     1      46.542   5.777  12.354  0.00  0.00    +0.000 A 
ATOM      3  C   UNL     1      47.663   6.269  13.022  0.00  0.00    +0.000 A 
ATOM      4  C   UNL     1      47.863   7.650  13.143  0.00  0.00    +0.000 A 
ATOM      5  C   UNL     1      46.935   8.525  12.563  0.00  0.00    +0.000 A 
ATOM      6  C   UNL     1      45.811   8.035  11.898  0.00  0.00    +0.000 A 
ENDROOT
BRANCH   1   7
ATOM      7  C   UNL     1      44.426   6.115  11.021  0.00  0.00    +0.000 C 
BRANCH   7   9
ATOM      8  C   UNL     1      42.781   5.023  12.620  0.00  0.00    +0.000 C 
ATOM      9  N   UNL     1      43.743   4.919  11.526  0.00  0.00    +0.000 N 
ATOM     10  C   UNL     1      43.780   3.668  10.882  0.00  0.00    +0.000 C 
ATOM     11  O   UNL     1      43.049   2.740  11.233  0.00  0.00    +0.000 OA
BRANCH  10  12
ATOM     12  C   UNL     1      44.660   3.408   9.712  0.00  0.00    +0.000 A 
ATOM     13  C   UNL     1      45.191   4.387   8.871  0.00  0.00    +0.000 A 
ATOM     14  C   UNL     1      45.966   4.018   7.773  0.00  0.00    +0.000 A 
ATOM     15  C   UNL     1      46.249   2.676   7.588  0.00  0.00    +0.000 A 
ATOM     16  N   UNL     1      45.818   1.704   8.418  0.00  0.00    +0.000 NA
ATOM     17  C   UNL     1      45.042   2.093   9.464  0.00  0.00    +0.000 A 
ENDBRANCH  10  12
ENDBRANCH   7   9
ENDBRANCH   1   7
BRANCH   4  18
ATOM     18  C   UNL     1      49.098   8.190  13.815  0.00  0.00    +0.000 C 
BRANCH  18  19
ATOM     19  N   UNL     1      49.686   7.183  14.657  0.00  0.00    +0.000 N 
ATOM     20  C   UNL     1      49.486   7.175  16.013  0.00  0.00    +0.000 C 
ATOM     21  O   UNL     1      48.769   7.997  16.572  0.00  0.00    +0.000 OA
ATOM     22  H   UNL     1      50.444   6.640  14.257  0.00  0.00    +0.000 HD
BRANCH  20  23
ATOM     23  C   UNL     1      50.133   6.083  16.752  0.00  0.00    +0.000 A 
ATOM     24  C   UNL     1      49.353   5.181  17.463  0.00  0.00    +0.000 A 
ATOM     25  S   UNL     1      50.251   3.932  18.198  0.00  0.00    +0.000 S 
ATOM     26  C   UNL     1      51.720   4.584  17.640  0.00  0.00    +0.000 A 
ATOM     27  N   UNL     1      52.905   3.993  17.945  0.00  0.00    +0.000 NA
ATOM     28  C   UNL     1      53.944   4.611  17.489  0.00  0.00    +0.000 A 
ATOM     29  N   UNL     1      53.903   5.767  16.753  0.00  0.00    +0.000 N 
ATOM     30  C   UNL     1      52.728   6.389  16.403  0.00  0.00    +0.000 A 
ATOM     31  O   UNL     1      52.727   7.404  15.714  0.00  0.00    +0.000 OA
ATOM     32  C   UNL     1      51.528   5.736  16.895  0.00  0.00    +0.000 A 
ATOM     33  H   UNL     1      54.753   6.200  16.423  0.00  0.00    +0.000 HD
ENDBRANCH  20  23
ENDBRANCH  18  19
ENDBRANCH   4  18
TORSDOF 6
ENDMDL
MODEL 9
REMARK VINA RESULT:    -6.891      5.759      9.016
REMARK INTER + INTRA:         -10.413
REMARK INTER:                  -9.149
REMARK INTRA:                  -1.265
REMARK UNBOUND:                -1.105
REMARK  Name = 
REMARK  7 active torsions:
REMARK  status: ('A' for Active; 'I' for Inactive)
REMARK    1  A    between atoms: C_1  and  N_2
REMARK    2  A    between atoms: N_2  and  C_3
REMARK    3  A    between atoms: C_3  and  C_4
REMARK    4  A    between atoms: C_7  and  C_8
REMARK    5  A    between atoms: C_8  and  N_9
REMARK    6  A    between atoms: C_10  and  C_12
REMARK    7  A    between atoms: C_24  and  C_26
REMARK                            x       y       z     vdW  Elec       q    Type
REMARK                         _______ _______ _______ _____ _____    ______ ____
ROOT
ATOM      1  C   UNL     1      50.028   9.229  11.407  0.00  0.00    +0.000 A 
ATOM      2  C   UNL     1      49.587   7.895  11.421  0.00  0.00    +0.000 A 
ATOM      3  C   UNL     1      48.311   7.573  11.881  0.00  0.00    +0.000 A 
ATOM      4  C   UNL     1      47.445   8.580  12.324  0.00  0.00    +0.000 A 
ATOM      5  C   UNL     1      47.890   9.909  12.322  0.00  0.00    +0.000 A 
ATOM      6  C   UNL     1      49.165  10.234  11.858  0.00  0.00    +0.000 A 
ENDROOT
BRANCH   1   7
ATOM      7  C   UNL     1      51.425   9.560  10.956  0.00  0.00    +0.000 C 
BRANCH   7   9
ATOM      8  C   UNL     1      52.761   8.863  13.001  0.00  0.00    +0.000 C 
ATOM      9  N   UNL     1      52.554   8.841  11.556  0.00  0.00    +0.000 N 
ATOM     10  C   UNL     1      53.359   7.926  10.853  0.00  0.00    +0.000 C 
ATOM     11  O   UNL     1      54.177   7.208  11.432  0.00  0.00    +0.000 OA
BRANCH  10  12
ATOM     12  C   UNL     1      53.237   7.734   9.383  0.00  0.00    +0.000 A 
ATOM     13  C   UNL     1      52.371   6.835   8.758  0.00  0.00    +0.000 A 
ATOM     14  C   UNL     1      52.381   6.708   7.370  0.00  0.00    +0.000 A 
ATOM     15  C   UNL     1      53.211   7.539   6.638  0.00  0.00    +0.000 A 
ATOM     16  N   UNL     1      54.008   8.472   7.197  0.00  0.00    +0.000 NA
ATOM     17  C   UNL     1      53.997   8.553   8.554  0.00  0.00    +0.000 A 
ENDBRANCH  10  12
ENDBRANCH   7   9
ENDBRANCH   1   7
BRANCH   4  18
ATOM     18  C   UNL     1      46.085   8.238  12.873  0.00  0.00    +0.000 C 
BRANCH  18  19
ATOM     19  N   UNL     1      45.737   6.885  12.528  0.00  0.00    +0.000 N 
ATOM     20  C   UNL     1      44.661   6.603  11.729  0.00  0.00    +0.000 C 
ATOM     21  O   UNL     1      43.964   7.484  11.237  0.00  0.00    +0.000 OA
ATOM     22  H   UNL     1      46.153   6.149  13.089  0.00  0.00    +0.000 HD
BRANCH  20  23
ATOM     23  C   UNL     1      44.426   5.182  11.443  0.00  0.00    +0.000 A 
ATOM     24  C   UNL     1      43.711   4.410  12.348  0.00  0.00    +0.000 A 
ATOM     25  S   UNL     1      43.459   2.805  11.830  0.00  0.00    +0.000 S 
ATOM     26  C   UNL     1      44.347   3.069  10.402  0.00  0.00    +0.000 A 
ATOM     27  N   UNL     1      44.537   2.066   9.505  0.00  0.00    +0.000 NA
ATOM     28  C   UNL     1      45.259   2.392   8.484  0.00  0.00    +0.000 A 
ATOM     29  N   UNL     1      45.806   3.631   8.280  0.00  0.00    +0.000 N 
ATOM     30  C   UNL     1      45.625   4.681   9.149  0.00  0.00    +0.000 A 
ATOM     31  O   UNL     1      46.101   5.788   8.918  0.00  0.00    +0.000 OA
ATOM     32  C   UNL     1      44.822   4.366  10.318  0.00  0.00    +0.000 A 
ATOM     33  H   UNL     1      46.360   3.823   7.458  0.00  0.00    +0.000 HD
ENDBRANCH  20  23
ENDBRANCH  18  19
ENDBRANCH   4  18
TORSDOF 6
ENDMDL
