MODEL 1
REMARK VINA RESULT:    -7.933      0.000      0.000
REMARK INTER + INTRA:         -11.640
REMARK INTER:                 -10.716
REMARK INTRA:                  -0.923
REMARK UNBOUND:                -0.923
REMARK  Name = 
REMARK  7 active torsions:
REMARK  status: ('A' for Active; 'I' for Inactive)
REMARK    1  A    between atoms: C_1  and  S_2
REMARK    2  A    between atoms: S_2  and  C_5
REMARK    3  A    between atoms: C_10  and  C_11
REMARK    4  A    between atoms: C_11  and  C_12
REMARK    5  A    between atoms: C_15  and  C_16
REMARK    6  A    between atoms: C_16  and  N_17
REMARK    7  A    between atoms: C_18  and  C_20
REMARK                            x       y       z     vdW  Elec       q    Type
REMARK                         _______ _______ _______ _____ _____    ______ ____
ROOT
ATOM      1  C   UNL     1      46.694   6.395  11.795  0.00  0.00    +0.000 A 
ATOM      2  C   UNL     1      46.874   5.837  13.072  0.00  0.00    +0.000 A 
ATOM      3  C   UNL     1      48.018   6.124  13.833  0.00  0.00    +0.000 A 
ATOM      4  C   UNL     1      49.002   6.988  13.337  0.00  0.00    +0.000 A 
ATOM      5  C   UNL     1      48.897   7.416  12.005  0.00  0.00    +0.000 A 
ATOM      6  C   UNL     1      47.750   7.134  11.248  0.00  0.00    +0.000 A 
ENDROOT
BRANCH   1   7
ATOM      7  C   UNL     1      45.384   6.232  11.037  0.00  0.00    +0.000 C 
BRANCH   7  13
ATOM      8  C   UNL     1      44.703   3.742  10.513  0.00  0.00    +0.000 A 
ATOM      9  C   UNL     1      44.813   2.630   9.649  0.00  0.00    +0.000 A 
ATOM     10  C   UNL     1      45.413   2.747   8.400  0.00  0.00    +0.000 A 
ATOM     11  C   UNL     1      45.922   3.976   8.008  0.00  0.00    +0.000 A 
ATOM     12  C   UNL     1      45.881   5.063   8.888  0.00  0.00    +0.000 A 
ATOM     13  C   UNL     1      45.293   4.978  10.173  0.00  0.00    +0.000 A 
BRANCH   8  15
ATOM     14  C   UNL     1      42.567   4.861  11.904  0.00  0.00    +0.000 C 
ATOM     15  S   UNL     1      43.655   3.444  11.932  0.00  0.00    +0.000 S 
ATOM     16  O   UNL     1      44.434   3.544  13.150  0.00  0.00    +0.000 OA
ATOM     17  O   UNL     1      42.866   2.261  11.649  0.00  0.00    +0.000 OA
ENDBRANCH   8  15
ENDBRANCH   7  13
ENDBRANCH   1   7
BRANCH   4  18
ATOM     18  C   UNL     1      50.038   7.598  14.250  0.00  0.00    +0.000 C 
BRANCH  18  19
ATOM     19  N   UNL     1      49.700   7.666  15.646  0.00  0.00    +0.000 N 
ATOM     20  C   UNL     1      50.424   6.895  16.538  0.00  0.00    +0.000 C 
ATOM     21  O   UNL     1      51.405   6.247  16.185  0.00  0.00    +0.000 OA
ATOM     22  H   UNL     1      48.775   7.997  15.902  0.00  0.00    +0.000 HD
BRANCH  20  23
ATOM     23  C   UNL     1      50.007   6.918  17.944  0.00  0.00    +0.000 A 
ATOM     24  C   UNL     1      50.166   8.075  18.696  0.00  0.00    +0.000 A 
ATOM     25  S   UNL     1      49.604   7.930  20.300  0.00  0.00    +0.000 S 
ATOM     26  C   UNL     1      49.188   6.298  20.063  0.00  0.00    +0.000 A 
ATOM     27  N   UNL     1      48.671   5.551  21.075  0.00  0.00    +0.000 NA
ATOM     28  C   UNL     1      48.455   4.316  20.767  0.00  0.00    +0.000 A 
ATOM     29  N   UNL     1      48.698   3.762  19.536  0.00  0.00    +0.000 N 
ATOM     30  C   UNL     1      49.167   4.491  18.470  0.00  0.00    +0.000 A 
ATOM     31  O   UNL     1      49.302   3.987  17.359  0.00  0.00    +0.000 OA
ATOM     32  C   UNL     1      49.453   5.878  18.771  0.00  0.00    +0.000 A 
ATOM     33  H   UNL     1      48.495   2.791  19.354  0.00  0.00    +0.000 HD
ENDBRANCH  20  23
ENDBRANCH  18  19
ENDBRANCH   4  18
TORSDOF 6
ENDMDL
MODEL 2
REMARK VINA RESULT:    -7.763      3.369      8.498
REMARK INTER + INTRA:         -11.409
REMARK INTER:                  -9.832
REMARK INTRA:                  -1.577
REMARK UNBOUND:                -0.923
REMARK  Name = 
REMARK  7 active torsions:
REMARK  status: ('A' for Active; 'I' for Inactive)
REMARK    1  A    between atoms: C_1  and  S_2
REMARK    2  A    between atoms: S_2  and  C_5
REMARK    3  A    between atoms: C_10  and  C_11
REMARK    4  A    between atoms: C_11  and  C_12
REMARK    5  A    between atoms: C_15  and  C_16
REMARK    6  A    between atoms: C_16  and  N_17
REMARK    7  A    between atoms: C_18  and  C_20
REMARK                            x       y       z     vdW  Elec       q    Type
REMARK                         _______ _______ _______ _____ _____    ______ ____
ROOT
ATOM      1  C   UNL     1      49.431   7.751  15.841  0.00  0.00    +0.000 A 
ATOM      2  C   UNL     1      48.276   8.529  15.654  0.00  0.00    +0.000 A 
ATOM      3  C   UNL     1      47.731   8.720  14.373  0.00  0.00    +0.000 A 
ATOM      4  C   UNL     1      48.324   8.123  13.254  0.00  0.00    +0.000 A 
ATOM      5  C   UNL     1      49.560   7.482  13.422  0.00  0.00    +0.000 A 
ATOM      6  C   UNL     1      50.100   7.287  14.703  0.00  0.00    +0.000 A 
ENDROOT
BRANCH   1   7
ATOM      7  C   UNL     1      49.927   7.395  17.236  0.00  0.00    +0.000 C 
BRANCH   7  13
ATOM      8  C   UNL     1      49.747   4.773  17.431  0.00  0.00    +0.000 A 
ATOM      9  C   UNL     1      50.397   3.548  17.697  0.00  0.00    +0.000 A 
ATOM     10  C   UNL     1      51.782   3.479  17.812  0.00  0.00    +0.000 A 
ATOM     11  C   UNL     1      52.529   4.639  17.675  0.00  0.00    +0.000 A 
ATOM     12  C   UNL     1      51.886   5.867  17.485  0.00  0.00    +0.000 A 
ATOM     13  C   UNL     1      50.479   5.979  17.379  0.00  0.00    +0.000 A 
BRANCH   8  15
ATOM     14  C   UNL     1      47.727   2.859  17.376  0.00  0.00    +0.000 C 
ATOM     15  S   UNL     1      48.010   4.592  17.043  0.00  0.00    +0.000 S 
ATOM     16  O   UNL     1      47.799   4.781  15.623  0.00  0.00    +0.000 OA
ATOM     17  O   UNL     1      47.265   5.368  18.016  0.00  0.00    +0.000 OA
ENDBRANCH   8  15
ENDBRANCH   7  13
ENDBRANCH   1   7
BRANCH   4  18
ATOM     18  C   UNL     1      47.579   8.000  11.947  0.00  0.00    +0.000 C 
BRANCH  18  19
ATOM     19  N   UNL     1      46.946   6.735  11.688  0.00  0.00    +0.000 N 
ATOM     20  C   UNL     1      45.566   6.665  11.739  0.00  0.00    +0.000 C 
ATOM     21  O   UNL     1      44.873   7.667  11.891  0.00  0.00    +0.000 OA
ATOM     22  H   UNL     1      47.498   5.889  11.798  0.00  0.00    +0.000 HD
BRANCH  20  23
ATOM     23  C   UNL     1      44.949   5.348  11.554  0.00  0.00    +0.000 A 
ATOM     24  C   UNL     1      44.254   4.754  12.601  0.00  0.00    +0.000 A 
ATOM     25  S   UNL     1      43.580   3.238  12.202  0.00  0.00    +0.000 S 
ATOM     26  C   UNL     1      44.246   3.295  10.637  0.00  0.00    +0.000 A 
ATOM     27  N   UNL     1      44.074   2.267   9.763  0.00  0.00    +0.000 NA
ATOM     28  C   UNL     1      44.681   2.423   8.634  0.00  0.00    +0.000 A 
ATOM     29  N   UNL     1      45.436   3.517   8.296  0.00  0.00    +0.000 N 
ATOM     30  C   UNL     1      45.592   4.601   9.125  0.00  0.00    +0.000 A 
ATOM     31  O   UNL     1      46.209   5.599   8.765  0.00  0.00    +0.000 OA
ATOM     32  C   UNL     1      44.953   4.465  10.417  0.00  0.00    +0.000 A 
ATOM     33  H   UNL     1      45.875   3.584   7.390  0.00  0.00    +0.000 HD
ENDBRANCH  20  23
ENDBRANCH  18  19
ENDBRANCH   4  18
TORSDOF 6
ENDMDL
MODEL 3
REMARK VINA RESULT:    -7.749      3.247      8.683
REMARK INTER + INTRA:         -11.390
REMARK INTER:                  -9.847
REMARK INTRA:                  -1.544
REMARK UNBOUND:                -0.923
REMARK  Name = 
REMARK  7 active torsions:
REMARK  status: ('A' for Active; 'I' for Inactive)
REMARK    1  A    between atoms: C_1  and  S_2
REMARK    2  A    between atoms: S_2  and  C_5
REMARK    3  A    between atoms: C_10  and  C_11
REMARK    4  A    between atoms: C_11  and  C_12
REMARK    5  A    between atoms: C_15  and  C_16
REMARK    6  A    between atoms: C_16  and  N_17
REMARK    7  A    between atoms: C_18  and  C_20
REMARK                            x       y       z     vdW  Elec       q    Type
REMARK                         _______ _______ _______ _____ _____    ______ ____
ROOT
ATOM      1  C   UNL     1      49.643   7.846  15.787  0.00  0.00    +0.000 A 
ATOM      2  C   UNL     1      48.463   8.601  15.679  0.00  0.00    +0.000 A 
ATOM      3  C   UNL     1      47.829   8.780  14.439  0.00  0.00    +0.000 A 
ATOM      4  C   UNL     1      48.356   8.194  13.281  0.00  0.00    +0.000 A 
ATOM      5  C   UNL     1      49.612   7.576  13.365  0.00  0.00    +0.000 A 
ATOM      6  C   UNL     1      50.242   7.393  14.605  0.00  0.00    +0.000 A 
ENDROOT
BRANCH   1   7
ATOM      7  C   UNL     1      50.240   7.501  17.144  0.00  0.00    +0.000 C 
BRANCH   7  13
ATOM      8  C   UNL     1      48.464   5.822  18.128  0.00  0.00    +0.000 A 
ATOM      9  C   UNL     1      47.480   5.563  19.108  0.00  0.00    +0.000 A 
ATOM     10  C   UNL     1      47.314   6.406  20.201  0.00  0.00    +0.000 A 
ATOM     11  C   UNL     1      48.123   7.526  20.318  0.00  0.00    +0.000 A 
ATOM     12  C   UNL     1      49.050   7.828  19.315  0.00  0.00    +0.000 A 
ATOM     13  C   UNL     1      49.236   7.002  18.180  0.00  0.00    +0.000 A 
BRANCH   8  15
ATOM     14  C   UNL     1      47.716   3.174  17.708  0.00  0.00    +0.000 C 
ATOM     15  S   UNL     1      48.697   4.475  16.974  0.00  0.00    +0.000 S 
ATOM     16  O   UNL     1      50.074   4.027  17.010  0.00  0.00    +0.000 OA
ATOM     17  O   UNL     1      48.072   4.863  15.723  0.00  0.00    +0.000 OA
ENDBRANCH   8  15
ENDBRANCH   7  13
ENDBRANCH   1   7
BRANCH   4  18
ATOM     18  C   UNL     1      47.525   8.055  12.028  0.00  0.00    +0.000 C 
BRANCH  18  19
ATOM     19  N   UNL     1      46.900   6.778  11.813  0.00  0.00    +0.000 N 
ATOM     20  C   UNL     1      45.521   6.725  11.723  0.00  0.00    +0.000 C 
ATOM     21  O   UNL     1      44.834   7.742  11.714  0.00  0.00    +0.000 OA
ATOM     22  H   UNL     1      47.422   5.940  12.054  0.00  0.00    +0.000 HD
BRANCH  20  23
ATOM     23  C   UNL     1      44.903   5.402  11.588  0.00  0.00    +0.000 A 
ATOM     24  C   UNL     1      44.213   4.846  12.658  0.00  0.00    +0.000 A 
ATOM     25  S   UNL     1      43.537   3.317  12.315  0.00  0.00    +0.000 S 
ATOM     26  C   UNL     1      44.196   3.318  10.747  0.00  0.00    +0.000 A 
ATOM     27  N   UNL     1      44.020   2.261   9.910  0.00  0.00    +0.000 NA
ATOM     28  C   UNL     1      44.622   2.376   8.774  0.00  0.00    +0.000 A 
ATOM     29  N   UNL     1      45.376   3.457   8.394  0.00  0.00    +0.000 N 
ATOM     30  C   UNL     1      45.536   4.570   9.183  0.00  0.00    +0.000 A 
ATOM     31  O   UNL     1      46.151   5.554   8.786  0.00  0.00    +0.000 OA
ATOM     32  C   UNL     1      44.902   4.479  10.482  0.00  0.00    +0.000 A 
ATOM     33  H   UNL     1      45.811   3.492   7.485  0.00  0.00    +0.000 HD
ENDBRANCH  20  23
ENDBRANCH  18  19
ENDBRANCH   4  18
TORSDOF 6
ENDMDL
MODEL 4
REMARK VINA RESULT:    -7.317      2.263      2.664
REMARK INTER + INTRA:         -10.807
REMARK INTER:                 -10.081
REMARK INTRA:                  -0.727
REMARK UNBOUND:                -0.923
REMARK  Name = 
REMARK  7 active torsions:
REMARK  status: ('A' for Active; 'I' for Inactive)
REMARK    1  A    between atoms: C_1  and  S_2
REMARK    2  A    between atoms: S_2  and  C_5
REMARK    3  A    between atoms: C_10  and  C_11
REMARK    4  A    between atoms: C_11  and  C_12
REMARK    5  A    between atoms: C_15  and  C_16
REMARK    6  A    between atoms: C_16  and  N_17
REMARK    7  A    between atoms: C_18  and  C_20
REMARK                            x       y       z     vdW  Elec       q    Type
REMARK                         _______ _______ _______ _____ _____    ______ ____
ROOT
ATOM      1  C   UNL     1      46.446   7.132  11.998  0.00  0.00    +0.000 A 
ATOM      2  C   UNL     1      47.357   6.133  12.380  0.00  0.00    +0.000 A 
ATOM      3  C   UNL     1      48.179   6.294  13.508  0.00  0.00    +0.000 A 
ATOM      4  C   UNL     1      48.096   7.456  14.285  0.00  0.00    +0.000 A 
ATOM      5  C   UNL     1      47.304   8.513  13.814  0.00  0.00    +0.000 A 
ATOM      6  C   UNL     1      46.479   8.348  12.691  0.00  0.00    +0.000 A 
ENDROOT
BRANCH   1   7
ATOM      7  C   UNL     1      45.433   6.896  10.887  0.00  0.00    +0.000 C 
BRANCH   7  13
ATOM      8  C   UNL     1      44.801   4.348  11.113  0.00  0.00    +0.000 A 
ATOM      9  C   UNL     1      44.893   3.043  10.582  0.00  0.00    +0.000 A 
ATOM     10  C   UNL     1      45.412   2.819   9.311  0.00  0.00    +0.000 A 
ATOM     11  C   UNL     1      45.856   3.899   8.564  0.00  0.00    +0.000 A 
ATOM     12  C   UNL     1      45.835   5.186   9.113  0.00  0.00    +0.000 A 
ATOM     13  C   UNL     1      45.329   5.451  10.408  0.00  0.00    +0.000 A 
BRANCH   8  15
ATOM     14  C   UNL     1      42.399   5.342  12.110  0.00  0.00    +0.000 C 
ATOM     15  S   UNL     1      43.852   4.439  12.627  0.00  0.00    +0.000 S 
ATOM     16  O   UNL     1      44.538   5.275  13.591  0.00  0.00    +0.000 OA
ATOM     17  O   UNL     1      43.449   3.088  12.968  0.00  0.00    +0.000 OA
ENDBRANCH   8  15
ENDBRANCH   7  13
ENDBRANCH   1   7
BRANCH   4  18
ATOM     18  C   UNL     1      48.678   7.507  15.677  0.00  0.00    +0.000 C 
BRANCH  18  19
ATOM     19  N   UNL     1      49.756   6.596  15.954  0.00  0.00    +0.000 N 
ATOM     20  C   UNL     1      49.770   5.941  17.172  0.00  0.00    +0.000 C 
ATOM     21  O   UNL     1      48.840   6.035  17.968  0.00  0.00    +0.000 OA
ATOM     22  H   UNL     1      50.618   6.694  15.425  0.00  0.00    +0.000 HD
BRANCH  20  23
ATOM     23  C   UNL     1      50.922   5.081  17.464  0.00  0.00    +0.000 A 
ATOM     24  C   UNL     1      52.145   5.650  17.797  0.00  0.00    +0.000 A 
ATOM     25  S   UNL     1      53.364   4.504  18.131  0.00  0.00    +0.000 S 
ATOM     26  C   UNL     1      52.316   3.210  17.779  0.00  0.00    +0.000 A 
ATOM     27  N   UNL     1      52.748   1.921  17.838  0.00  0.00    +0.000 NA
ATOM     28  C   UNL     1      51.862   1.048  17.492  0.00  0.00    +0.000 A 
ATOM     29  N   UNL     1      50.580   1.345  17.104  0.00  0.00    +0.000 N 
ATOM     30  C   UNL     1      50.085   2.626  17.083  0.00  0.00    +0.000 A 
ATOM     31  O   UNL     1      48.912   2.855  16.806  0.00  0.00    +0.000 OA
ATOM     32  C   UNL     1      51.049   3.647  17.436  0.00  0.00    +0.000 A 
ATOM     33  H   UNL     1      49.930   0.614  16.858  0.00  0.00    +0.000 HD
ENDBRANCH  20  23
ENDBRANCH  18  19
ENDBRANCH   4  18
TORSDOF 6
ENDMDL
MODEL 5
REMARK VINA RESULT:    -6.946      3.284      8.774
REMARK INTER + INTRA:         -10.306
REMARK INTER:                  -8.785
REMARK INTRA:                  -1.521
REMARK UNBOUND:                -0.923
REMARK  Name = 
REMARK  7 active torsions:
REMARK  status: ('A' for Active; 'I' for Inactive)
REMARK    1  A    between atoms: C_1  and  S_2
REMARK    2  A    between atoms: S_2  and  C_5
REMARK    3  A    between atoms: C_10  and  C_11
REMARK    4  A    between atoms: C_11  and  C_12
REMARK    5  A    between atoms: C_15  and  C_16
REMARK    6  A    between atoms: C_16  and  N_17
REMARK    7  A    between atoms: C_18  and  C_20
REMARK                            x       y       z     vdW  Elec       q    Type
REMARK                         _______ _______ _______ _____ _____    ______ ____
ROOT
ATOM      1  C   UNL     1      49.679   7.639  15.851  0.00  0.00    +0.000 A 
ATOM      2  C   UNL     1      48.432   8.281  15.760  0.00  0.00    +0.000 A 
ATOM      3  C   UNL     1      47.837   8.533  14.513  0.00  0.00    +0.000 A 
ATOM      4  C   UNL     1      48.471   8.133  13.330  0.00  0.00    +0.000 A 
ATOM      5  C   UNL     1      49.780   7.637  13.416  0.00  0.00    +0.000 A 
ATOM      6  C   UNL     1      50.371   7.381  14.662  0.00  0.00    +0.000 A 
ENDROOT
BRANCH   1   7
ATOM      7  C   UNL     1      50.249   7.206  17.195  0.00  0.00    +0.000 C 
BRANCH   7  13
ATOM      8  C   UNL     1      48.942   5.850  19.036  0.00  0.00    +0.000 A 
ATOM      9  C   UNL     1      48.509   4.592  19.512  0.00  0.00    +0.000 A 
ATOM     10  C   UNL     1      48.630   3.448  18.730  0.00  0.00    +0.000 A 
ATOM     11  C   UNL     1      49.197   3.549  17.469  0.00  0.00    +0.000 A 
ATOM     12  C   UNL     1      49.695   4.778  17.022  0.00  0.00    +0.000 A 
ATOM     13  C   UNL     1      49.604   5.960  17.795  0.00  0.00    +0.000 A 
BRANCH   8  15
ATOM     14  C   UNL     1      47.389   6.415  21.276  0.00  0.00    +0.000 C 
ATOM     15  S   UNL     1      48.440   7.218  20.074  0.00  0.00    +0.000 S 
ATOM     16  O   UNL     1      47.594   8.123  19.323  0.00  0.00    +0.000 OA
ATOM     17  O   UNL     1      49.624   7.701  20.758  0.00  0.00    +0.000 OA
ENDBRANCH   8  15
ENDBRANCH   7  13
ENDBRANCH   1   7
BRANCH   4  18
ATOM     18  C   UNL     1      47.714   8.053  12.026  0.00  0.00    +0.000 C 
BRANCH  18  19
ATOM     19  N   UNL     1      47.034   6.814  11.757  0.00  0.00    +0.000 N 
ATOM     20  C   UNL     1      45.690   6.719  12.067  0.00  0.00    +0.000 C 
ATOM     21  O   UNL     1      45.047   7.688  12.461  0.00  0.00    +0.000 OA
ATOM     22  H   UNL     1      47.591   5.970  11.664  0.00  0.00    +0.000 HD
BRANCH  20  23
ATOM     23  C   UNL     1      45.039   5.421  11.861  0.00  0.00    +0.000 A 
ATOM     24  C   UNL     1      44.395   4.792  12.919  0.00  0.00    +0.000 A 
ATOM     25  S   UNL     1      43.671   3.307  12.494  0.00  0.00    +0.000 S 
ATOM     26  C   UNL     1      44.248   3.422  10.898  0.00  0.00    +0.000 A 
ATOM     27  N   UNL     1      44.008   2.437   9.991  0.00  0.00    +0.000 NA
ATOM     28  C   UNL     1      44.552   2.633   8.837  0.00  0.00    +0.000 A 
ATOM     29  N   UNL     1      45.307   3.729   8.504  0.00  0.00    +0.000 N 
ATOM     30  C   UNL     1      45.530   4.773   9.368  0.00  0.00    +0.000 A 
ATOM     31  O   UNL     1      46.143   5.776   9.018  0.00  0.00    +0.000 OA
ATOM     32  C   UNL     1      44.962   4.589  10.688  0.00  0.00    +0.000 A 
ATOM     33  H   UNL     1      45.695   3.829   7.578  0.00  0.00    +0.000 HD
ENDBRANCH  20  23
ENDBRANCH  18  19
ENDBRANCH   4  18
TORSDOF 6
ENDMDL
MODEL 6
REMARK VINA RESULT:    -6.834      3.823     10.042
REMARK INTER + INTRA:         -10.155
REMARK INTER:                  -8.848
REMARK INTRA:                  -1.307
REMARK UNBOUND:                -0.923
REMARK  Name = 
REMARK  7 active torsions:
REMARK  status: ('A' for Active; 'I' for Inactive)
REMARK    1  A    between atoms: C_1  and  S_2
REMARK    2  A    between atoms: S_2  and  C_5
REMARK    3  A    between atoms: C_10  and  C_11
REMARK    4  A    between atoms: C_11  and  C_12
REMARK    5  A    between atoms: C_15  and  C_16
REMARK    6  A    between atoms: C_16  and  N_17
REMARK    7  A    between atoms: C_18  and  C_20
REMARK                            x       y       z     vdW  Elec       q    Type
REMARK                         _______ _______ _______ _____ _____    ______ ____
ROOT
ATOM      1  C   UNL     1      51.533   3.630  17.824  0.00  0.00    +0.000 A 
ATOM      2  C   UNL     1      51.011   2.429  17.314  0.00  0.00    +0.000 A 
ATOM      3  C   UNL     1      49.628   2.259  17.134  0.00  0.00    +0.000 A 
ATOM      4  C   UNL     1      48.739   3.294  17.448  0.00  0.00    +0.000 A 
ATOM      5  C   UNL     1      49.247   4.427  18.101  0.00  0.00    +0.000 A 
ATOM      6  C   UNL     1      50.628   4.598  18.275  0.00  0.00    +0.000 A 
ENDROOT
BRANCH   1   7
ATOM      7  C   UNL     1      53.032   3.889  17.858  0.00  0.00    +0.000 C 
BRANCH   7  13
ATOM      8  C   UNL     1      54.155   5.576  19.542  0.00  0.00    +0.000 A 
ATOM      9  C   UNL     1      54.732   5.788  20.814  0.00  0.00    +0.000 A 
ATOM     10  C   UNL     1      54.657   4.818  21.808  0.00  0.00    +0.000 A 
ATOM     11  C   UNL     1      54.015   3.620  21.535  0.00  0.00    +0.000 A 
ATOM     12  C   UNL     1      53.506   3.374  20.255  0.00  0.00    +0.000 A 
ATOM     13  C   UNL     1      53.577   4.331  19.214  0.00  0.00    +0.000 A 
BRANCH   8  15
ATOM     14  C   UNL     1      54.838   8.273  19.597  0.00  0.00    +0.000 C 
ATOM     15  S   UNL     1      54.116   7.043  18.520  0.00  0.00    +0.000 S 
ATOM     16  O   UNL     1      52.745   7.448  18.289  0.00  0.00    +0.000 OA
ATOM     17  O   UNL     1      55.024   6.823  17.410  0.00  0.00    +0.000 OA
ENDBRANCH   8  15
ENDBRANCH   7  13
ENDBRANCH   1   7
BRANCH   4  18
ATOM     18  C   UNL     1      47.319   3.288  16.935  0.00  0.00    +0.000 C 
BRANCH  18  19
ATOM     19  N   UNL     1      46.962   4.347  16.030  0.00  0.00    +0.000 N 
ATOM     20  C   UNL     1      47.080   4.121  14.671  0.00  0.00    +0.000 C 
ATOM     21  O   UNL     1      47.375   3.017  14.221  0.00  0.00    +0.000 OA
ATOM     22  H   UNL     1      46.951   5.299  16.383  0.00  0.00    +0.000 HD
BRANCH  20  23
ATOM     23  C   UNL     1      46.789   5.242  13.771  0.00  0.00    +0.000 A 
ATOM     24  C   UNL     1      47.733   6.244  13.584  0.00  0.00    +0.000 A 
ATOM     25  S   UNL     1      47.239   7.453  12.486  0.00  0.00    +0.000 S 
ATOM     26  C   UNL     1      45.723   6.713  12.272  0.00  0.00    +0.000 A 
ATOM     27  N   UNL     1      44.779   7.266  11.464  0.00  0.00    +0.000 NA
ATOM     28  C   UNL     1      43.658   6.626  11.440  0.00  0.00    +0.000 A 
ATOM     29  N   UNL     1      43.398   5.477  12.144  0.00  0.00    +0.000 N 
ATOM     30  C   UNL     1      44.337   4.854  12.928  0.00  0.00    +0.000 A 
ATOM     31  O   UNL     1      44.101   3.785  13.483  0.00  0.00    +0.000 OA
ATOM     32  C   UNL     1      45.605   5.548  13.010  0.00  0.00    +0.000 A 
ATOM     33  H   UNL     1      42.503   5.017  12.072  0.00  0.00    +0.000 HD
ENDBRANCH  20  23
ENDBRANCH  18  19
ENDBRANCH   4  18
TORSDOF 6
ENDMDL
MODEL 7
REMARK VINA RESULT:    -6.739      3.290      9.468
REMARK INTER + INTRA:         -10.026
REMARK INTER:                  -8.306
REMARK INTRA:                  -1.719
REMARK UNBOUND:                -0.923
REMARK  Name = 
REMARK  7 active torsions:
REMARK  status: ('A' for Active; 'I' for Inactive)
REMARK    1  A    between atoms: C_1  and  S_2
REMARK    2  A    between atoms: S_2  and  C_5
REMARK    3  A    between atoms: C_10  and  C_11
REMARK    4  A    between atoms: C_11  and  C_12
REMARK    5  A    between atoms: C_15  and  C_16
REMARK    6  A    between atoms: C_16  and  N_17
REMARK    7  A    between atoms: C_18  and  C_20
REMARK                            x       y       z     vdW  Elec       q    Type
REMARK                         _______ _______ _______ _____ _____    ______ ____
ROOT
ATOM      1  C   UNL     1      51.400   3.344  17.781  0.00  0.00    +0.000 A 
ATOM      2  C   UNL     1      50.688   2.242  17.279  0.00  0.00    +0.000 A 
ATOM      3  C   UNL     1      49.292   2.287  17.133  0.00  0.00    +0.000 A 
ATOM      4  C   UNL     1      48.580   3.443  17.475  0.00  0.00    +0.000 A 
ATOM      5  C   UNL     1      49.271   4.479  18.121  0.00  0.00    +0.000 A 
ATOM      6  C   UNL     1      50.666   4.435  18.260  0.00  0.00    +0.000 A 
ENDROOT
BRANCH   1   7
ATOM      7  C   UNL     1      52.922   3.370  17.779  0.00  0.00    +0.000 C 
BRANCH   7  13
ATOM      8  C   UNL     1      54.124   5.679  18.188  0.00  0.00    +0.000 A 
ATOM      9  C   UNL     1      54.779   6.540  19.095  0.00  0.00    +0.000 A 
ATOM     10  C   UNL     1      54.787   6.275  20.461  0.00  0.00    +0.000 A 
ATOM     11  C   UNL     1      54.149   5.137  20.930  0.00  0.00    +0.000 A 
ATOM     12  C   UNL     1      53.561   4.242  20.030  0.00  0.00    +0.000 A 
ATOM     13  C   UNL     1      53.547   4.470  18.633  0.00  0.00    +0.000 A 
BRANCH   8  15
ATOM     14  C   UNL     1      54.639   8.001  16.742  0.00  0.00    +0.000 C 
ATOM     15  S   UNL     1      53.993   6.348  16.534  0.00  0.00    +0.000 S 
ATOM     16  O   UNL     1      52.599   6.491  16.168  0.00  0.00    +0.000 OA
ATOM     17  O   UNL     1      54.911   5.605  15.692  0.00  0.00    +0.000 OA
ENDBRANCH   8  15
ENDBRANCH   7  13
ENDBRANCH   1   7
BRANCH   4  18
ATOM     18  C   UNL     1      47.164   3.659  16.997  0.00  0.00    +0.000 C 
BRANCH  18  19
ATOM     19  N   UNL     1      46.979   4.648  15.970  0.00  0.00    +0.000 N 
ATOM     20  C   UNL     1      47.114   4.260  14.649  0.00  0.00    +0.000 C 
ATOM     21  O   UNL     1      47.278   3.084  14.334  0.00  0.00    +0.000 OA
ATOM     22  H   UNL     1      47.081   5.627  16.219  0.00  0.00    +0.000 HD
BRANCH  20  23
ATOM     23  C   UNL     1      47.003   5.302  13.624  0.00  0.00    +0.000 A 
ATOM     24  C   UNL     1      46.018   5.213  12.648  0.00  0.00    +0.000 A 
ATOM     25  S   UNL     1      46.018   6.523  11.555  0.00  0.00    +0.000 S 
ATOM     26  C   UNL     1      47.374   7.220  12.309  0.00  0.00    +0.000 A 
ATOM     27  N   UNL     1      47.925   8.371  11.837  0.00  0.00    +0.000 NA
ATOM     28  C   UNL     1      48.981   8.754  12.473  0.00  0.00    +0.000 A 
ATOM     29  N   UNL     1      49.530   8.097  13.544  0.00  0.00    +0.000 N 
ATOM     30  C   UNL     1      48.977   6.963  14.088  0.00  0.00    +0.000 A 
ATOM     31  O   UNL     1      49.446   6.441  15.095  0.00  0.00    +0.000 OA
ATOM     32  C   UNL     1      47.804   6.476  13.393  0.00  0.00    +0.000 A 
ATOM     33  H   UNL     1      50.351   8.456  14.008  0.00  0.00    +0.000 HD
ENDBRANCH  20  23
ENDBRANCH  18  19
ENDBRANCH   4  18
TORSDOF 6
ENDMDL
MODEL 8
REMARK VINA RESULT:    -6.422      3.031      9.300
REMARK INTER + INTRA:          -9.598
REMARK INTER:                  -7.771
REMARK INTRA:                  -1.827
REMARK UNBOUND:                -0.923
REMARK  Name = 
REMARK  7 active torsions:
REMARK  status: ('A' for Active; 'I' for Inactive)
REMARK    1  A    between atoms: C_1  and  S_2
REMARK    2  A    between atoms: S_2  and  C_5
REMARK    3  A    between atoms: C_10  and  C_11
REMARK    4  A    between atoms: C_11  and  C_12
REMARK    5  A    between atoms: C_15  and  C_16
REMARK    6  A    between atoms: C_16  and  N_17
REMARK    7  A    between atoms: C_18  and  C_20
REMARK                            x       y       z     vdW  Elec       q    Type
REMARK                         _______ _______ _______ _____ _____    ______ ____
ROOT
ATOM      1  C   UNL     1      51.198   4.234  18.478  0.00  0.00    +0.000 A 
ATOM      2  C   UNL     1      50.888   3.146  17.645  0.00  0.00    +0.000 A 
ATOM      3  C   UNL     1      49.561   2.872  17.275  0.00  0.00    +0.000 A 
ATOM      4  C   UNL     1      48.517   3.692  17.721  0.00  0.00    +0.000 A 
ATOM      5  C   UNL     1      48.810   4.678  18.674  0.00  0.00    +0.000 A 
ATOM      6  C   UNL     1      50.137   4.954  19.038  0.00  0.00    +0.000 A 
ENDROOT
BRANCH   1   7
ATOM      7  C   UNL     1      52.641   4.642  18.741  0.00  0.00    +0.000 C 
BRANCH   7  13
ATOM      8  C   UNL     1      53.199   7.214  18.631  0.00  0.00    +0.000 A 
ATOM      9  C   UNL     1      53.495   8.340  17.830  0.00  0.00    +0.000 A 
ATOM     10  C   UNL     1      53.777   8.203  16.474  0.00  0.00    +0.000 A 
ATOM     11  C   UNL     1      53.753   6.939  15.905  0.00  0.00    +0.000 A 
ATOM     12  C   UNL     1      53.389   5.830  16.676  0.00  0.00    +0.000 A 
ATOM     13  C   UNL     1      53.080   5.932  18.054  0.00  0.00    +0.000 A 
BRANCH   8  15
ATOM     14  C   UNL     1      53.611   9.303  20.425  0.00  0.00    +0.000 C 
ATOM     15  S   UNL     1      53.148   7.577  20.382  0.00  0.00    +0.000 S 
ATOM     16  O   UNL     1      54.198   6.850  21.067  0.00  0.00    +0.000 OA
ATOM     17  O   UNL     1      51.767   7.467  20.808  0.00  0.00    +0.000 OA
ENDBRANCH   8  15
ENDBRANCH   7  13
ENDBRANCH   1   7
BRANCH   4  18
ATOM     18  C   UNL     1      47.159   3.654  17.063  0.00  0.00    +0.000 C 
BRANCH  18  19
ATOM     19  N   UNL     1      46.932   4.607  16.009  0.00  0.00    +0.000 N 
ATOM     20  C   UNL     1      47.145   4.207  14.702  0.00  0.00    +0.000 C 
ATOM     21  O   UNL     1      47.415   3.044  14.417  0.00  0.00    +0.000 OA
ATOM     22  H   UNL     1      46.945   5.595  16.242  0.00  0.00    +0.000 HD
BRANCH  20  23
ATOM     23  C   UNL     1      46.988   5.219  13.652  0.00  0.00    +0.000 A 
ATOM     24  C   UNL     1      46.004   5.065  12.683  0.00  0.00    +0.000 A 
ATOM     25  S   UNL     1      45.946   6.346  11.558  0.00  0.00    +0.000 S 
ATOM     26  C   UNL     1      47.273   7.118  12.289  0.00  0.00    +0.000 A 
ATOM     27  N   UNL     1      47.774   8.279  11.788  0.00  0.00    +0.000 NA
ATOM     28  C   UNL     1      48.815   8.721  12.410  0.00  0.00    +0.000 A 
ATOM     29  N   UNL     1      49.395   8.114  13.495  0.00  0.00    +0.000 N 
ATOM     30  C   UNL     1      48.892   6.972  14.068  0.00  0.00    +0.000 A 
ATOM     31  O   UNL     1      49.385   6.495  15.085  0.00  0.00    +0.000 OA
ATOM     32  C   UNL     1      47.738   6.419  13.390  0.00  0.00    +0.000 A 
ATOM     33  H   UNL     1      50.202   8.519  13.946  0.00  0.00    +0.000 HD
ENDBRANCH  20  23
ENDBRANCH  18  19
ENDBRANCH   4  18
TORSDOF 6
ENDMDL
MODEL 9
REMARK VINA RESULT:    -6.311      3.283      8.164
REMARK INTER + INTRA:          -9.449
REMARK INTER:                  -7.966
REMARK INTRA:                  -1.482
REMARK UNBOUND:                -0.923
REMARK  Name = 
REMARK  7 active torsions:
REMARK  status: ('A' for Active; 'I' for Inactive)
REMARK    1  A    between atoms: C_1  and  S_2
REMARK    2  A    between atoms: S_2  and  C_5
REMARK    3  A    between atoms: C_10  and  C_11
REMARK    4  A    between atoms: C_11  and  C_12
REMARK    5  A    between atoms: C_15  and  C_16
REMARK    6  A    between atoms: C_16  and  N_17
REMARK    7  A    between atoms: C_18  and  C_20
REMARK                            x       y       z     vdW  Elec       q    Type
REMARK                         _______ _______ _______ _____ _____    ______ ____
ROOT
ATOM      1  C   UNL     1      49.869   7.413  17.199  0.00  0.00    +0.000 A 
ATOM      2  C   UNL     1      48.817   8.342  17.142  0.00  0.00    +0.000 A 
ATOM      3  C   UNL     1      48.426   8.920  15.923  0.00  0.00    +0.000 A 
ATOM      4  C   UNL     1      49.072   8.568  14.732  0.00  0.00    +0.000 A 
ATOM      5  C   UNL     1      50.219   7.764  14.813  0.00  0.00    +0.000 A 
ATOM      6  C   UNL     1      50.604   7.183  16.030  0.00  0.00    +0.000 A 
ENDROOT
BRANCH   1   7
ATOM      7  C   UNL     1      50.184   6.652  18.480  0.00  0.00    +0.000 C 
BRANCH   7  13
ATOM      8  C   UNL     1      51.013   4.185  18.073  0.00  0.00    +0.000 A 
ATOM      9  C   UNL     1      52.086   3.266  18.094  0.00  0.00    +0.000 A 
ATOM     10  C   UNL     1      53.398   3.697  18.267  0.00  0.00    +0.000 A 
ATOM     11  C   UNL     1      53.647   5.050  18.435  0.00  0.00    +0.000 A 
ATOM     12  C   UNL     1      52.583   5.956  18.489  0.00  0.00    +0.000 A 
ATOM     13  C   UNL     1      51.234   5.554  18.333  0.00  0.00    +0.000 A 
BRANCH   8  15
ATOM     14  C   UNL     1      49.977   1.869  16.930  0.00  0.00    +0.000 C 
ATOM     15  S   UNL     1      49.461   3.460  17.559  0.00  0.00    +0.000 S 
ATOM     16  O   UNL     1      48.922   4.195  16.433  0.00  0.00    +0.000 OA
ATOM     17  O   UNL     1      48.668   3.240  18.753  0.00  0.00    +0.000 OA
ENDBRANCH   8  15
ENDBRANCH   7  13
ENDBRANCH   1   7
BRANCH   4  18
ATOM     18  C   UNL     1      48.455   8.875  13.388  0.00  0.00    +0.000 C 
BRANCH  18  19
ATOM     19  N   UNL     1      47.636   7.844  12.810  0.00  0.00    +0.000 N 
ATOM     20  C   UNL     1      46.263   8.007  12.826  0.00  0.00    +0.000 C 
ATOM     21  O   UNL     1      45.739   9.046  13.218  0.00  0.00    +0.000 OA
ATOM     22  H   UNL     1      48.032   6.914  12.709  0.00  0.00    +0.000 HD
BRANCH  20  23
ATOM     23  C   UNL     1      45.446   6.906  12.305  0.00  0.00    +0.000 A 
ATOM     24  C   UNL     1      44.314   7.180  11.548  0.00  0.00    +0.000 A 
ATOM     25  S   UNL     1      43.500   5.783  11.004  0.00  0.00    +0.000 S 
ATOM     26  C   UNL     1      44.597   4.765  11.813  0.00  0.00    +0.000 A 
ATOM     27  N   UNL     1      44.452   3.413  11.785  0.00  0.00    +0.000 NA
ATOM     28  C   UNL     1      45.323   2.770  12.488  0.00  0.00    +0.000 A 
ATOM     29  N   UNL     1      46.333   3.356  13.208  0.00  0.00    +0.000 N 
ATOM     30  C   UNL     1      46.551   4.712  13.221  0.00  0.00    +0.000 A 
ATOM     31  O   UNL     1      47.509   5.201  13.811  0.00  0.00    +0.000 OA
ATOM     32  C   UNL     1      45.582   5.482  12.469  0.00  0.00    +0.000 A 
ATOM     33  H   UNL     1      46.992   2.796  13.728  0.00  0.00    +0.000 HD
ENDBRANCH  20  23
ENDBRANCH  18  19
ENDBRANCH   4  18
TORSDOF 6
ENDMDL
