MODEL 1
REMARK VINA RESULT:    -8.421      0.000      0.000
REMARK INTER + INTRA:         -12.793
REMARK INTER:                 -11.867
REMARK INTRA:                  -0.926
REMARK UNBOUND:                -0.926
REMARK  Name = 
REMARK  7 active torsions:
REMARK  status: ('A' for Active; 'I' for Inactive)
REMARK    1  A    between atoms: C_2  and  C_20
REMARK    2  A    between atoms: N_3  and  C_4
REMARK    3  A    between atoms: C_4  and  C_5
REMARK    4  A    between atoms: C_8  and  C_9
REMARK    5  A    between atoms: C_9  and  C_10
REMARK    6  A    between atoms: C_10  and  C_11
REMARK    7  A    between atoms: C_11  and  C_12
REMARK                            x       y       z     vdW  Elec       q    Type
REMARK                         _______ _______ _______ _____ _____    ______ ____
ROOT
ATOM      1  C   UNL     1      48.138   6.929  13.529  0.00  0.00    +0.000 C 
ENDROOT
BRANCH   1   2
ATOM      2  C   UNL     1      47.015   6.231  12.817  0.00  0.00    +0.000 A 
ATOM      3  C   UNL     1      46.574   4.966  13.213  0.00  0.00    +0.000 A 
ATOM      4  C   UNL     1      45.540   4.336  12.517  0.00  0.00    +0.000 A 
ATOM      5  C   UNL     1      44.948   4.994  11.444  0.00  0.00    +0.000 A 
ATOM      6  N   UNL     1      45.339   6.234  11.060  0.00  0.00    +0.000 NA
ATOM      7  C   UNL     1      46.355   6.816  11.743  0.00  0.00    +0.000 A 
BRANCH   5   8
ATOM      8  C   UNL     1      43.819   4.359  10.661  0.00  0.00    +0.000 C 
BRANCH   8   9
ATOM      9  C   UNL     1      44.345   3.296   9.689  0.00  0.00    +0.000 C 
BRANCH   9  10
ATOM     10  C   UNL     1      44.899   3.894   8.392  0.00  0.00    +0.000 C 
BRANCH  10  11
ATOM     11  C   UNL     1      45.912   2.970   7.754  0.00  0.00    +0.000 A 
ATOM     12  C   UNL     1      46.655   3.391   6.648  0.00  0.00    +0.000 A 
ATOM     13  C   UNL     1      47.550   2.505   6.066  0.00  0.00    +0.000 A 
ATOM     14  N   UNL     1      47.754   1.244   6.504  0.00  0.00    +0.000 NA
ATOM     15  C   UNL     1      47.020   0.854   7.567  0.00  0.00    +0.000 A 
ATOM     16  C   UNL     1      46.100   1.665   8.217  0.00  0.00    +0.000 A 
ENDBRANCH  10  11
ENDBRANCH   9  10
ENDBRANCH   8   9
ENDBRANCH   5   8
ENDBRANCH   1   2
BRANCH   1  19
ATOM     17  O   UNL     1      50.213   6.566  15.368  0.00  0.00    +0.000 OA
ATOM     18  C   UNL     1      49.077   6.762  15.793  0.00  0.00    +0.000 C 
ATOM     19  N   UNL     1      47.987   6.868  14.962  0.00  0.00    +0.000 N 
ATOM     20  H   UNL     1      47.116   7.219  15.344  0.00  0.00    +0.000 HD
BRANCH  18  21
ATOM     21  C   UNL     1      48.793   6.845  17.226  0.00  0.00    +0.000 A 
ATOM     22  C   UNL     1      48.401   8.045  17.808  0.00  0.00    +0.000 A 
ATOM     23  S   UNL     1      48.159   7.935  19.494  0.00  0.00    +0.000 S 
ATOM     24  C   UNL     1      48.515   6.270  19.497  0.00  0.00    +0.000 A 
ATOM     25  N   UNL     1      48.476   5.537  20.644  0.00  0.00    +0.000 NA
ATOM     26  C   UNL     1      48.731   4.282  20.483  0.00  0.00    +0.000 A 
ATOM     27  N   UNL     1      49.023   3.690  19.283  0.00  0.00    +0.000 N 
ATOM     28  C   UNL     1      49.116   4.396  18.111  0.00  0.00    +0.000 A 
ATOM     29  O   UNL     1      49.451   3.849  17.065  0.00  0.00    +0.000 OA
ATOM     30  C   UNL     1      48.827   5.810  18.231  0.00  0.00    +0.000 A 
ATOM     31  H   UNL     1      49.227   2.705  19.221  0.00  0.00    +0.000 HD
ENDBRANCH  18  21
ENDBRANCH   1  19
TORSDOF 7
ENDMDL
MODEL 2
REMARK VINA RESULT:    -8.388      1.123      1.389
REMARK INTER + INTRA:         -12.747
REMARK INTER:                 -11.759
REMARK INTRA:                  -0.988
REMARK UNBOUND:                -0.926
REMARK  Name = 
REMARK  7 active torsions:
REMARK  status: ('A' for Active; 'I' for Inactive)
REMARK    1  A    between atoms: C_2  and  C_20
REMARK    2  A    between atoms: N_3  and  C_4
REMARK    3  A    between atoms: C_4  and  C_5
REMARK    4  A    between atoms: C_8  and  C_9
REMARK    5  A    between atoms: C_9  and  C_10
REMARK    6  A    between atoms: C_10  and  C_11
REMARK    7  A    between atoms: C_11  and  C_12
REMARK                            x       y       z     vdW  Elec       q    Type
REMARK                         _______ _______ _______ _____ _____    ______ ____
ROOT
ATOM      1  C   UNL     1      47.401   7.408  13.329  0.00  0.00    +0.000 C 
ENDROOT
BRANCH   1   2
ATOM      2  C   UNL     1      46.447   6.495  12.613  0.00  0.00    +0.000 A 
ATOM      3  C   UNL     1      46.322   6.516  11.223  0.00  0.00    +0.000 A 
ATOM      4  C   UNL     1      45.413   5.667  10.589  0.00  0.00    +0.000 A 
ATOM      5  C   UNL     1      44.653   4.792  11.360  0.00  0.00    +0.000 A 
ATOM      6  N   UNL     1      44.779   4.734  12.708  0.00  0.00    +0.000 NA
ATOM      7  C   UNL     1      45.658   5.579  13.299  0.00  0.00    +0.000 A 
BRANCH   5   8
ATOM      8  C   UNL     1      43.658   3.847  10.722  0.00  0.00    +0.000 C 
BRANCH   8   9
ATOM      9  C   UNL     1      44.359   2.836   9.807  0.00  0.00    +0.000 C 
BRANCH   9  10
ATOM     10  C   UNL     1      44.628   3.387   8.404  0.00  0.00    +0.000 C 
BRANCH  10  11
ATOM     11  C   UNL     1      45.826   2.713   7.773  0.00  0.00    +0.000 A 
ATOM     12  C   UNL     1      46.582   3.375   6.803  0.00  0.00    +0.000 A 
ATOM     13  C   UNL     1      47.653   2.714   6.220  0.00  0.00    +0.000 A 
ATOM     14  N   UNL     1      48.019   1.451   6.533  0.00  0.00    +0.000 NA
ATOM     15  C   UNL     1      47.271   0.825   7.465  0.00  0.00    +0.000 A 
ATOM     16  C   UNL     1      46.181   1.402   8.104  0.00  0.00    +0.000 A 
ENDBRANCH  10  11
ENDBRANCH   9  10
ENDBRANCH   8   9
ENDBRANCH   5   8
ENDBRANCH   1   2
BRANCH   1  19
ATOM     17  O   UNL     1      49.961   7.045  14.393  0.00  0.00    +0.000 OA
ATOM     18  C   UNL     1      48.990   6.864  15.122  0.00  0.00    +0.000 C 
ATOM     19  N   UNL     1      47.697   6.939  14.661  0.00  0.00    +0.000 N 
ATOM     20  H   UNL     1      46.941   6.974  15.335  0.00  0.00    +0.000 HD
BRANCH  18  21
ATOM     21  C   UNL     1      49.141   6.501  16.532  0.00  0.00    +0.000 A 
ATOM     22  C   UNL     1      49.682   7.398  17.446  0.00  0.00    +0.000 A 
ATOM     23  S   UNL     1      49.807   6.764  19.025  0.00  0.00    +0.000 S 
ATOM     24  C   UNL     1      49.094   5.291  18.556  0.00  0.00    +0.000 A 
ATOM     25  N   UNL     1      48.885   4.285  19.450  0.00  0.00    +0.000 NA
ATOM     26  C   UNL     1      48.300   3.246  18.956  0.00  0.00    +0.000 A 
ATOM     27  N   UNL     1      47.906   3.116  17.652  0.00  0.00    +0.000 N 
ATOM     28  C   UNL     1      48.134   4.085  16.707  0.00  0.00    +0.000 A 
ATOM     29  O   UNL     1      47.834   3.908  15.531  0.00  0.00    +0.000 OA
ATOM     30  C   UNL     1      48.777   5.280  17.210  0.00  0.00    +0.000 A 
ATOM     31  H   UNL     1      47.464   2.273  17.320  0.00  0.00    +0.000 HD
ENDBRANCH  18  21
ENDBRANCH   1  19
TORSDOF 7
ENDMDL
MODEL 3
REMARK VINA RESULT:    -8.077      1.347      2.042
REMARK INTER + INTRA:         -12.308
REMARK INTER:                 -11.231
REMARK INTRA:                  -1.077
REMARK UNBOUND:                -0.926
REMARK  Name = 
REMARK  7 active torsions:
REMARK  status: ('A' for Active; 'I' for Inactive)
REMARK    1  A    between atoms: C_2  and  C_20
REMARK    2  A    between atoms: N_3  and  C_4
REMARK    3  A    between atoms: C_4  and  C_5
REMARK    4  A    between atoms: C_8  and  C_9
REMARK    5  A    between atoms: C_9  and  C_10
REMARK    6  A    between atoms: C_10  and  C_11
REMARK    7  A    between atoms: C_11  and  C_12
REMARK                            x       y       z     vdW  Elec       q    Type
REMARK                         _______ _______ _______ _____ _____    ______ ____
ROOT
ATOM      1  C   UNL     1      47.839   7.106  13.802  0.00  0.00    +0.000 C 
ENDROOT
BRANCH   1   2
ATOM      2  C   UNL     1      46.776   6.395  13.016  0.00  0.00    +0.000 A 
ATOM      3  C   UNL     1      46.240   5.179  13.445  0.00  0.00    +0.000 A 
ATOM      4  C   UNL     1      45.266   4.534  12.681  0.00  0.00    +0.000 A 
ATOM      5  C   UNL     1      44.826   5.130  11.503  0.00  0.00    +0.000 A 
ATOM      6  N   UNL     1      45.309   6.324  11.082  0.00  0.00    +0.000 NA
ATOM      7  C   UNL     1      46.266   6.921  11.834  0.00  0.00    +0.000 A 
BRANCH   5   8
ATOM      8  C   UNL     1      43.767   4.476  10.641  0.00  0.00    +0.000 C 
BRANCH   8   9
ATOM      9  C   UNL     1      44.359   3.341   9.797  0.00  0.00    +0.000 C 
BRANCH   9  10
ATOM     10  C   UNL     1      44.798   3.799   8.403  0.00  0.00    +0.000 C 
BRANCH  10  11
ATOM     11  C   UNL     1      45.890   2.908   7.854  0.00  0.00    +0.000 A 
ATOM     12  C   UNL     1      46.821   3.410   6.943  0.00  0.00    +0.000 A 
ATOM     13  C   UNL     1      47.788   2.556   6.432  0.00  0.00    +0.000 A 
ATOM     14  N   UNL     1      47.889   1.250   6.764  0.00  0.00    +0.000 NA
ATOM     15  C   UNL     1      46.975   0.782   7.639  0.00  0.00    +0.000 A 
ATOM     16  C   UNL     1      45.970   1.557   8.203  0.00  0.00    +0.000 A 
ENDBRANCH  10  11
ENDBRANCH   9  10
ENDBRANCH   8   9
ENDBRANCH   5   8
ENDBRANCH   1   2
BRANCH   1  19
ATOM     17  O   UNL     1      50.129   6.592  15.322  0.00  0.00    +0.000 OA
ATOM     18  C   UNL     1      49.033   6.536  15.872  0.00  0.00    +0.000 C 
ATOM     19  N   UNL     1      47.853   6.693  15.184  0.00  0.00    +0.000 N 
ATOM     20  H   UNL     1      46.997   6.831  15.710  0.00  0.00    +0.000 HD
BRANCH  18  21
ATOM     21  C   UNL     1      48.901   6.245  17.300  0.00  0.00    +0.000 A 
ATOM     22  C   UNL     1      49.317   5.025  17.821  0.00  0.00    +0.000 A 
ATOM     23  S   UNL     1      49.038   4.872  19.498  0.00  0.00    +0.000 S 
ATOM     24  C   UNL     1      48.401   6.448  19.597  0.00  0.00    +0.000 A 
ATOM     25  N   UNL     1      47.975   6.970  20.780  0.00  0.00    +0.000 NA
ATOM     26  C   UNL     1      47.556   8.188  20.705  0.00  0.00    +0.000 A 
ATOM     27  N   UNL     1      47.521   8.935  19.558  0.00  0.00    +0.000 N 
ATOM     28  C   UNL     1      47.900   8.437  18.336  0.00  0.00    +0.000 A 
ATOM     29  O   UNL     1      47.789   9.108  17.315  0.00  0.00    +0.000 OA
ATOM     30  C   UNL     1      48.392   7.076  18.365  0.00  0.00    +0.000 A 
ATOM     31  H   UNL     1      47.170   9.880  19.558  0.00  0.00    +0.000 HD
ENDBRANCH  18  21
ENDBRANCH   1  19
TORSDOF 7
ENDMDL
MODEL 4
REMARK VINA RESULT:    -7.517      2.656      3.467
REMARK INTER + INTRA:         -11.520
REMARK INTER:                 -10.422
REMARK INTRA:                  -1.098
REMARK UNBOUND:                -0.926
REMARK  Name = 
REMARK  7 active torsions:
REMARK  status: ('A' for Active; 'I' for Inactive)
REMARK    1  A    between atoms: C_2  and  C_20
REMARK    2  A    between atoms: N_3  and  C_4
REMARK    3  A    between atoms: C_4  and  C_5
REMARK    4  A    between atoms: C_8  and  C_9
REMARK    5  A    between atoms: C_9  and  C_10
REMARK    6  A    between atoms: C_10  and  C_11
REMARK    7  A    between atoms: C_11  and  C_12
REMARK                            x       y       z     vdW  Elec       q    Type
REMARK                         _______ _______ _______ _____ _____    ______ ____
ROOT
ATOM      1  C   UNL     1      48.735   6.607  16.092  0.00  0.00    +0.000 C 
ENDROOT
BRANCH   1   2
ATOM      2  C   UNL     1      47.896   5.863  15.092  0.00  0.00    +0.000 A 
ATOM      3  C   UNL     1      47.674   6.364  13.808  0.00  0.00    +0.000 A 
ATOM      4  C   UNL     1      46.874   5.656  12.909  0.00  0.00    +0.000 A 
ATOM      5  C   UNL     1      46.322   4.442  13.306  0.00  0.00    +0.000 A 
ATOM      6  N   UNL     1      46.547   3.922  14.536  0.00  0.00    +0.000 NA
ATOM      7  C   UNL     1      47.315   4.637  15.395  0.00  0.00    +0.000 A 
BRANCH   5   8
ATOM      8  C   UNL     1      45.453   3.632  12.367  0.00  0.00    +0.000 C 
BRANCH   8   9
ATOM      9  C   UNL     1      44.703   4.538  11.382  0.00  0.00    +0.000 C 
BRANCH   9  10
ATOM     10  C   UNL     1      44.019   3.758  10.256  0.00  0.00    +0.000 C 
BRANCH  10  11
ATOM     11  C   UNL     1      45.022   3.303   9.220  0.00  0.00    +0.000 A 
ATOM     12  C   UNL     1      45.632   4.230   8.371  0.00  0.00    +0.000 A 
ATOM     13  C   UNL     1      46.521   3.774   7.409  0.00  0.00    +0.000 A 
ATOM     14  N   UNL     1      46.840   2.473   7.235  0.00  0.00    +0.000 NA
ATOM     15  C   UNL     1      46.233   1.593   8.057  0.00  0.00    +0.000 A 
ATOM     16  C   UNL     1      45.329   1.951   9.049  0.00  0.00    +0.000 A 
ENDBRANCH  10  11
ENDBRANCH   9  10
ENDBRANCH   8   9
ENDBRANCH   5   8
ENDBRANCH   1   2
BRANCH   1  19
ATOM     17  O   UNL     1      49.806   6.417  18.667  0.00  0.00    +0.000 OA
ATOM     18  C   UNL     1      50.330   5.772  17.762  0.00  0.00    +0.000 C 
ATOM     19  N   UNL     1      49.920   5.870  16.454  0.00  0.00    +0.000 N 
ATOM     20  H   UNL     1      50.251   5.181  15.787  0.00  0.00    +0.000 HD
BRANCH  18  21
ATOM     21  C   UNL     1      51.470   4.887  18.006  0.00  0.00    +0.000 A 
ATOM     22  C   UNL     1      52.669   5.387  18.501  0.00  0.00    +0.000 A 
ATOM     23  S   UNL     1      53.880   4.197  18.674  0.00  0.00    +0.000 S 
ATOM     24  C   UNL     1      52.830   2.965  18.146  0.00  0.00    +0.000 A 
ATOM     25  N   UNL     1      53.237   1.668  18.071  0.00  0.00    +0.000 NA
ATOM     26  C   UNL     1      52.320   0.842  17.692  0.00  0.00    +0.000 A 
ATOM     27  N   UNL     1      51.033   1.192  17.380  0.00  0.00    +0.000 N 
ATOM     28  C   UNL     1      50.591   2.491  17.400  0.00  0.00    +0.000 A 
ATOM     29  O   UNL     1      49.453   2.779  17.045  0.00  0.00    +0.000 OA
ATOM     30  C   UNL     1      51.578   3.458  17.831  0.00  0.00    +0.000 A 
ATOM     31  H   UNL     1      50.363   0.503  17.077  0.00  0.00    +0.000 HD
ENDBRANCH  18  21
ENDBRANCH   1  19
TORSDOF 7
ENDMDL
MODEL 5
REMARK VINA RESULT:    -7.517      4.034      5.895
REMARK INTER + INTRA:         -11.520
REMARK INTER:                 -11.014
REMARK INTRA:                  -0.505
REMARK UNBOUND:                -0.926
REMARK  Name = 
REMARK  7 active torsions:
REMARK  status: ('A' for Active; 'I' for Inactive)
REMARK    1  A    between atoms: C_2  and  C_20
REMARK    2  A    between atoms: N_3  and  C_4
REMARK    3  A    between atoms: C_4  and  C_5
REMARK    4  A    between atoms: C_8  and  C_9
REMARK    5  A    between atoms: C_9  and  C_10
REMARK    6  A    between atoms: C_10  and  C_11
REMARK    7  A    between atoms: C_11  and  C_12
REMARK                            x       y       z     vdW  Elec       q    Type
REMARK                         _______ _______ _______ _____ _____    ______ ____
ROOT
ATOM      1  C   UNL     1      47.661   6.750  13.626  0.00  0.00    +0.000 C 
ENDROOT
BRANCH   1   2
ATOM      2  C   UNL     1      46.627   5.892  12.954  0.00  0.00    +0.000 A 
ATOM      3  C   UNL     1      46.368   4.589  13.384  0.00  0.00    +0.000 A 
ATOM      4  C   UNL     1      45.413   3.812  12.726  0.00  0.00    +0.000 A 
ATOM      5  C   UNL     1      44.715   4.362  11.654  0.00  0.00    +0.000 A 
ATOM      6  N   UNL     1      44.929   5.633  11.239  0.00  0.00    +0.000 NA
ATOM      7  C   UNL     1      45.872   6.361  11.885  0.00  0.00    +0.000 A 
BRANCH   5   8
ATOM      8  C   UNL     1      43.665   3.564  10.911  0.00  0.00    +0.000 C 
BRANCH   8   9
ATOM      9  C   UNL     1      44.305   2.626   9.879  0.00  0.00    +0.000 C 
BRANCH   9  10
ATOM     10  C   UNL     1      44.681   3.339   8.577  0.00  0.00    +0.000 C 
BRANCH  10  11
ATOM     11  C   UNL     1      45.871   2.680   7.918  0.00  0.00    +0.000 A 
ATOM     12  C   UNL     1      46.700   3.409   7.062  0.00  0.00    +0.000 A 
ATOM     13  C   UNL     1      47.763   2.765   6.447  0.00  0.00    +0.000 A 
ATOM     14  N   UNL     1      48.054   1.457   6.623  0.00  0.00    +0.000 NA
ATOM     15  C   UNL     1      47.237   0.768   7.446  0.00  0.00    +0.000 A 
ATOM     16  C   UNL     1      46.149   1.323   8.105  0.00  0.00    +0.000 A 
ENDBRANCH  10  11
ENDBRANCH   9  10
ENDBRANCH   8   9
ENDBRANCH   5   8
ENDBRANCH   1   2
BRANCH   1  19
ATOM     17  O   UNL     1      49.033   7.913  11.486  0.00  0.00    +0.000 OA
ATOM     18  C   UNL     1      48.220   8.595  12.105  0.00  0.00    +0.000 C 
ATOM     19  N   UNL     1      47.563   8.129  13.219  0.00  0.00    +0.000 N 
ATOM     20  H   UNL     1      46.770   8.654  13.571  0.00  0.00    +0.000 HD
BRANCH  18  21
ATOM     21  C   UNL     1      47.929   9.979  11.728  0.00  0.00    +0.000 A 
ATOM     22  C   UNL     1      48.943  10.831  11.304  0.00  0.00    +0.000 A 
ATOM     23  S   UNL     1      48.398  12.410  10.952  0.00  0.00    +0.000 S 
ATOM     24  C   UNL     1      46.784  11.996  11.301  0.00  0.00    +0.000 A 
ATOM     25  N   UNL     1      45.776  12.904  11.184  0.00  0.00    +0.000 NA
ATOM     26  C   UNL     1      44.602  12.434  11.444  0.00  0.00    +0.000 A 
ATOM     27  N   UNL     1      44.341  11.141  11.811  0.00  0.00    +0.000 N 
ATOM     28  C   UNL     1      45.329  10.204  11.983  0.00  0.00    +0.000 A 
ATOM     29  O   UNL     1      45.068   9.074  12.384  0.00  0.00    +0.000 OA
ATOM     30  C   UNL     1      46.666  10.676  11.692  0.00  0.00    +0.000 A 
ATOM     31  H   UNL     1      43.403  10.834  12.015  0.00  0.00    +0.000 HD
ENDBRANCH  18  21
ENDBRANCH   1  19
TORSDOF 7
ENDMDL
MODEL 6
REMARK VINA RESULT:    -7.398      3.713      8.463
REMARK INTER + INTRA:         -11.352
REMARK INTER:                 -10.092
REMARK INTRA:                  -1.259
REMARK UNBOUND:                -0.926
REMARK  Name = 
REMARK  7 active torsions:
REMARK  status: ('A' for Active; 'I' for Inactive)
REMARK    1  A    between atoms: C_2  and  C_20
REMARK    2  A    between atoms: N_3  and  C_4
REMARK    3  A    between atoms: C_4  and  C_5
REMARK    4  A    between atoms: C_8  and  C_9
REMARK    5  A    between atoms: C_9  and  C_10
REMARK    6  A    between atoms: C_10  and  C_11
REMARK    7  A    between atoms: C_11  and  C_12
REMARK                            x       y       z     vdW  Elec       q    Type
REMARK                         _______ _______ _______ _____ _____    ______ ____
ROOT
ATOM      1  C   UNL     1      48.077   8.018  12.290  0.00  0.00    +0.000 C 
ENDROOT
BRANCH   1   2
ATOM      2  C   UNL     1      48.380   7.857  13.753  0.00  0.00    +0.000 A 
ATOM      3  C   UNL     1      48.402   8.953  14.617  0.00  0.00    +0.000 A 
ATOM      4  C   UNL     1      48.706   8.773  15.969  0.00  0.00    +0.000 A 
ATOM      5  C   UNL     1      48.963   7.488  16.438  0.00  0.00    +0.000 A 
ATOM      6  N   UNL     1      48.918   6.406  15.623  0.00  0.00    +0.000 NA
ATOM      7  C   UNL     1      48.636   6.612  14.313  0.00  0.00    +0.000 A 
BRANCH   5   8
ATOM      8  C   UNL     1      49.290   7.237  17.894  0.00  0.00    +0.000 C 
BRANCH   8   9
ATOM      9  C   UNL     1      48.461   6.077  18.459  0.00  0.00    +0.000 C 
BRANCH   9  10
ATOM     10  C   UNL     1      49.324   4.941  19.016  0.00  0.00    +0.000 C 
BRANCH  10  11
ATOM     11  C   UNL     1      49.441   3.807  18.023  0.00  0.00    +0.000 A 
ATOM     12  C   UNL     1      48.333   3.405  17.274  0.00  0.00    +0.000 A 
ATOM     13  C   UNL     1      48.466   2.338  16.398  0.00  0.00    +0.000 A 
ATOM     14  N   UNL     1      49.616   1.651  16.217  0.00  0.00    +0.000 NA
ATOM     15  C   UNL     1      50.672   2.049  16.957  0.00  0.00    +0.000 A 
ATOM     16  C   UNL     1      50.637   3.102  17.860  0.00  0.00    +0.000 A 
ENDBRANCH  10  11
ENDBRANCH   9  10
ENDBRANCH   8   9
ENDBRANCH   5   8
ENDBRANCH   1   2
BRANCH   1  19
ATOM     17  O   UNL     1      45.353   7.869  11.681  0.00  0.00    +0.000 OA
ATOM     18  C   UNL     1      46.069   6.909  11.412  0.00  0.00    +0.000 C 
ATOM     19  N   UNL     1      47.401   6.864  11.751  0.00  0.00    +0.000 N 
ATOM     20  H   UNL     1      47.985   6.144  11.339  0.00  0.00    +0.000 HD
BRANCH  18  21
ATOM     21  C   UNL     1      45.542   5.713  10.753  0.00  0.00    +0.000 A 
ATOM     22  C   UNL     1      45.774   5.481   9.402  0.00  0.00    +0.000 A 
ATOM     23  S   UNL     1      45.039   4.054   8.822  0.00  0.00    +0.000 S 
ATOM     24  C   UNL     1      44.432   3.668  10.365  0.00  0.00    +0.000 A 
ATOM     25  N   UNL     1      43.706   2.537  10.580  0.00  0.00    +0.000 NA
ATOM     26  C   UNL     1      43.348   2.358  11.807  0.00  0.00    +0.000 A 
ATOM     27  N   UNL     1      43.647   3.205  12.840  0.00  0.00    +0.000 N 
ATOM     28  C   UNL     1      44.338   4.378  12.663  0.00  0.00    +0.000 A 
ATOM     29  O   UNL     1      44.526   5.150  13.597  0.00  0.00    +0.000 OA
ATOM     30  C   UNL     1      44.775   4.621  11.305  0.00  0.00    +0.000 A 
ATOM     31  H   UNL     1      43.328   3.020  13.778  0.00  0.00    +0.000 HD
ENDBRANCH  18  21
ENDBRANCH   1  19
TORSDOF 7
ENDMDL
MODEL 7
REMARK VINA RESULT:    -7.291      3.354      5.370
REMARK INTER + INTRA:         -11.200
REMARK INTER:                 -10.114
REMARK INTRA:                  -1.087
REMARK UNBOUND:                -0.926
REMARK  Name = 
REMARK  7 active torsions:
REMARK  status: ('A' for Active; 'I' for Inactive)
REMARK    1  A    between atoms: C_2  and  C_20
REMARK    2  A    between atoms: N_3  and  C_4
REMARK    3  A    between atoms: C_4  and  C_5
REMARK    4  A    between atoms: C_8  and  C_9
REMARK    5  A    between atoms: C_9  and  C_10
REMARK    6  A    between atoms: C_10  and  C_11
REMARK    7  A    between atoms: C_11  and  C_12
REMARK                            x       y       z     vdW  Elec       q    Type
REMARK                         _______ _______ _______ _____ _____    ______ ____
ROOT
ATOM      1  C   UNL     1      47.821   5.792  14.352  0.00  0.00    +0.000 C 
ENDROOT
BRANCH   1   2
ATOM      2  C   UNL     1      46.751   5.315  13.411  0.00  0.00    +0.000 A 
ATOM      3  C   UNL     1      46.405   3.965  13.325  0.00  0.00    +0.000 A 
ATOM      4  C   UNL     1      45.419   3.551  12.427  0.00  0.00    +0.000 A 
ATOM      5  C   UNL     1      44.778   4.503  11.641  0.00  0.00    +0.000 A 
ATOM      6  N   UNL     1      45.076   5.822  11.729  0.00  0.00    +0.000 NA
ATOM      7  C   UNL     1      46.048   6.195  12.597  0.00  0.00    +0.000 A 
BRANCH   5   8
ATOM      8  C   UNL     1      43.697   4.109  10.657  0.00  0.00    +0.000 C 
BRANCH   8   9
ATOM      9  C   UNL     1      44.243   3.161   9.581  0.00  0.00    +0.000 C 
BRANCH   9  10
ATOM     10  C   UNL     1      44.961   3.896   8.446  0.00  0.00    +0.000 C 
BRANCH  10  11
ATOM     11  C   UNL     1      45.931   2.982   7.732  0.00  0.00    +0.000 A 
ATOM     12  C   UNL     1      46.143   1.679   8.188  0.00  0.00    +0.000 A 
ATOM     13  C   UNL     1      47.065   0.879   7.531  0.00  0.00    +0.000 A 
ATOM     14  N   UNL     1      47.785   1.283   6.461  0.00  0.00    +0.000 NA
ATOM     15  C   UNL     1      47.574   2.548   6.041  0.00  0.00    +0.000 A 
ATOM     16  C   UNL     1      46.674   3.424   6.634  0.00  0.00    +0.000 A 
ENDBRANCH  10  11
ENDBRANCH   9  10
ENDBRANCH   8   9
ENDBRANCH   5   8
ENDBRANCH   1   2
BRANCH   1  19
ATOM     17  O   UNL     1      48.040   8.510  14.969  0.00  0.00    +0.000 OA
ATOM     18  C   UNL     1      48.808   8.032  14.140  0.00  0.00    +0.000 C 
ATOM     19  N   UNL     1      48.717   6.727  13.716  0.00  0.00    +0.000 N 
ATOM     20  H   UNL     1      49.486   6.332  13.185  0.00  0.00    +0.000 HD
BRANCH  18  21
ATOM     21  C   UNL     1      49.850   8.836  13.499  0.00  0.00    +0.000 A 
ATOM     22  C   UNL     1      51.176   8.744  13.909  0.00  0.00    +0.000 A 
ATOM     23  S   UNL     1      52.222   9.792  13.061  0.00  0.00    +0.000 S 
ATOM     24  C   UNL     1      50.953  10.366  12.082  0.00  0.00    +0.000 A 
ATOM     25  N   UNL     1      51.168  11.294  11.110  0.00  0.00    +0.000 NA
ATOM     26  C   UNL     1      50.119  11.601  10.424  0.00  0.00    +0.000 A 
ATOM     27  N   UNL     1      48.873  11.068  10.619  0.00  0.00    +0.000 N 
ATOM     28  C   UNL     1      48.600  10.163  11.614  0.00  0.00    +0.000 A 
ATOM     29  O   UNL     1      47.458   9.760  11.808  0.00  0.00    +0.000 OA
ATOM     30  C   UNL     1      49.746   9.773  12.407  0.00  0.00    +0.000 A 
ATOM     31  H   UNL     1      48.087  11.357  10.059  0.00  0.00    +0.000 HD
ENDBRANCH  18  21
ENDBRANCH   1  19
TORSDOF 7
ENDMDL
MODEL 8
REMARK VINA RESULT:    -7.205      3.338      8.721
REMARK INTER + INTRA:         -11.080
REMARK INTER:                  -9.379
REMARK INTRA:                  -1.701
REMARK UNBOUND:                -0.926
REMARK  Name = 
REMARK  7 active torsions:
REMARK  status: ('A' for Active; 'I' for Inactive)
REMARK    1  A    between atoms: C_2  and  C_20
REMARK    2  A    between atoms: N_3  and  C_4
REMARK    3  A    between atoms: C_4  and  C_5
REMARK    4  A    between atoms: C_8  and  C_9
REMARK    5  A    between atoms: C_9  and  C_10
REMARK    6  A    between atoms: C_10  and  C_11
REMARK    7  A    between atoms: C_11  and  C_12
REMARK                            x       y       z     vdW  Elec       q    Type
REMARK                         _______ _______ _______ _____ _____    ______ ____
ROOT
ATOM      1  C   UNL     1      47.744   7.732  11.998  0.00  0.00    +0.000 C 
ENDROOT
BRANCH   1   2
ATOM      2  C   UNL     1      48.352   7.899  13.361  0.00  0.00    +0.000 A 
ATOM      3  C   UNL     1      49.549   7.270  13.708  0.00  0.00    +0.000 A 
ATOM      4  C   UNL     1      50.079   7.430  14.990  0.00  0.00    +0.000 A 
ATOM      5  C   UNL     1      49.407   8.239  15.903  0.00  0.00    +0.000 A 
ATOM      6  N   UNL     1      48.260   8.883  15.579  0.00  0.00    +0.000 NA
ATOM      7  C   UNL     1      47.760   8.697  14.333  0.00  0.00    +0.000 A 
BRANCH   5   8
ATOM      8  C   UNL     1      49.942   8.451  17.303  0.00  0.00    +0.000 C 
BRANCH   8   9
ATOM      9  C   UNL     1      50.085   7.121  18.052  0.00  0.00    +0.000 C 
BRANCH   9  10
ATOM     10  C   UNL     1      48.749   6.400  18.249  0.00  0.00    +0.000 C 
BRANCH  10  11
ATOM     11  C   UNL     1      48.763   5.036  17.596  0.00  0.00    +0.000 A 
ATOM     12  C   UNL     1      47.794   4.694  16.649  0.00  0.00    +0.000 A 
ATOM     13  C   UNL     1      47.816   3.423  16.096  0.00  0.00    +0.000 A 
ATOM     14  N   UNL     1      48.726   2.478  16.417  0.00  0.00    +0.000 NA
ATOM     15  C   UNL     1      49.648   2.823  17.340  0.00  0.00    +0.000 A 
ATOM     16  C   UNL     1      49.707   4.069  17.950  0.00  0.00    +0.000 A 
ENDBRANCH  10  11
ENDBRANCH   9  10
ENDBRANCH   8   9
ENDBRANCH   5   8
ENDBRANCH   1   2
BRANCH   1  19
ATOM     17  O   UNL     1      44.968   7.513  12.249  0.00  0.00    +0.000 OA
ATOM     18  C   UNL     1      45.613   6.511  11.956  0.00  0.00    +0.000 C 
ATOM     19  N   UNL     1      46.987   6.510  11.893  0.00  0.00    +0.000 N 
ATOM     20  H   UNL     1      47.454   5.719  11.461  0.00  0.00    +0.000 HD
BRANCH  18  21
ATOM     21  C   UNL     1      44.965   5.223  11.701  0.00  0.00    +0.000 A 
ATOM     22  C   UNL     1      44.213   4.595  12.688  0.00  0.00    +0.000 A 
ATOM     23  S   UNL     1      43.579   3.088  12.201  0.00  0.00    +0.000 S 
ATOM     24  C   UNL     1      44.240   3.245  10.640  0.00  0.00    +0.000 A 
ATOM     25  N   UNL     1      44.056   2.288   9.690  0.00  0.00    +0.000 NA
ATOM     26  C   UNL     1      44.583   2.564   8.545  0.00  0.00    +0.000 A 
ATOM     27  N   UNL     1      45.278   3.709   8.260  0.00  0.00    +0.000 N 
ATOM     28  C   UNL     1      45.525   4.680   9.197  0.00  0.00    +0.000 A 
ATOM     29  O   UNL     1      46.214   5.660   8.929  0.00  0.00    +0.000 OA
ATOM     30  C   UNL     1      44.945   4.426  10.498  0.00  0.00    +0.000 A 
ATOM     31  H   UNL     1      45.679   3.865   7.348  0.00  0.00    +0.000 HD
ENDBRANCH  18  21
ENDBRANCH   1  19
TORSDOF 7
ENDMDL
MODEL 9
REMARK VINA RESULT:    -6.894      3.817      8.538
REMARK INTER + INTRA:         -10.641
REMARK INTER:                  -8.819
REMARK INTRA:                  -1.822
REMARK UNBOUND:                -0.926
REMARK  Name = 
REMARK  7 active torsions:
REMARK  status: ('A' for Active; 'I' for Inactive)
REMARK    1  A    between atoms: C_2  and  C_20
REMARK    2  A    between atoms: N_3  and  C_4
REMARK    3  A    between atoms: C_4  and  C_5
REMARK    4  A    between atoms: C_8  and  C_9
REMARK    5  A    between atoms: C_9  and  C_10
REMARK    6  A    between atoms: C_10  and  C_11
REMARK    7  A    between atoms: C_11  and  C_12
REMARK                            x       y       z     vdW  Elec       q    Type
REMARK                         _______ _______ _______ _____ _____    ______ ____
ROOT
ATOM      1  C   UNL     1      48.362   8.557  14.605  0.00  0.00    +0.000 C 
ENDROOT
BRANCH   1   2
ATOM      2  C   UNL     1      48.991   8.036  15.866  0.00  0.00    +0.000 A 
ATOM      3  C   UNL     1      50.091   7.176  15.831  0.00  0.00    +0.000 A 
ATOM      4  C   UNL     1      50.641   6.695  17.021  0.00  0.00    +0.000 A 
ATOM      5  C   UNL     1      50.090   7.100  18.233  0.00  0.00    +0.000 A 
ATOM      6  N   UNL     1      49.042   7.957  18.292  0.00  0.00    +0.000 NA
ATOM      7  C   UNL     1      48.518   8.396  17.122  0.00  0.00    +0.000 A 
BRANCH   5   8
ATOM      8  C   UNL     1      50.653   6.613  19.551  0.00  0.00    +0.000 C 
BRANCH   8   9
ATOM      9  C   UNL     1      50.599   5.084  19.649  0.00  0.00    +0.000 C 
BRANCH   9  10
ATOM     10  C   UNL     1      49.172   4.544  19.782  0.00  0.00    +0.000 C 
BRANCH  10  11
ATOM     11  C   UNL     1      48.681   3.971  18.472  0.00  0.00    +0.000 A 
ATOM     12  C   UNL     1      49.365   2.920  17.857  0.00  0.00    +0.000 A 
ATOM     13  C   UNL     1      48.907   2.443  16.639  0.00  0.00    +0.000 A 
ATOM     14  N   UNL     1      47.825   2.935  15.996  0.00  0.00    +0.000 NA
ATOM     15  C   UNL     1      47.183   3.956  16.601  0.00  0.00    +0.000 A 
ATOM     16  C   UNL     1      47.565   4.502  17.818  0.00  0.00    +0.000 A 
ENDBRANCH  10  11
ENDBRANCH   9  10
ENDBRANCH   8   9
ENDBRANCH   5   8
ENDBRANCH   1   2
BRANCH   1  19
ATOM     17  O   UNL     1      48.762   6.655  12.595  0.00  0.00    +0.000 OA
ATOM     18  C   UNL     1      47.669   6.700  13.153  0.00  0.00    +0.000 C 
ATOM     19  N   UNL     1      47.359   7.655  14.092  0.00  0.00    +0.000 N 
ATOM     20  H   UNL     1      46.526   7.532  14.656  0.00  0.00    +0.000 HD
BRANCH  18  21
ATOM     21  C   UNL     1      46.592   5.767  12.819  0.00  0.00    +0.000 A 
ATOM     22  C   UNL     1      46.709   4.411  13.104  0.00  0.00    +0.000 A 
ATOM     23  S   UNL     1      45.362   3.493  12.598  0.00  0.00    +0.000 S 
ATOM     24  C   UNL     1      44.555   4.879  12.029  0.00  0.00    +0.000 A 
ATOM     25  N   UNL     1      43.314   4.802  11.474  0.00  0.00    +0.000 NA
ATOM     26  C   UNL     1      42.813   5.939  11.126  0.00  0.00    +0.000 A 
ATOM     27  N   UNL     1      43.437   7.148  11.280  0.00  0.00    +0.000 N 
ATOM     28  C   UNL     1      44.704   7.270  11.794  0.00  0.00    +0.000 A 
ATOM     29  O   UNL     1      45.263   8.361  11.851  0.00  0.00    +0.000 OA
ATOM     30  C   UNL     1      45.308   6.024  12.213  0.00  0.00    +0.000 A 
ATOM     31  H   UNL     1      43.001   8.005  10.977  0.00  0.00    +0.000 HD
ENDBRANCH  18  21
ENDBRANCH   1  19
TORSDOF 7
ENDMDL
