MODEL 1
REMARK VINA RESULT:    -6.920      0.000      0.000
REMARK INTER + INTRA:         -10.395
REMARK INTER:                  -9.145
REMARK INTRA:                  -1.250
REMARK UNBOUND:                -1.250
REMARK  Name = 
REMARK  6 active torsions:
REMARK  status: ('A' for Active; 'I' for Inactive)
REMARK    1  A    between atoms: C_2  and  C_4
REMARK    2  A    between atoms: C_8  and  O_9
REMARK    3  A    between atoms: C_10  and  C_11
REMARK    4  A    between atoms: C_11  and  N_12
REMARK    5  A    between atoms: N_12  and  C_13
REMARK    6  A    between atoms: C_17  and  N_18
REMARK                            x       y       z     vdW  Elec       q    Type
REMARK                         _______ _______ _______ _____ _____    ______ ____
ROOT
ATOM      1  N   UNL     1      44.237   6.472  11.970  0.00  0.00    +0.000 N 
ATOM      2  H   UNL     1      43.349   6.975  11.973  0.00  0.00    +0.000 HD
ENDROOT
BRANCH   1   3
ATOM      3  C   UNL     1      44.105   5.115  11.647  0.00  0.00    +0.000 A 
ATOM      4  C   UNL     1      43.565   4.232  12.583  0.00  0.00    +0.000 A 
ATOM      5  C   UNL     1      43.403   2.884  12.272  0.00  0.00    +0.000 A 
ATOM      6  C   UNL     1      43.752   2.413  11.003  0.00  0.00    +0.000 A 
ATOM      7  C   UNL     1      44.249   3.270  10.011  0.00  0.00    +0.000 A 
ATOM      8  C   UNL     1      44.397   4.620  10.364  0.00  0.00    +0.000 A 
BRANCH   7   9
ATOM      9  N   UNL     1      44.598   2.790   8.760  0.00  0.00    +0.000 N 
ATOM     10  C   UNL     1      45.014   1.395   8.545  0.00  0.00    +0.000 C 
ATOM     11  C   UNL     1      46.489   1.307   8.100  0.00  0.00    +0.000 C 
ATOM     12  N   UNL     1      46.783   2.142   6.914  0.00  0.00    +0.000 NA
ATOM     13  C   UNL     1      46.428   3.540   7.241  0.00  0.00    +0.000 C 
ATOM     14  C   UNL     1      44.958   3.734   7.690  0.00  0.00    +0.000 C 
ATOM     15  H   UNL     1      46.170   1.833   6.160  0.00  0.00    +0.000 HD
ENDBRANCH   7   9
ENDBRANCH   1   3
BRANCH   1  16
ATOM     16  C   UNL     1      45.056   6.802  13.138  0.00  0.00    +0.000 C 
BRANCH  16  22
ATOM     17  C   UNL     1      47.443   6.031  13.351  0.00  0.00    +0.000 A 
ATOM     18  N   UNL     1      48.805   6.119  13.202  0.00  0.00    +0.000 NA
ATOM     19  C   UNL     1      49.283   7.186  12.537  0.00  0.00    +0.000 A 
ATOM     20  C   UNL     1      48.481   8.169  12.000  0.00  0.00    +0.000 A 
ATOM     21  C   UNL     1      47.103   8.061  12.174  0.00  0.00    +0.000 A 
ATOM     22  C   UNL     1      46.534   6.983  12.866  0.00  0.00    +0.000 A 
BRANCH  17  24
ATOM     23  N   UNL     1      46.996   4.916  15.471  0.00  0.00    +0.000 N 
ATOM     24  C   UNL     1      47.012   4.787  14.108  0.00  0.00    +0.000 C 
ATOM     25  O   UNL     1      46.699   3.726  13.584  0.00  0.00    +0.000 OA
ATOM     26  H   UNL     1      46.747   4.127  16.049  0.00  0.00    +0.000 HD
ATOM     27  H   UNL     1      47.288   5.795  15.888  0.00  0.00    +0.000 HD
ENDBRANCH  17  24
BRANCH  21  28
ATOM     28  O   UNL     1      46.309   9.058  11.674  0.00  0.00    +0.000 OA
ATOM     29  H   UNL     1      46.682   9.926  11.909  0.00  0.00    +0.000 HD
ENDBRANCH  21  28
ENDBRANCH  16  22
ENDBRANCH   1  16
TORSDOF 6
ENDMDL
MODEL 2
REMARK VINA RESULT:    -6.776      3.183      5.033
REMARK INTER + INTRA:         -10.205
REMARK INTER:                  -9.240
REMARK INTRA:                  -0.965
REMARK UNBOUND:                -1.250
REMARK  Name = 
REMARK  6 active torsions:
REMARK  status: ('A' for Active; 'I' for Inactive)
REMARK    1  A    between atoms: C_2  and  C_4
REMARK    2  A    between atoms: C_8  and  O_9
REMARK    3  A    between atoms: C_10  and  C_11
REMARK    4  A    between atoms: C_11  and  N_12
REMARK    5  A    between atoms: N_12  and  C_13
REMARK    6  A    between atoms: C_17  and  N_18
REMARK                            x       y       z     vdW  Elec       q    Type
REMARK                         _______ _______ _______ _____ _____    ______ ____
ROOT
ATOM      1  N   UNL     1      47.323   3.252  14.919  0.00  0.00    +0.000 N 
ATOM      2  H   UNL     1      48.199   2.803  14.654  0.00  0.00    +0.000 HD
ENDROOT
BRANCH   1   3
ATOM      3  C   UNL     1      46.908   4.236  14.013  0.00  0.00    +0.000 A 
ATOM      4  C   UNL     1      47.397   5.537  14.133  0.00  0.00    +0.000 A 
ATOM      5  C   UNL     1      47.016   6.524  13.227  0.00  0.00    +0.000 A 
ATOM      6  C   UNL     1      46.162   6.206  12.167  0.00  0.00    +0.000 A 
ATOM      7  C   UNL     1      45.685   4.902  11.972  0.00  0.00    +0.000 A 
ATOM      8  C   UNL     1      46.093   3.938  12.907  0.00  0.00    +0.000 A 
BRANCH   7   9
ATOM      9  N   UNL     1      44.833   4.601  10.922  0.00  0.00    +0.000 N 
ATOM     10  C   UNL     1      43.941   3.431  10.949  0.00  0.00    +0.000 C 
ATOM     11  C   UNL     1      44.329   2.399   9.870  0.00  0.00    +0.000 C 
ATOM     12  N   UNL     1      44.403   2.985   8.513  0.00  0.00    +0.000 NA
ATOM     13  C   UNL     1      45.387   4.088   8.545  0.00  0.00    +0.000 C 
ATOM     14  C   UNL     1      45.077   5.186   9.594  0.00  0.00    +0.000 C 
ATOM     15  H   UNL     1      43.490   3.388   8.301  0.00  0.00    +0.000 HD
ENDBRANCH   7   9
ENDBRANCH   1   3
BRANCH   1  16
ATOM     16  C   UNL     1      47.296   3.602  16.341  0.00  0.00    +0.000 C 
BRANCH  16  22
ATOM     17  C   UNL     1      48.956   4.679  17.899  0.00  0.00    +0.000 A 
ATOM     18  N   UNL     1      50.161   4.819  18.541  0.00  0.00    +0.000 NA
ATOM     19  C   UNL     1      51.087   3.868  18.324  0.00  0.00    +0.000 A 
ATOM     20  C   UNL     1      50.879   2.775  17.511  0.00  0.00    +0.000 A 
ATOM     21  C   UNL     1      49.651   2.663  16.863  0.00  0.00    +0.000 A 
ATOM     22  C   UNL     1      48.642   3.621  17.032  0.00  0.00    +0.000 A 
BRANCH  17  24
ATOM     23  N   UNL     1      48.133   6.930  17.459  0.00  0.00    +0.000 N 
ATOM     24  C   UNL     1      47.983   5.800  18.219  0.00  0.00    +0.000 C 
ATOM     25  O   UNL     1      47.118   5.748  19.083  0.00  0.00    +0.000 OA
ATOM     26  H   UNL     1      47.543   7.732  17.627  0.00  0.00    +0.000 HD
ATOM     27  H   UNL     1      48.875   6.966  16.767  0.00  0.00    +0.000 HD
ENDBRANCH  17  24
BRANCH  21  28
ATOM     28  O   UNL     1      49.460   1.597  16.024  0.00  0.00    +0.000 OA
ATOM     29  H   UNL     1      48.685   1.084  16.314  0.00  0.00    +0.000 HD
ENDBRANCH  21  28
ENDBRANCH  16  22
ENDBRANCH   1  16
TORSDOF 6
ENDMDL
MODEL 3
REMARK VINA RESULT:    -6.474      3.221      5.358
REMARK INTER + INTRA:          -9.805
REMARK INTER:                  -8.748
REMARK INTRA:                  -1.058
REMARK UNBOUND:                -1.250
REMARK  Name = 
REMARK  6 active torsions:
REMARK  status: ('A' for Active; 'I' for Inactive)
REMARK    1  A    between atoms: C_2  and  C_4
REMARK    2  A    between atoms: C_8  and  O_9
REMARK    3  A    between atoms: C_10  and  C_11
REMARK    4  A    between atoms: C_11  and  N_12
REMARK    5  A    between atoms: N_12  and  C_13
REMARK    6  A    between atoms: C_17  and  N_18
REMARK                            x       y       z     vdW  Elec       q    Type
REMARK                         _______ _______ _______ _____ _____    ______ ____
ROOT
ATOM      1  N   UNL     1      48.897   6.841  15.092  0.00  0.00    +0.000 N 
ATOM      2  H   UNL     1      49.167   7.807  15.277  0.00  0.00    +0.000 HD
ENDROOT
BRANCH   1   3
ATOM      3  C   UNL     1      48.069   6.701  13.971  0.00  0.00    +0.000 A 
ATOM      4  C   UNL     1      48.379   7.384  12.794  0.00  0.00    +0.000 A 
ATOM      5  C   UNL     1      47.581   7.238  11.661  0.00  0.00    +0.000 A 
ATOM      6  C   UNL     1      46.480   6.378  11.688  0.00  0.00    +0.000 A 
ATOM      7  C   UNL     1      46.158   5.630  12.829  0.00  0.00    +0.000 A 
ATOM      8  C   UNL     1      46.986   5.805  13.948  0.00  0.00    +0.000 A 
BRANCH   7   9
ATOM      9  N   UNL     1      45.060   4.787  12.845  0.00  0.00    +0.000 N 
ATOM     10  C   UNL     1      45.133   3.398  12.364  0.00  0.00    +0.000 C 
ATOM     11  C   UNL     1      44.262   3.187  11.108  0.00  0.00    +0.000 C 
ATOM     12  N   UNL     1      42.858   3.613  11.304  0.00  0.00    +0.000 NA
ATOM     13  C   UNL     1      42.864   5.040  11.691  0.00  0.00    +0.000 C 
ATOM     14  C   UNL     1      43.706   5.353  12.953  0.00  0.00    +0.000 C 
ATOM     15  H   UNL     1      42.480   3.079  12.086  0.00  0.00    +0.000 HD
ENDBRANCH   7   9
ENDBRANCH   1   3
BRANCH   1  16
ATOM     16  C   UNL     1      48.487   6.145  16.313  0.00  0.00    +0.000 C 
BRANCH  16  22
ATOM     17  C   UNL     1      49.069   3.786  16.977  0.00  0.00    +0.000 A 
ATOM     18  N   UNL     1      49.863   2.789  17.486  0.00  0.00    +0.000 NA
ATOM     19  C   UNL     1      51.108   3.127  17.864  0.00  0.00    +0.000 A 
ATOM     20  C   UNL     1      51.615   4.404  17.755  0.00  0.00    +0.000 A 
ATOM     21  C   UNL     1      50.785   5.399  17.245  0.00  0.00    +0.000 A 
ATOM     22  C   UNL     1      49.472   5.123  16.841  0.00  0.00    +0.000 A 
BRANCH  17  24
ATOM     23  N   UNL     1      47.603   2.787  15.306  0.00  0.00    +0.000 N 
ATOM     24  C   UNL     1      47.689   3.295  16.575  0.00  0.00    +0.000 C 
ATOM     25  O   UNL     1      46.698   3.334  17.293  0.00  0.00    +0.000 OA
ATOM     26  H   UNL     1      46.715   2.463  14.952  0.00  0.00    +0.000 HD
ATOM     27  H   UNL     1      48.429   2.791  14.715  0.00  0.00    +0.000 HD
ENDBRANCH  17  24
BRANCH  21  28
ATOM     28  O   UNL     1      51.277   6.675  17.173  0.00  0.00    +0.000 OA
ATOM     29  H   UNL     1      52.241   6.665  17.307  0.00  0.00    +0.000 HD
ENDBRANCH  21  28
ENDBRANCH  16  22
ENDBRANCH   1  16
TORSDOF 6
ENDMDL
MODEL 4
REMARK VINA RESULT:    -6.433      1.704      2.950
REMARK INTER + INTRA:          -9.751
REMARK INTER:                  -9.010
REMARK INTRA:                  -0.740
REMARK UNBOUND:                -1.250
REMARK  Name = 
REMARK  6 active torsions:
REMARK  status: ('A' for Active; 'I' for Inactive)
REMARK    1  A    between atoms: C_2  and  C_4
REMARK    2  A    between atoms: C_8  and  O_9
REMARK    3  A    between atoms: C_10  and  C_11
REMARK    4  A    between atoms: C_11  and  N_12
REMARK    5  A    between atoms: N_12  and  C_13
REMARK    6  A    between atoms: C_17  and  N_18
REMARK                            x       y       z     vdW  Elec       q    Type
REMARK                         _______ _______ _______ _____ _____    ______ ____
ROOT
ATOM      1  N   UNL     1      45.673   6.123  12.729  0.00  0.00    +0.000 N 
ATOM      2  H   UNL     1      45.211   6.539  13.537  0.00  0.00    +0.000 HD
ENDROOT
BRANCH   1   3
ATOM      3  C   UNL     1      44.999   5.006  12.218  0.00  0.00    +0.000 A 
ATOM      4  C   UNL     1      44.055   4.348  13.008  0.00  0.00    +0.000 A 
ATOM      5  C   UNL     1      43.356   3.251  12.510  0.00  0.00    +0.000 A 
ATOM      6  C   UNL     1      43.575   2.821  11.198  0.00  0.00    +0.000 A 
ATOM      7  C   UNL     1      44.474   3.480  10.348  0.00  0.00    +0.000 A 
ATOM      8  C   UNL     1      45.157   4.580  10.888  0.00  0.00    +0.000 A 
BRANCH   7   9
ATOM      9  N   UNL     1      44.687   3.039   9.052  0.00  0.00    +0.000 N 
ATOM     10  C   UNL     1      44.964   1.628   8.741  0.00  0.00    +0.000 C 
ATOM     11  C   UNL     1      46.390   1.442   8.180  0.00  0.00    +0.000 C 
ATOM     12  N   UNL     1      46.667   2.312   7.015  0.00  0.00    +0.000 NA
ATOM     13  C   UNL     1      46.459   3.714   7.433  0.00  0.00    +0.000 C 
ATOM     14  C   UNL     1      45.048   4.006   8.003  0.00  0.00    +0.000 C 
ATOM     15  H   UNL     1      45.976   2.095   6.297  0.00  0.00    +0.000 HD
ENDBRANCH   7   9
ENDBRANCH   1   3
BRANCH   1  16
ATOM     16  C   UNL     1      47.117   5.993  12.932  0.00  0.00    +0.000 C 
BRANCH  16  22
ATOM     17  C   UNL     1      48.191   6.656  15.111  0.00  0.00    +0.000 A 
ATOM     18  N   UNL     1      48.663   6.459  16.385  0.00  0.00    +0.000 NA
ATOM     19  C   UNL     1      48.481   5.242  16.927  0.00  0.00    +0.000 A 
ATOM     20  C   UNL     1      47.845   4.207  16.275  0.00  0.00    +0.000 A 
ATOM     21  C   UNL     1      47.384   4.431  14.980  0.00  0.00    +0.000 A 
ATOM     22  C   UNL     1      47.548   5.670  14.347  0.00  0.00    +0.000 A 
BRANCH  17  24
ATOM     23  N   UNL     1      47.430   8.956  14.842  0.00  0.00    +0.000 N 
ATOM     24  C   UNL     1      48.442   8.064  14.601  0.00  0.00    +0.000 C 
ATOM     25  O   UNL     1      49.451   8.422  14.008  0.00  0.00    +0.000 OA
ATOM     26  H   UNL     1      47.506   9.906  14.512  0.00  0.00    +0.000 HD
ATOM     27  H   UNL     1      46.587   8.633  15.308  0.00  0.00    +0.000 HD
ENDBRANCH  17  24
BRANCH  21  28
ATOM     28  O   UNL     1      46.786   3.391  14.319  0.00  0.00    +0.000 OA
ATOM     29  H   UNL     1      46.128   3.734  13.691  0.00  0.00    +0.000 HD
ENDBRANCH  21  28
ENDBRANCH  16  22
ENDBRANCH   1  16
TORSDOF 6
ENDMDL
MODEL 5
REMARK VINA RESULT:    -6.377      2.843      4.504
REMARK INTER + INTRA:          -9.677
REMARK INTER:                  -8.761
REMARK INTRA:                  -0.916
REMARK UNBOUND:                -1.250
REMARK  Name = 
REMARK  6 active torsions:
REMARK  status: ('A' for Active; 'I' for Inactive)
REMARK    1  A    between atoms: C_2  and  C_4
REMARK    2  A    between atoms: C_8  and  O_9
REMARK    3  A    between atoms: C_10  and  C_11
REMARK    4  A    between atoms: C_11  and  N_12
REMARK    5  A    between atoms: N_12  and  C_13
REMARK    6  A    between atoms: C_17  and  N_18
REMARK                            x       y       z     vdW  Elec       q    Type
REMARK                         _______ _______ _______ _____ _____    ______ ____
ROOT
ATOM      1  N   UNL     1      47.797   6.272  14.138  0.00  0.00    +0.000 N 
ATOM      2  H   UNL     1      48.327   7.076  14.475  0.00  0.00    +0.000 HD
ENDROOT
BRANCH   1   3
ATOM      3  C   UNL     1      46.740   6.621  13.287  0.00  0.00    +0.000 A 
ATOM      4  C   UNL     1      46.507   7.965  12.990  0.00  0.00    +0.000 A 
ATOM      5  C   UNL     1      45.477   8.330  12.128  0.00  0.00    +0.000 A 
ATOM      6  C   UNL     1      44.688   7.346  11.525  0.00  0.00    +0.000 A 
ATOM      7  C   UNL     1      44.915   5.982  11.750  0.00  0.00    +0.000 A 
ATOM      8  C   UNL     1      45.962   5.655  12.625  0.00  0.00    +0.000 A 
BRANCH   7   9
ATOM      9  N   UNL     1      44.122   5.016  11.153  0.00  0.00    +0.000 N 
ATOM     10  C   UNL     1      43.100   4.269  11.904  0.00  0.00    +0.000 C 
ATOM     11  C   UNL     1      43.450   2.769  11.998  0.00  0.00    +0.000 C 
ATOM     12  N   UNL     1      43.701   2.153  10.676  0.00  0.00    +0.000 NA
ATOM     13  C   UNL     1      44.802   2.897  10.027  0.00  0.00    +0.000 C 
ATOM     14  C   UNL     1      44.539   4.417   9.876  0.00  0.00    +0.000 C 
ATOM     15  H   UNL     1      42.862   2.282  10.112  0.00  0.00    +0.000 HD
ENDBRANCH   7   9
ENDBRANCH   1   3
BRANCH   1  16
ATOM     16  C   UNL     1      47.501   5.323  15.213  0.00  0.00    +0.000 C 
BRANCH  16  22
ATOM     17  C   UNL     1      48.567   4.416  17.306  0.00  0.00    +0.000 A 
ATOM     18  N   UNL     1      49.229   4.489  18.506  0.00  0.00    +0.000 NA
ATOM     19  C   UNL     1      49.639   5.705  18.909  0.00  0.00    +0.000 A 
ATOM     20  C   UNL     1      49.436   6.856  18.180  0.00  0.00    +0.000 A 
ATOM     21  C   UNL     1      48.752   6.755  16.970  0.00  0.00    +0.000 A 
ATOM     22  C   UNL     1      48.285   5.523  16.492  0.00  0.00    +0.000 A 
BRANCH  17  24
ATOM     23  N   UNL     1      47.008   2.558  17.543  0.00  0.00    +0.000 N 
ATOM     24  C   UNL     1      48.157   2.999  16.944  0.00  0.00    +0.000 C 
ATOM     25  O   UNL     1      48.777   2.267  16.184  0.00  0.00    +0.000 OA
ATOM     26  H   UNL     1      46.681   1.618  17.377  0.00  0.00    +0.000 HD
ATOM     27  H   UNL     1      46.524   3.169  18.194  0.00  0.00    +0.000 HD
ENDBRANCH  17  24
BRANCH  21  28
ATOM     28  O   UNL     1      48.516   7.905  16.264  0.00  0.00    +0.000 OA
ATOM     29  H   UNL     1      47.953   7.711  15.496  0.00  0.00    +0.000 HD
ENDBRANCH  21  28
ENDBRANCH  16  22
ENDBRANCH   1  16
TORSDOF 6
ENDMDL
MODEL 6
REMARK VINA RESULT:    -6.339      2.044      3.315
REMARK INTER + INTRA:          -9.627
REMARK INTER:                  -8.589
REMARK INTRA:                  -1.039
REMARK UNBOUND:                -1.250
REMARK  Name = 
REMARK  6 active torsions:
REMARK  status: ('A' for Active; 'I' for Inactive)
REMARK    1  A    between atoms: C_2  and  C_4
REMARK    2  A    between atoms: C_8  and  O_9
REMARK    3  A    between atoms: C_10  and  C_11
REMARK    4  A    between atoms: C_11  and  N_12
REMARK    5  A    between atoms: N_12  and  C_13
REMARK    6  A    between atoms: C_17  and  N_18
REMARK                            x       y       z     vdW  Elec       q    Type
REMARK                         _______ _______ _______ _____ _____    ______ ____
ROOT
ATOM      1  N   UNL     1      44.262   6.641  12.513  0.00  0.00    +0.000 N 
ATOM      2  H   UNL     1      44.839   6.768  13.344  0.00  0.00    +0.000 HD
ENDROOT
BRANCH   1   3
ATOM      3  C   UNL     1      44.137   5.301  12.123  0.00  0.00    +0.000 A 
ATOM      4  C   UNL     1      43.664   4.357  13.035  0.00  0.00    +0.000 A 
ATOM      5  C   UNL     1      43.510   3.025  12.659  0.00  0.00    +0.000 A 
ATOM      6  C   UNL     1      43.799   2.631  11.349  0.00  0.00    +0.000 A 
ATOM      7  C   UNL     1      44.227   3.551  10.382  0.00  0.00    +0.000 A 
ATOM      8  C   UNL     1      44.369   4.882  10.801  0.00  0.00    +0.000 A 
BRANCH   7   9
ATOM      9  N   UNL     1      44.517   3.147   9.089  0.00  0.00    +0.000 N 
ATOM     10  C   UNL     1      44.745   1.734   8.743  0.00  0.00    +0.000 C 
ATOM     11  C   UNL     1      46.198   1.492   8.284  0.00  0.00    +0.000 C 
ATOM     12  N   UNL     1      46.608   2.387   7.179  0.00  0.00    +0.000 NA
ATOM     13  C   UNL     1      46.441   3.783   7.637  0.00  0.00    +0.000 C 
ATOM     14  C   UNL     1      45.007   4.129   8.110  0.00  0.00    +0.000 C 
ATOM     15  H   UNL     1      45.965   2.234   6.403  0.00  0.00    +0.000 HD
ENDBRANCH   7   9
ENDBRANCH   1   3
BRANCH   1  16
ATOM     16  C   UNL     1      44.590   7.611  11.466  0.00  0.00    +0.000 C 
BRANCH  16  22
ATOM     17  C   UNL     1      45.491   9.955  11.655  0.00  0.00    +0.000 A 
ATOM     18  N   UNL     1      46.445  10.914  11.886  0.00  0.00    +0.000 NA
ATOM     19  C   UNL     1      47.657  10.492  12.289  0.00  0.00    +0.000 A 
ATOM     20  C   UNL     1      47.973   9.165  12.486  0.00  0.00    +0.000 A 
ATOM     21  C   UNL     1      46.989   8.211  12.234  0.00  0.00    +0.000 A 
ATOM     22  C   UNL     1      45.707   8.576  11.801  0.00  0.00    +0.000 A 
BRANCH  17  24
ATOM     23  N   UNL     1      43.235  10.690  12.212  0.00  0.00    +0.000 N 
ATOM     24  C   UNL     1      44.161  10.540  11.214  0.00  0.00    +0.000 C 
ATOM     25  O   UNL     1      43.888  10.863  10.065  0.00  0.00    +0.000 OA
ATOM     26  H   UNL     1      42.316  11.048  11.998  0.00  0.00    +0.000 HD
ATOM     27  H   UNL     1      43.470  10.389  13.153  0.00  0.00    +0.000 HD
ENDBRANCH  17  24
BRANCH  21  28
ATOM     28  O   UNL     1      47.316   6.891  12.393  0.00  0.00    +0.000 OA
ATOM     29  H   UNL     1      47.873   6.781  13.183  0.00  0.00    +0.000 HD
ENDBRANCH  21  28
ENDBRANCH  16  22
ENDBRANCH   1  16
TORSDOF 6
ENDMDL
MODEL 7
REMARK VINA RESULT:    -6.047      3.903      8.124
REMARK INTER + INTRA:          -9.241
REMARK INTER:                  -8.305
REMARK INTRA:                  -0.935
REMARK UNBOUND:                -1.250
REMARK  Name = 
REMARK  6 active torsions:
REMARK  status: ('A' for Active; 'I' for Inactive)
REMARK    1  A    between atoms: C_2  and  C_4
REMARK    2  A    between atoms: C_8  and  O_9
REMARK    3  A    between atoms: C_10  and  C_11
REMARK    4  A    between atoms: C_11  and  N_12
REMARK    5  A    between atoms: N_12  and  C_13
REMARK    6  A    between atoms: C_17  and  N_18
REMARK                            x       y       z     vdW  Elec       q    Type
REMARK                         _______ _______ _______ _____ _____    ______ ____
ROOT
ATOM      1  N   UNL     1      46.583   4.356  15.469  0.00  0.00    +0.000 N 
ATOM      2  H   UNL     1      46.169   5.257  15.709  0.00  0.00    +0.000 HD
ENDROOT
BRANCH   1   3
ATOM      3  C   UNL     1      47.701   4.035  16.250  0.00  0.00    +0.000 A 
ATOM      4  C   UNL     1      48.194   2.729  16.245  0.00  0.00    +0.000 A 
ATOM      5  C   UNL     1      49.320   2.396  16.996  0.00  0.00    +0.000 A 
ATOM      6  C   UNL     1      49.983   3.379  17.734  0.00  0.00    +0.000 A 
ATOM      7  C   UNL     1      49.558   4.715  17.730  0.00  0.00    +0.000 A 
ATOM      8  C   UNL     1      48.421   5.009  16.962  0.00  0.00    +0.000 A 
BRANCH   7   9
ATOM      9  N   UNL     1      50.219   5.679  18.473  0.00  0.00    +0.000 N 
ATOM     10  C   UNL     1      50.743   5.405  19.821  0.00  0.00    +0.000 C 
ATOM     11  C   UNL     1      50.009   6.239  20.892  0.00  0.00    +0.000 C 
ATOM     12  N   UNL     1      50.018   7.690  20.598  0.00  0.00    +0.000 NA
ATOM     13  C   UNL     1      49.392   7.890  19.274  0.00  0.00    +0.000 C 
ATOM     14  C   UNL     1      50.067   7.100  18.125  0.00  0.00    +0.000 C 
ATOM     15  H   UNL     1      50.991   7.985  20.531  0.00  0.00    +0.000 HD
ENDBRANCH   7   9
ENDBRANCH   1   3
BRANCH   1  16
ATOM     16  C   UNL     1      46.709   4.180  14.021  0.00  0.00    +0.000 C 
BRANCH  16  22
ATOM     17  C   UNL     1      45.025   4.858  12.276  0.00  0.00    +0.000 A 
ATOM     18  N   UNL     1      44.378   5.725  11.431  0.00  0.00    +0.000 NA
ATOM     19  C   UNL     1      44.735   7.020  11.488  0.00  0.00    +0.000 A 
ATOM     20  C   UNL     1      45.696   7.507  12.348  0.00  0.00    +0.000 A 
ATOM     21  C   UNL     1      46.344   6.604  13.188  0.00  0.00    +0.000 A 
ATOM     22  C   UNL     1      46.032   5.238  13.176  0.00  0.00    +0.000 A 
BRANCH  17  24
ATOM     23  N   UNL     1      45.015   2.759  11.037  0.00  0.00    +0.000 N 
ATOM     24  C   UNL     1      44.540   3.426  12.136  0.00  0.00    +0.000 C 
ATOM     25  O   UNL     1      43.779   2.867  12.915  0.00  0.00    +0.000 OA
ATOM     26  H   UNL     1      44.720   1.812  10.856  0.00  0.00    +0.000 HD
ATOM     27  H   UNL     1      45.621   3.249  10.386  0.00  0.00    +0.000 HD
ENDBRANCH  17  24
BRANCH  21  28
ATOM     28  O   UNL     1      47.326   7.082  14.015  0.00  0.00    +0.000 OA
ATOM     29  H   UNL     1      47.491   6.447  14.732  0.00  0.00    +0.000 HD
ENDBRANCH  21  28
ENDBRANCH  16  22
ENDBRANCH   1  16
TORSDOF 6
ENDMDL
MODEL 8
REMARK VINA RESULT:    -6.045      2.554      7.241
REMARK INTER + INTRA:          -9.239
REMARK INTER:                  -8.594
REMARK INTRA:                  -0.645
REMARK UNBOUND:                -1.250
REMARK  Name = 
REMARK  6 active torsions:
REMARK  status: ('A' for Active; 'I' for Inactive)
REMARK    1  A    between atoms: C_2  and  C_4
REMARK    2  A    between atoms: C_8  and  O_9
REMARK    3  A    between atoms: C_10  and  C_11
REMARK    4  A    between atoms: C_11  and  N_12
REMARK    5  A    between atoms: N_12  and  C_13
REMARK    6  A    between atoms: C_17  and  N_18
REMARK                            x       y       z     vdW  Elec       q    Type
REMARK                         _______ _______ _______ _____ _____    ______ ____
ROOT
ATOM      1  N   UNL     1      46.220   5.752  12.347  0.00  0.00    +0.000 N 
ATOM      2  H   UNL     1      45.587   5.735  13.147  0.00  0.00    +0.000 HD
ENDROOT
BRANCH   1   3
ATOM      3  C   UNL     1      47.400   6.467  12.589  0.00  0.00    +0.000 A 
ATOM      4  C   UNL     1      47.997   7.185  11.553  0.00  0.00    +0.000 A 
ATOM      5  C   UNL     1      49.157   7.922  11.779  0.00  0.00    +0.000 A 
ATOM      6  C   UNL     1      49.713   7.973  13.061  0.00  0.00    +0.000 A 
ATOM      7  C   UNL     1      49.122   7.311  14.146  0.00  0.00    +0.000 A 
ATOM      8  C   UNL     1      47.955   6.580  13.876  0.00  0.00    +0.000 A 
BRANCH   7   9
ATOM      9  N   UNL     1      49.687   7.363  15.409  0.00  0.00    +0.000 N 
ATOM     10  C   UNL     1      51.118   7.638  15.616  0.00  0.00    +0.000 C 
ATOM     11  C   UNL     1      51.847   6.419  16.221  0.00  0.00    +0.000 C 
ATOM     12  N   UNL     1      51.211   5.928  17.464  0.00  0.00    +0.000 NA
ATOM     13  C   UNL     1      49.807   5.584  17.153  0.00  0.00    +0.000 C 
ATOM     14  C   UNL     1      48.986   6.750  16.548  0.00  0.00    +0.000 C 
ATOM     15  H   UNL     1      51.203   6.699  18.132  0.00  0.00    +0.000 HD
ENDBRANCH   7   9
ENDBRANCH   1   3
BRANCH   1  16
ATOM     16  C   UNL     1      45.513   6.037  11.097  0.00  0.00    +0.000 C 
BRANCH  16  22
ATOM     17  C   UNL     1      44.239   3.884  10.816  0.00  0.00    +0.000 A 
ATOM     18  N   UNL     1      43.859   2.728  10.179  0.00  0.00    +0.000 NA
ATOM     19  C   UNL     1      44.370   2.503   8.956  0.00  0.00    +0.000 A 
ATOM     20  C   UNL     1      45.235   3.369   8.322  0.00  0.00    +0.000 A 
ATOM     21  C   UNL     1      45.613   4.529   8.995  0.00  0.00    +0.000 A 
ATOM     22  C   UNL     1      45.129   4.825  10.276  0.00  0.00    +0.000 A 
BRANCH  17  24
ATOM     23  N   UNL     1      42.454   4.797  12.202  0.00  0.00    +0.000 N 
ATOM     24  C   UNL     1      43.597   4.042  12.183  0.00  0.00    +0.000 C 
ATOM     25  O   UNL     1      44.034   3.557  13.218  0.00  0.00    +0.000 OA
ATOM     26  H   UNL     1      41.981   4.973  13.075  0.00  0.00    +0.000 HD
ATOM     27  H   UNL     1      42.125   5.216  11.338  0.00  0.00    +0.000 HD
ENDBRANCH  17  24
BRANCH  21  28
ATOM     28  O   UNL     1      46.502   5.370   8.380  0.00  0.00    +0.000 OA
ATOM     29  H   UNL     1      46.020   6.048   7.875  0.00  0.00    +0.000 HD
ENDBRANCH  21  28
ENDBRANCH  16  22
ENDBRANCH   1  16
TORSDOF 6
ENDMDL
MODEL 9
REMARK VINA RESULT:    -5.961      3.320      7.606
REMARK INTER + INTRA:          -9.128
REMARK INTER:                  -8.354
REMARK INTRA:                  -0.773
REMARK UNBOUND:                -1.250
REMARK  Name = 
REMARK  6 active torsions:
REMARK  status: ('A' for Active; 'I' for Inactive)
REMARK    1  A    between atoms: C_2  and  C_4
REMARK    2  A    between atoms: C_8  and  O_9
REMARK    3  A    between atoms: C_10  and  C_11
REMARK    4  A    between atoms: C_11  and  N_12
REMARK    5  A    between atoms: N_12  and  C_13
REMARK    6  A    between atoms: C_17  and  N_18
REMARK                            x       y       z     vdW  Elec       q    Type
REMARK                         _______ _______ _______ _____ _____    ______ ____
ROOT
ATOM      1  N   UNL     1      47.578   7.432  14.113  0.00  0.00    +0.000 N 
ATOM      2  H   UNL     1      47.388   8.421  13.952  0.00  0.00    +0.000 HD
ENDROOT
BRANCH   1   3
ATOM      3  C   UNL     1      48.775   7.203  14.803  0.00  0.00    +0.000 A 
ATOM      4  C   UNL     1      49.942   7.852  14.396  0.00  0.00    +0.000 A 
ATOM      5  C   UNL     1      51.137   7.656  15.085  0.00  0.00    +0.000 A 
ATOM      6  C   UNL     1      51.166   6.830  16.212  0.00  0.00    +0.000 A 
ATOM      7  C   UNL     1      50.011   6.197  16.690  0.00  0.00    +0.000 A 
ATOM      8  C   UNL     1      48.828   6.420  15.969  0.00  0.00    +0.000 A 
BRANCH   7   9
ATOM      9  N   UNL     1      50.054   5.375  17.804  0.00  0.00    +0.000 N 
ATOM     10  C   UNL     1      50.113   3.908  17.692  0.00  0.00    +0.000 C 
ATOM     11  C   UNL     1      48.837   3.246  18.253  0.00  0.00    +0.000 C 
ATOM     12  N   UNL     1      48.534   3.666  19.640  0.00  0.00    +0.000 NA
ATOM     13  C   UNL     1      48.396   5.138  19.651  0.00  0.00    +0.000 C 
ATOM     14  C   UNL     1      49.635   5.897  19.114  0.00  0.00    +0.000 C 
ATOM     15  H   UNL     1      49.337   3.424  20.218  0.00  0.00    +0.000 HD
ENDBRANCH   7   9
ENDBRANCH   1   3
BRANCH   1  16
ATOM     16  C   UNL     1      47.335   6.627  12.914  0.00  0.00    +0.000 C 
BRANCH  16  22
ATOM     17  C   UNL     1      45.674   4.804  13.419  0.00  0.00    +0.000 A 
ATOM     18  N   UNL     1      44.467   4.153  13.343  0.00  0.00    +0.000 NA
ATOM     19  C   UNL     1      43.492   4.748  12.634  0.00  0.00    +0.000 A 
ATOM     20  C   UNL     1      43.644   5.964  12.003  0.00  0.00    +0.000 A 
ATOM     21  C   UNL     1      44.881   6.598  12.089  0.00  0.00    +0.000 A 
ATOM     22  C   UNL     1      45.948   6.032  12.800  0.00  0.00    +0.000 A 
BRANCH  17  24
ATOM     23  N   UNL     1      46.552   4.174  15.604  0.00  0.00    +0.000 N 
ATOM     24  C   UNL     1      46.699   4.049  14.248  0.00  0.00    +0.000 C 
ATOM     25  O   UNL     1      47.609   3.373  13.785  0.00  0.00    +0.000 OA
ATOM     26  H   UNL     1      47.208   3.725  16.225  0.00  0.00    +0.000 HD
ATOM     27  H   UNL     1      45.809   4.763  15.968  0.00  0.00    +0.000 HD
ENDBRANCH  17  24
BRANCH  21  28
ATOM     28  O   UNL     1      45.043   7.788  11.429  0.00  0.00    +0.000 OA
ATOM     29  H   UNL     1      44.545   7.772  10.594  0.00  0.00    +0.000 HD
ENDBRANCH  21  28
ENDBRANCH  16  22
ENDBRANCH   1  16
TORSDOF 6
ENDMDL
