MODEL 1
REMARK VINA RESULT:    -9.269      0.000      0.000
REMARK INTER + INTRA:         -13.699
REMARK INTER:                 -12.792
REMARK INTRA:                  -0.907
REMARK UNBOUND:                -0.907
REMARK  Name = 
REMARK  7 active torsions:
REMARK  status: ('A' for Active; 'I' for Inactive)
REMARK    1  A    between atoms: C_2  and  C_25
REMARK    2  A    between atoms: N_3  and  C_4
REMARK    3  A    between atoms: C_4  and  C_5
REMARK    4  A    between atoms: C_9  and  C_10
REMARK    5  A    between atoms: C_10  and  N_11
REMARK    6  A    between atoms: C_12  and  C_14
REMARK    7  A    between atoms: C_29  and  O_30
REMARK                            x       y       z     vdW  Elec       q    Type
REMARK                         _______ _______ _______ _____ _____    ______ ____
ROOT
ATOM      1  C   UNL     1      44.829   5.266  11.642  0.00  0.00    +0.000 A 
ATOM      2  C   UNL     1      45.062   6.644  11.738  0.00  0.00    +0.000 A 
ATOM      3  C   UNL     1      45.956   7.144  12.684  0.00  0.00    +0.000 A 
ATOM      4  C   UNL     1      46.598   6.278  13.570  0.00  0.00    +0.000 A 
ATOM      5  C   UNL     1      46.339   4.900  13.532  0.00  0.00    +0.000 A 
ATOM      6  C   UNL     1      45.477   4.401  12.541  0.00  0.00    +0.000 A 
ENDROOT
BRANCH   1   7
ATOM      7  C   UNL     1      43.844   4.735  10.632  0.00  0.00    +0.000 C 
BRANCH   7  10
ATOM      8  O   UNL     1      45.697   5.418   8.653  0.00  0.00    +0.000 OA
ATOM      9  C   UNL     1      45.386   4.242   8.791  0.00  0.00    +0.000 C 
ATOM     10  N   UNL     1      44.475   3.802   9.726  0.00  0.00    +0.000 N 
ATOM     11  H   UNL     1      44.399   2.815   9.933  0.00  0.00    +0.000 HD
BRANCH   9  12
ATOM     12  C   UNL     1      46.030   3.192   7.957  0.00  0.00    +0.000 A 
ATOM     13  C   UNL     1      46.586   3.560   6.726  0.00  0.00    +0.000 A 
ATOM     14  C   UNL     1      47.213   2.602   5.925  0.00  0.00    +0.000 A 
ATOM     15  C   UNL     1      47.282   1.274   6.349  0.00  0.00    +0.000 A 
ATOM     16  C   UNL     1      46.713   0.915   7.569  0.00  0.00    +0.000 A 
ATOM     17  C   UNL     1      46.078   1.856   8.371  0.00  0.00    +0.000 A 
BRANCH  16  18
ATOM     18  O   UNL     1      46.761  -0.370   8.023  0.00  0.00    +0.000 OA
ATOM     19  H   UNL     1      47.144  -0.372   8.916  0.00  0.00    +0.000 HD
ENDBRANCH  16  18
ENDBRANCH   9  12
ENDBRANCH   7  10
ENDBRANCH   1   7
BRANCH   5  20
ATOM     20  C   UNL     1      46.952   3.984  14.561  0.00  0.00    +0.000 C 
BRANCH  20  21
ATOM     21  N   UNL     1      47.461   4.695  15.704  0.00  0.00    +0.000 N 
ATOM     22  C   UNL     1      47.201   4.247  16.977  0.00  0.00    +0.000 C 
ATOM     23  O   UNL     1      46.591   3.203  17.188  0.00  0.00    +0.000 OA
ATOM     24  H   UNL     1      47.726   5.666  15.564  0.00  0.00    +0.000 HD
BRANCH  22  25
ATOM     25  C   UNL     1      47.742   5.050  18.081  0.00  0.00    +0.000 A 
ATOM     26  C   UNL     1      46.879   5.749  18.915  0.00  0.00    +0.000 A 
ATOM     27  S   UNL     1      47.670   6.593  20.168  0.00  0.00    +0.000 S 
ATOM     28  C   UNL     1      49.199   6.100  19.608  0.00  0.00    +0.000 A 
ATOM     29  N   UNL     1      50.338   6.510  20.229  0.00  0.00    +0.000 NA
ATOM     30  C   UNL     1      51.426   6.084  19.683  0.00  0.00    +0.000 A 
ATOM     31  N   UNL     1      51.480   5.279  18.574  0.00  0.00    +0.000 N 
ATOM     32  C   UNL     1      50.358   4.820  17.928  0.00  0.00    +0.000 A 
ATOM     33  O   UNL     1      50.439   4.071  16.961  0.00  0.00    +0.000 OA
ATOM     34  C   UNL     1      49.106   5.281  18.497  0.00  0.00    +0.000 A 
ATOM     35  H   UNL     1      52.366   4.973  18.198  0.00  0.00    +0.000 HD
ENDBRANCH  22  25
ENDBRANCH  20  21
ENDBRANCH   5  20
TORSDOF 7
ENDMDL
MODEL 2
REMARK VINA RESULT:    -9.148      2.090      3.058
REMARK INTER + INTRA:         -13.531
REMARK INTER:                 -12.340
REMARK INTRA:                  -1.192
REMARK UNBOUND:                -0.907
REMARK  Name = 
REMARK  7 active torsions:
REMARK  status: ('A' for Active; 'I' for Inactive)
REMARK    1  A    between atoms: C_2  and  C_25
REMARK    2  A    between atoms: N_3  and  C_4
REMARK    3  A    between atoms: C_4  and  C_5
REMARK    4  A    between atoms: C_9  and  C_10
REMARK    5  A    between atoms: C_10  and  N_11
REMARK    6  A    between atoms: C_12  and  C_14
REMARK    7  A    between atoms: C_29  and  O_30
REMARK                            x       y       z     vdW  Elec       q    Type
REMARK                         _______ _______ _______ _____ _____    ______ ____
ROOT
ATOM      1  C   UNL     1      45.205   6.875  11.327  0.00  0.00    +0.000 A 
ATOM      2  C   UNL     1      44.558   8.101  11.526  0.00  0.00    +0.000 A 
ATOM      3  C   UNL     1      45.268   9.205  11.995  0.00  0.00    +0.000 A 
ATOM      4  C   UNL     1      46.623   9.088  12.307  0.00  0.00    +0.000 A 
ATOM      5  C   UNL     1      47.281   7.857  12.171  0.00  0.00    +0.000 A 
ATOM      6  C   UNL     1      46.570   6.764  11.648  0.00  0.00    +0.000 A 
ENDROOT
BRANCH   1   7
ATOM      7  C   UNL     1      44.427   5.679  10.842  0.00  0.00    +0.000 C 
BRANCH   7  10
ATOM      8  O   UNL     1      43.768   3.106   9.967  0.00  0.00    +0.000 OA
ATOM      9  C   UNL     1      44.781   3.637   9.531  0.00  0.00    +0.000 C 
ATOM     10  N   UNL     1      45.202   4.894   9.906  0.00  0.00    +0.000 N 
ATOM     11  H   UNL     1      45.925   5.365   9.380  0.00  0.00    +0.000 HD
BRANCH   9  12
ATOM     12  C   UNL     1      45.612   2.946   8.510  0.00  0.00    +0.000 A 
ATOM     13  C   UNL     1      46.163   3.702   7.468  0.00  0.00    +0.000 A 
ATOM     14  C   UNL     1      46.962   3.088   6.501  0.00  0.00    +0.000 A 
ATOM     15  C   UNL     1      47.209   1.717   6.568  0.00  0.00    +0.000 A 
ATOM     16  C   UNL     1      46.645   0.969   7.600  0.00  0.00    +0.000 A 
ATOM     17  C   UNL     1      45.841   1.566   8.564  0.00  0.00    +0.000 A 
BRANCH  16  18
ATOM     18  O   UNL     1      46.865  -0.372   7.706  0.00  0.00    +0.000 OA
ATOM     19  H   UNL     1      47.711  -0.586   7.277  0.00  0.00    +0.000 HD
ENDBRANCH  16  18
ENDBRANCH   9  12
ENDBRANCH   7  10
ENDBRANCH   1   7
BRANCH   5  20
ATOM     20  C   UNL     1      48.716   7.711  12.612  0.00  0.00    +0.000 C 
BRANCH  20  21
ATOM     21  N   UNL     1      48.854   6.895  13.790  0.00  0.00    +0.000 N 
ATOM     22  C   UNL     1      48.806   7.462  15.041  0.00  0.00    +0.000 C 
ATOM     23  O   UNL     1      48.579   8.658  15.205  0.00  0.00    +0.000 OA
ATOM     24  H   UNL     1      49.292   5.986  13.673  0.00  0.00    +0.000 HD
BRANCH  22  25
ATOM     25  C   UNL     1      48.979   6.554  16.182  0.00  0.00    +0.000 A 
ATOM     26  C   UNL     1      49.899   6.863  17.177  0.00  0.00    +0.000 A 
ATOM     27  S   UNL     1      49.941   5.725  18.446  0.00  0.00    +0.000 S 
ATOM     28  C   UNL     1      48.773   4.752  17.686  0.00  0.00    +0.000 A 
ATOM     29  N   UNL     1      48.368   3.578  18.243  0.00  0.00    +0.000 NA
ATOM     30  C   UNL     1      47.498   2.928  17.547  0.00  0.00    +0.000 A 
ATOM     31  N   UNL     1      46.991   3.347  16.344  0.00  0.00    +0.000 N 
ATOM     32  C   UNL     1      47.350   4.535  15.754  0.00  0.00    +0.000 A 
ATOM     33  O   UNL     1      46.849   4.899  14.695  0.00  0.00    +0.000 OA
ATOM     34  C   UNL     1      48.336   5.299  16.493  0.00  0.00    +0.000 A 
ATOM     35  H   UNL     1      46.305   2.795  15.850  0.00  0.00    +0.000 HD
ENDBRANCH  22  25
ENDBRANCH  20  21
ENDBRANCH   5  20
TORSDOF 7
ENDMDL
MODEL 3
REMARK VINA RESULT:    -8.722      1.782      2.148
REMARK INTER + INTRA:         -12.943
REMARK INTER:                 -12.206
REMARK INTRA:                  -0.737
REMARK UNBOUND:                -0.907
REMARK  Name = 
REMARK  7 active torsions:
REMARK  status: ('A' for Active; 'I' for Inactive)
REMARK    1  A    between atoms: C_2  and  C_25
REMARK    2  A    between atoms: N_3  and  C_4
REMARK    3  A    between atoms: C_4  and  C_5
REMARK    4  A    between atoms: C_9  and  C_10
REMARK    5  A    between atoms: C_10  and  N_11
REMARK    6  A    between atoms: C_12  and  C_14
REMARK    7  A    between atoms: C_29  and  O_30
REMARK                            x       y       z     vdW  Elec       q    Type
REMARK                         _______ _______ _______ _____ _____    ______ ____
ROOT
ATOM      1  C   UNL     1      45.149   6.626  11.697  0.00  0.00    +0.000 A 
ATOM      2  C   UNL     1      44.767   7.972  11.765  0.00  0.00    +0.000 A 
ATOM      3  C   UNL     1      45.546   8.892  12.467  0.00  0.00    +0.000 A 
ATOM      4  C   UNL     1      46.693   8.471  13.141  0.00  0.00    +0.000 A 
ATOM      5  C   UNL     1      47.066   7.119  13.135  0.00  0.00    +0.000 A 
ATOM      6  C   UNL     1      46.304   6.210  12.383  0.00  0.00    +0.000 A 
ENDROOT
BRANCH   1   7
ATOM      7  C   UNL     1      44.291   5.633  10.956  0.00  0.00    +0.000 C 
BRANCH   7  10
ATOM      8  O   UNL     1      43.761   3.022  10.108  0.00  0.00    +0.000 OA
ATOM      9  C   UNL     1      44.708   3.622   9.617  0.00  0.00    +0.000 C 
ATOM     10  N   UNL     1      45.062   4.905   9.973  0.00  0.00    +0.000 N 
ATOM     11  H   UNL     1      45.720   5.425   9.408  0.00  0.00    +0.000 HD
BRANCH   9  12
ATOM     12  C   UNL     1      45.524   2.991   8.545  0.00  0.00    +0.000 A 
ATOM     13  C   UNL     1      45.937   3.779   7.464  0.00  0.00    +0.000 A 
ATOM     14  C   UNL     1      46.718   3.223   6.448  0.00  0.00    +0.000 A 
ATOM     15  C   UNL     1      47.085   1.878   6.507  0.00  0.00    +0.000 A 
ATOM     16  C   UNL     1      46.658   1.099   7.579  0.00  0.00    +0.000 A 
ATOM     17  C   UNL     1      45.873   1.637   8.592  0.00  0.00    +0.000 A 
BRANCH  16  18
ATOM     18  O   UNL     1      46.998  -0.218   7.678  0.00  0.00    +0.000 OA
ATOM     19  H   UNL     1      46.803  -0.525   8.580  0.00  0.00    +0.000 HD
ENDBRANCH  16  18
ENDBRANCH   9  12
ENDBRANCH   7  10
ENDBRANCH   1   7
BRANCH   5  20
ATOM     20  C   UNL     1      48.244   6.654  13.954  0.00  0.00    +0.000 C 
BRANCH  20  21
ATOM     21  N   UNL     1      48.067   6.885  15.363  0.00  0.00    +0.000 N 
ATOM     22  C   UNL     1      49.057   6.551  16.255  0.00  0.00    +0.000 C 
ATOM     23  O   UNL     1      50.143   6.111  15.888  0.00  0.00    +0.000 OA
ATOM     24  H   UNL     1      47.114   6.993  15.698  0.00  0.00    +0.000 HD
BRANCH  22  25
ATOM     25  C   UNL     1      48.777   6.802  17.675  0.00  0.00    +0.000 A 
ATOM     26  C   UNL     1      48.584   8.103  18.121  0.00  0.00    +0.000 A 
ATOM     27  S   UNL     1      48.228   8.210  19.786  0.00  0.00    +0.000 S 
ATOM     28  C   UNL     1      48.374   6.527  19.981  0.00  0.00    +0.000 A 
ATOM     29  N   UNL     1      48.218   5.947  21.201  0.00  0.00    +0.000 NA
ATOM     30  C   UNL     1      48.383   4.668  21.210  0.00  0.00    +0.000 A 
ATOM     31  N   UNL     1      48.685   3.913  20.106  0.00  0.00    +0.000 N 
ATOM     32  C   UNL     1      48.829   4.450  18.849  0.00  0.00    +0.000 A 
ATOM     33  O   UNL     1      49.063   3.742  17.876  0.00  0.00    +0.000 OA
ATOM     34  C   UNL     1      48.664   5.889  18.788  0.00  0.00    +0.000 A 
ATOM     35  H   UNL     1      48.795   2.912  20.177  0.00  0.00    +0.000 HD
ENDBRANCH  22  25
ENDBRANCH  20  21
ENDBRANCH   5  20
TORSDOF 7
ENDMDL
MODEL 4
REMARK VINA RESULT:    -8.384      2.375      2.925
REMARK INTER + INTRA:         -12.477
REMARK INTER:                 -11.741
REMARK INTRA:                  -0.736
REMARK UNBOUND:                -0.907
REMARK  Name = 
REMARK  7 active torsions:
REMARK  status: ('A' for Active; 'I' for Inactive)
REMARK    1  A    between atoms: C_2  and  C_25
REMARK    2  A    between atoms: N_3  and  C_4
REMARK    3  A    between atoms: C_4  and  C_5
REMARK    4  A    between atoms: C_9  and  C_10
REMARK    5  A    between atoms: C_10  and  N_11
REMARK    6  A    between atoms: C_12  and  C_14
REMARK    7  A    between atoms: C_29  and  O_30
REMARK                            x       y       z     vdW  Elec       q    Type
REMARK                         _______ _______ _______ _____ _____    ______ ____
ROOT
ATOM      1  C   UNL     1      44.505   5.070  11.396  0.00  0.00    +0.000 A 
ATOM      2  C   UNL     1      45.099   4.099  12.213  0.00  0.00    +0.000 A 
ATOM      3  C   UNL     1      45.925   4.476  13.271  0.00  0.00    +0.000 A 
ATOM      4  C   UNL     1      46.200   5.825  13.501  0.00  0.00    +0.000 A 
ATOM      5  C   UNL     1      45.665   6.814  12.663  0.00  0.00    +0.000 A 
ATOM      6  C   UNL     1      44.791   6.427  11.633  0.00  0.00    +0.000 A 
ENDROOT
BRANCH   1   7
ATOM      7  C   UNL     1      43.631   4.655  10.241  0.00  0.00    +0.000 C 
BRANCH   7  10
ATOM      8  O   UNL     1      45.836   5.331   8.660  0.00  0.00    +0.000 OA
ATOM      9  C   UNL     1      45.414   4.183   8.626  0.00  0.00    +0.000 C 
ATOM     10  N   UNL     1      44.329   3.750   9.355  0.00  0.00    +0.000 N 
ATOM     11  H   UNL     1      44.141   2.761   9.446  0.00  0.00    +0.000 HD
BRANCH   9  12
ATOM     12  C   UNL     1      46.103   3.153   7.802  0.00  0.00    +0.000 A 
ATOM     13  C   UNL     1      46.677   3.541   6.586  0.00  0.00    +0.000 A 
ATOM     14  C   UNL     1      47.345   2.604   5.794  0.00  0.00    +0.000 A 
ATOM     15  C   UNL     1      47.437   1.276   6.213  0.00  0.00    +0.000 A 
ATOM     16  C   UNL     1      46.850   0.896   7.417  0.00  0.00    +0.000 A 
ATOM     17  C   UNL     1      46.174   1.816   8.210  0.00  0.00    +0.000 A 
BRANCH  16  18
ATOM     18  O   UNL     1      46.920  -0.390   7.866  0.00  0.00    +0.000 OA
ATOM     19  H   UNL     1      46.194  -0.542   8.494  0.00  0.00    +0.000 HD
ENDBRANCH  16  18
ENDBRANCH   9  12
ENDBRANCH   7  10
ENDBRANCH   1   7
BRANCH   5  20
ATOM     20  C   UNL     1      46.052   8.259  12.851  0.00  0.00    +0.000 C 
BRANCH  20  21
ATOM     21  N   UNL     1      46.704   8.500  14.111  0.00  0.00    +0.000 N 
ATOM     22  C   UNL     1      48.071   8.626  14.177  0.00  0.00    +0.000 C 
ATOM     23  O   UNL     1      48.776   8.606  13.171  0.00  0.00    +0.000 OA
ATOM     24  H   UNL     1      46.187   8.261  14.952  0.00  0.00    +0.000 HD
BRANCH  22  25
ATOM     25  C   UNL     1      48.649   8.847  15.509  0.00  0.00    +0.000 A 
ATOM     26  C   UNL     1      48.788  10.141  15.995  0.00  0.00    +0.000 A 
ATOM     27  S   UNL     1      49.436  10.214  17.571  0.00  0.00    +0.000 S 
ATOM     28  C   UNL     1      49.604   8.523  17.638  0.00  0.00    +0.000 A 
ATOM     29  N   UNL     1      50.140   7.915  18.731  0.00  0.00    +0.000 NA
ATOM     30  C   UNL     1      50.234   6.632  18.637  0.00  0.00    +0.000 A 
ATOM     31  N   UNL     1      49.833   5.898  17.550  0.00  0.00    +0.000 N 
ATOM     32  C   UNL     1      49.264   6.464  16.434  0.00  0.00    +0.000 A 
ATOM     33  O   UNL     1      48.883   5.776  15.494  0.00  0.00    +0.000 OA
ATOM     34  C   UNL     1      49.148   7.909  16.486  0.00  0.00    +0.000 A 
ATOM     35  H   UNL     1      49.926   4.893  17.540  0.00  0.00    +0.000 HD
ENDBRANCH  22  25
ENDBRANCH  20  21
ENDBRANCH   5  20
TORSDOF 7
ENDMDL
MODEL 5
REMARK VINA RESULT:    -8.274      2.251      2.821
REMARK INTER + INTRA:         -12.326
REMARK INTER:                 -11.422
REMARK INTRA:                  -0.904
REMARK UNBOUND:                -0.907
REMARK  Name = 
REMARK  7 active torsions:
REMARK  status: ('A' for Active; 'I' for Inactive)
REMARK    1  A    between atoms: C_2  and  C_25
REMARK    2  A    between atoms: N_3  and  C_4
REMARK    3  A    between atoms: C_4  and  C_5
REMARK    4  A    between atoms: C_9  and  C_10
REMARK    5  A    between atoms: C_10  and  N_11
REMARK    6  A    between atoms: C_12  and  C_14
REMARK    7  A    between atoms: C_29  and  O_30
REMARK                            x       y       z     vdW  Elec       q    Type
REMARK                         _______ _______ _______ _____ _____    ______ ____
ROOT
ATOM      1  C   UNL     1      45.351   6.554  11.841  0.00  0.00    +0.000 A 
ATOM      2  C   UNL     1      44.966   7.898  11.750  0.00  0.00    +0.000 A 
ATOM      3  C   UNL     1      45.731   8.894  12.356  0.00  0.00    +0.000 A 
ATOM      4  C   UNL     1      46.867   8.556  13.093  0.00  0.00    +0.000 A 
ATOM      5  C   UNL     1      47.242   7.214  13.247  0.00  0.00    +0.000 A 
ATOM      6  C   UNL     1      46.495   6.223  12.589  0.00  0.00    +0.000 A 
ENDROOT
BRANCH   1   7
ATOM      7  C   UNL     1      44.508   5.481  11.202  0.00  0.00    +0.000 C 
BRANCH   7  10
ATOM      8  O   UNL     1      43.638   3.148   9.931  0.00  0.00    +0.000 OA
ATOM      9  C   UNL     1      44.735   3.605   9.640  0.00  0.00    +0.000 C 
ATOM     10  N   UNL     1      45.262   4.740  10.215  0.00  0.00    +0.000 N 
ATOM     11  H   UNL     1      46.074   5.186   9.808  0.00  0.00    +0.000 HD
BRANCH   9  12
ATOM     12  C   UNL     1      45.563   2.961   8.585  0.00  0.00    +0.000 A 
ATOM     13  C   UNL     1      46.057   3.754   7.542  0.00  0.00    +0.000 A 
ATOM     14  C   UNL     1      46.851   3.184   6.543  0.00  0.00    +0.000 A 
ATOM     15  C   UNL     1      47.149   1.822   6.581  0.00  0.00    +0.000 A 
ATOM     16  C   UNL     1      46.641   1.039   7.614  0.00  0.00    +0.000 A 
ATOM     17  C   UNL     1      45.842   1.590   8.609  0.00  0.00    +0.000 A 
BRANCH  16  18
ATOM     18  O   UNL     1      46.912  -0.296   7.692  0.00  0.00    +0.000 OA
ATOM     19  H   UNL     1      46.688  -0.609   8.584  0.00  0.00    +0.000 HD
ENDBRANCH  16  18
ENDBRANCH   9  12
ENDBRANCH   7  10
ENDBRANCH   1   7
BRANCH   5  20
ATOM     20  C   UNL     1      48.406   6.849  14.134  0.00  0.00    +0.000 C 
BRANCH  20  21
ATOM     21  N   UNL     1      48.086   6.933  15.534  0.00  0.00    +0.000 N 
ATOM     22  C   UNL     1      48.972   6.477  16.481  0.00  0.00    +0.000 C 
ATOM     23  O   UNL     1      50.082   6.048  16.181  0.00  0.00    +0.000 OA
ATOM     24  H   UNL     1      47.105   7.031  15.778  0.00  0.00    +0.000 HD
BRANCH  22  25
ATOM     25  C   UNL     1      48.549   6.584  17.883  0.00  0.00    +0.000 A 
ATOM     26  C   UNL     1      48.551   5.455  18.693  0.00  0.00    +0.000 A 
ATOM     27  S   UNL     1      48.072   5.765  20.300  0.00  0.00    +0.000 S 
ATOM     28  C   UNL     1      47.793   7.407  19.958  0.00  0.00    +0.000 A 
ATOM     29  N   UNL     1      47.328   8.253  20.917  0.00  0.00    +0.000 NA
ATOM     30  C   UNL     1      47.135   9.463  20.514  0.00  0.00    +0.000 A 
ATOM     31  N   UNL     1      47.370   9.907  19.237  0.00  0.00    +0.000 N 
ATOM     32  C   UNL     1      47.862   9.097  18.242  0.00  0.00    +0.000 A 
ATOM     33  O   UNL     1      48.097   9.534  17.121  0.00  0.00    +0.000 OA
ATOM     34  C   UNL     1      48.086   7.721  18.643  0.00  0.00    +0.000 A 
ATOM     35  H   UNL     1      47.206  10.871  18.985  0.00  0.00    +0.000 HD
ENDBRANCH  22  25
ENDBRANCH  20  21
ENDBRANCH   5  20
TORSDOF 7
ENDMDL
MODEL 6
REMARK VINA RESULT:    -7.669      3.808      9.161
REMARK INTER + INTRA:         -11.490
REMARK INTER:                 -10.410
REMARK INTRA:                  -1.081
REMARK UNBOUND:                -0.907
REMARK  Name = 
REMARK  7 active torsions:
REMARK  status: ('A' for Active; 'I' for Inactive)
REMARK    1  A    between atoms: C_2  and  C_25
REMARK    2  A    between atoms: N_3  and  C_4
REMARK    3  A    between atoms: C_4  and  C_5
REMARK    4  A    between atoms: C_9  and  C_10
REMARK    5  A    between atoms: C_10  and  N_11
REMARK    6  A    between atoms: C_12  and  C_14
REMARK    7  A    between atoms: C_29  and  O_30
REMARK                            x       y       z     vdW  Elec       q    Type
REMARK                         _______ _______ _______ _____ _____    ______ ____
ROOT
ATOM      1  C   UNL     1      48.627   5.346  18.197  0.00  0.00    +0.000 A 
ATOM      2  C   UNL     1      48.700   6.309  19.211  0.00  0.00    +0.000 A 
ATOM      3  C   UNL     1      48.693   7.668  18.896  0.00  0.00    +0.000 A 
ATOM      4  C   UNL     1      48.652   8.079  17.564  0.00  0.00    +0.000 A 
ATOM      5  C   UNL     1      48.636   7.135  16.527  0.00  0.00    +0.000 A 
ATOM      6  C   UNL     1      48.590   5.770  16.856  0.00  0.00    +0.000 A 
ENDROOT
BRANCH   1   7
ATOM      7  C   UNL     1      48.658   3.880  18.542  0.00  0.00    +0.000 C 
BRANCH   7  10
ATOM      8  O   UNL     1      49.822   2.258  16.585  0.00  0.00    +0.000 OA
ATOM      9  C   UNL     1      50.495   2.593  17.551  0.00  0.00    +0.000 C 
ATOM     10  N   UNL     1      50.014   3.378  18.576  0.00  0.00    +0.000 N 
ATOM     11  H   UNL     1      50.653   3.788  19.244  0.00  0.00    +0.000 HD
BRANCH   9  12
ATOM     12  C   UNL     1      51.924   2.191  17.649  0.00  0.00    +0.000 A 
ATOM     13  C   UNL     1      52.262   0.852  17.415  0.00  0.00    +0.000 A 
ATOM     14  C   UNL     1      53.596   0.443  17.482  0.00  0.00    +0.000 A 
ATOM     15  C   UNL     1      54.595   1.368  17.788  0.00  0.00    +0.000 A 
ATOM     16  C   UNL     1      54.247   2.694  18.034  0.00  0.00    +0.000 A 
ATOM     17  C   UNL     1      52.923   3.113  17.980  0.00  0.00    +0.000 A 
BRANCH  16  18
ATOM     18  O   UNL     1      55.192   3.631  18.333  0.00  0.00    +0.000 OA
ATOM     19  H   UNL     1      56.058   3.310  18.030  0.00  0.00    +0.000 HD
ENDBRANCH  16  18
ENDBRANCH   9  12
ENDBRANCH   7  10
ENDBRANCH   1   7
BRANCH   5  20
ATOM     20  C   UNL     1      48.701   7.586  15.089  0.00  0.00    +0.000 C 
BRANCH  20  21
ATOM     21  N   UNL     1      47.491   7.304  14.363  0.00  0.00    +0.000 N 
ATOM     22  C   UNL     1      47.485   6.375  13.351  0.00  0.00    +0.000 C 
ATOM     23  O   UNL     1      48.479   5.709  13.073  0.00  0.00    +0.000 OA
ATOM     24  H   UNL     1      46.757   8.006  14.397  0.00  0.00    +0.000 HD
BRANCH  22  25
ATOM     25  C   UNL     1      46.210   6.170  12.652  0.00  0.00    +0.000 A 
ATOM     26  C   UNL     1      45.554   7.252  12.080  0.00  0.00    +0.000 A 
ATOM     27  S   UNL     1      44.112   6.831  11.273  0.00  0.00    +0.000 S 
ATOM     28  C   UNL     1      44.283   5.195  11.707  0.00  0.00    +0.000 A 
ATOM     29  N   UNL     1      43.348   4.274  11.350  0.00  0.00    +0.000 NA
ATOM     30  C   UNL     1      43.589   3.078  11.768  0.00  0.00    +0.000 A 
ATOM     31  N   UNL     1      44.686   2.717  12.508  0.00  0.00    +0.000 N 
ATOM     32  C   UNL     1      45.669   3.605  12.871  0.00  0.00    +0.000 A 
ATOM     33  O   UNL     1      46.656   3.243  13.501  0.00  0.00    +0.000 OA
ATOM     34  C   UNL     1      45.438   4.969  12.435  0.00  0.00    +0.000 A 
ATOM     35  H   UNL     1      44.822   1.760  12.799  0.00  0.00    +0.000 HD
ENDBRANCH  22  25
ENDBRANCH  20  21
ENDBRANCH   5  20
TORSDOF 7
ENDMDL
MODEL 7
REMARK VINA RESULT:    -7.640      3.999     10.077
REMARK INTER + INTRA:         -11.451
REMARK INTER:                 -10.307
REMARK INTRA:                  -1.143
REMARK UNBOUND:                -0.907
REMARK  Name = 
REMARK  7 active torsions:
REMARK  status: ('A' for Active; 'I' for Inactive)
REMARK    1  A    between atoms: C_2  and  C_25
REMARK    2  A    between atoms: N_3  and  C_4
REMARK    3  A    between atoms: C_4  and  C_5
REMARK    4  A    between atoms: C_9  and  C_10
REMARK    5  A    between atoms: C_10  and  N_11
REMARK    6  A    between atoms: C_12  and  C_14
REMARK    7  A    between atoms: C_29  and  O_30
REMARK                            x       y       z     vdW  Elec       q    Type
REMARK                         _______ _______ _______ _____ _____    ______ ____
ROOT
ATOM      1  C   UNL     1      50.667   4.767  17.938  0.00  0.00    +0.000 A 
ATOM      2  C   UNL     1      51.469   3.621  17.887  0.00  0.00    +0.000 A 
ATOM      3  C   UNL     1      50.949   2.416  17.415  0.00  0.00    +0.000 A 
ATOM      4  C   UNL     1      49.612   2.333  17.027  0.00  0.00    +0.000 A 
ATOM      5  C   UNL     1      48.772   3.452  17.122  0.00  0.00    +0.000 A 
ATOM      6  C   UNL     1      49.318   4.673  17.548  0.00  0.00    +0.000 A 
ENDROOT
BRANCH   1   7
ATOM      7  C   UNL     1      51.228   6.061  18.470  0.00  0.00    +0.000 C 
BRANCH   7  10
ATOM      8  O   UNL     1      49.786   6.815  20.743  0.00  0.00    +0.000 OA
ATOM      9  C   UNL     1      49.572   7.397  19.688  0.00  0.00    +0.000 C 
ATOM     10  N   UNL     1      50.217   7.094  18.509  0.00  0.00    +0.000 N 
ATOM     11  H   UNL     1      50.153   7.722  17.720  0.00  0.00    +0.000 HD
BRANCH   9  12
ATOM     12  C   UNL     1      48.603   8.524  19.633  0.00  0.00    +0.000 A 
ATOM     13  C   UNL     1      47.753   8.732  20.726  0.00  0.00    +0.000 A 
ATOM     14  C   UNL     1      46.842   9.791  20.716  0.00  0.00    +0.000 A 
ATOM     15  C   UNL     1      46.774  10.642  19.612  0.00  0.00    +0.000 A 
ATOM     16  C   UNL     1      47.614  10.419  18.523  0.00  0.00    +0.000 A 
ATOM     17  C   UNL     1      48.518   9.363  18.517  0.00  0.00    +0.000 A 
BRANCH  16  18
ATOM     18  O   UNL     1      47.583  11.229  17.427  0.00  0.00    +0.000 OA
ATOM     19  H   UNL     1      46.803  11.003  16.892  0.00  0.00    +0.000 HD
ENDBRANCH  16  18
ENDBRANCH   9  12
ENDBRANCH   7  10
ENDBRANCH   1   7
BRANCH   5  20
ATOM     20  C   UNL     1      47.303   3.327  16.804  0.00  0.00    +0.000 C 
BRANCH  20  21
ATOM     21  N   UNL     1      46.846   4.337  15.886  0.00  0.00    +0.000 N 
ATOM     22  C   UNL     1      46.944   4.143  14.530  0.00  0.00    +0.000 C 
ATOM     23  O   UNL     1      47.356   3.090  14.050  0.00  0.00    +0.000 OA
ATOM     24  H   UNL     1      46.756   5.282  16.247  0.00  0.00    +0.000 HD
BRANCH  22  25
ATOM     25  C   UNL     1      46.473   5.238  13.672  0.00  0.00    +0.000 A 
ATOM     26  C   UNL     1      47.261   6.370  13.501  0.00  0.00    +0.000 A 
ATOM     27  S   UNL     1      46.583   7.522  12.442  0.00  0.00    +0.000 S 
ATOM     28  C   UNL     1      45.188   6.576  12.217  0.00  0.00    +0.000 A 
ATOM     29  N   UNL     1      44.168   7.009  11.429  0.00  0.00    +0.000 NA
ATOM     30  C   UNL     1      43.161   6.205  11.369  0.00  0.00    +0.000 A 
ATOM     31  N   UNL     1      43.083   5.001  12.023  0.00  0.00    +0.000 N 
ATOM     32  C   UNL     1      44.097   4.511  12.810  0.00  0.00    +0.000 A 
ATOM     33  O   UNL     1      44.012   3.414  13.351  0.00  0.00    +0.000 OA
ATOM     34  C   UNL     1      45.250   5.385  12.919  0.00  0.00    +0.000 A 
ATOM     35  H   UNL     1      42.269   4.413  11.930  0.00  0.00    +0.000 HD
ENDBRANCH  22  25
ENDBRANCH  20  21
ENDBRANCH   5  20
TORSDOF 7
ENDMDL
MODEL 8
REMARK VINA RESULT:    -7.473      3.184      8.988
REMARK INTER + INTRA:         -11.220
REMARK INTER:                 -10.090
REMARK INTRA:                  -1.131
REMARK UNBOUND:                -0.907
REMARK  Name = 
REMARK  7 active torsions:
REMARK  status: ('A' for Active; 'I' for Inactive)
REMARK    1  A    between atoms: C_2  and  C_25
REMARK    2  A    between atoms: N_3  and  C_4
REMARK    3  A    between atoms: C_4  and  C_5
REMARK    4  A    between atoms: C_9  and  C_10
REMARK    5  A    between atoms: C_10  and  N_11
REMARK    6  A    between atoms: C_12  and  C_14
REMARK    7  A    between atoms: C_29  and  O_30
REMARK                            x       y       z     vdW  Elec       q    Type
REMARK                         _______ _______ _______ _____ _____    ______ ____
ROOT
ATOM      1  C   UNL     1      50.426   8.329  13.890  0.00  0.00    +0.000 A 
ATOM      2  C   UNL     1      51.376   8.229  12.866  0.00  0.00    +0.000 A 
ATOM      3  C   UNL     1      50.985   8.313  11.530  0.00  0.00    +0.000 A 
ATOM      4  C   UNL     1      49.636   8.459  11.201  0.00  0.00    +0.000 A 
ATOM      5  C   UNL     1      48.660   8.504  12.206  0.00  0.00    +0.000 A 
ATOM      6  C   UNL     1      49.069   8.472  13.550  0.00  0.00    +0.000 A 
ENDROOT
BRANCH   1   7
ATOM      7  C   UNL     1      50.853   8.215  15.331  0.00  0.00    +0.000 C 
BRANCH   7  10
ATOM      8  O   UNL     1      48.607   7.563  16.864  0.00  0.00    +0.000 OA
ATOM      9  C   UNL     1      49.416   6.684  16.597  0.00  0.00    +0.000 C 
ATOM     10  N   UNL     1      50.560   6.902  15.861  0.00  0.00    +0.000 N 
ATOM     11  H   UNL     1      51.090   6.118  15.504  0.00  0.00    +0.000 HD
BRANCH   9  12
ATOM     12  C   UNL     1      49.175   5.282  17.034  0.00  0.00    +0.000 A 
ATOM     13  C   UNL     1      50.276   4.482  17.361  0.00  0.00    +0.000 A 
ATOM     14  C   UNL     1      50.085   3.167  17.790  0.00  0.00    +0.000 A 
ATOM     15  C   UNL     1      48.795   2.646  17.890  0.00  0.00    +0.000 A 
ATOM     16  C   UNL     1      47.706   3.445  17.548  0.00  0.00    +0.000 A 
ATOM     17  C   UNL     1      47.882   4.752  17.111  0.00  0.00    +0.000 A 
BRANCH  16  18
ATOM     18  O   UNL     1      46.428   2.977  17.636  0.00  0.00    +0.000 OA
ATOM     19  H   UNL     1      46.455   2.012  17.750  0.00  0.00    +0.000 HD
ENDBRANCH  16  18
ENDBRANCH   9  12
ENDBRANCH   7  10
ENDBRANCH   1   7
BRANCH   5  20
ATOM     20  C   UNL     1      47.197   8.553  11.841  0.00  0.00    +0.000 C 
BRANCH  20  21
ATOM     21  N   UNL     1      46.590   7.249  11.805  0.00  0.00    +0.000 N 
ATOM     22  C   UNL     1      45.237   7.114  11.610  0.00  0.00    +0.000 C 
ATOM     23  O   UNL     1      44.510   8.080  11.394  0.00  0.00    +0.000 OA
ATOM     24  H   UNL     1      47.109   6.486  12.231  0.00  0.00    +0.000 HD
BRANCH  22  25
ATOM     25  C   UNL     1      44.704   5.745  11.611  0.00  0.00    +0.000 A 
ATOM     26  C   UNL     1      44.001   5.278  12.714  0.00  0.00    +0.000 A 
ATOM     27  S   UNL     1      43.419   3.686  12.531  0.00  0.00    +0.000 S 
ATOM     28  C   UNL     1      44.131   3.544  10.993  0.00  0.00    +0.000 A 
ATOM     29  N   UNL     1      44.036   2.389  10.281  0.00  0.00    +0.000 NA
ATOM     30  C   UNL     1      44.646   2.410   9.144  0.00  0.00    +0.000 A 
ATOM     31  N   UNL     1      45.339   3.486   8.651  0.00  0.00    +0.000 N 
ATOM     32  C   UNL     1      45.442   4.681   9.322  0.00  0.00    +0.000 A 
ATOM     33  O   UNL     1      46.038   5.636   8.836  0.00  0.00    +0.000 OA
ATOM     34  C   UNL     1      44.783   4.704  10.613  0.00  0.00    +0.000 A 
ATOM     35  H   UNL     1      45.790   3.443   7.749  0.00  0.00    +0.000 HD
ENDBRANCH  22  25
ENDBRANCH  20  21
ENDBRANCH   5  20
TORSDOF 7
ENDMDL
MODEL 9
REMARK VINA RESULT:    -7.425      3.213      9.460
REMARK INTER + INTRA:         -11.154
REMARK INTER:                 -10.104
REMARK INTRA:                  -1.050
REMARK UNBOUND:                -0.907
REMARK  Name = 
REMARK  7 active torsions:
REMARK  status: ('A' for Active; 'I' for Inactive)
REMARK    1  A    between atoms: C_2  and  C_25
REMARK    2  A    between atoms: N_3  and  C_4
REMARK    3  A    between atoms: C_4  and  C_5
REMARK    4  A    between atoms: C_9  and  C_10
REMARK    5  A    between atoms: C_10  and  N_11
REMARK    6  A    between atoms: C_12  and  C_14
REMARK    7  A    between atoms: C_29  and  O_30
REMARK                            x       y       z     vdW  Elec       q    Type
REMARK                         _______ _______ _______ _____ _____    ______ ____
ROOT
ATOM      1  C   UNL     1      49.176   6.840  15.504  0.00  0.00    +0.000 A 
ATOM      2  C   UNL     1      50.403   7.515  15.492  0.00  0.00    +0.000 A 
ATOM      3  C   UNL     1      50.749   8.330  14.415  0.00  0.00    +0.000 A 
ATOM      4  C   UNL     1      49.891   8.449  13.320  0.00  0.00    +0.000 A 
ATOM      5  C   UNL     1      48.683   7.739  13.282  0.00  0.00    +0.000 A 
ATOM      6  C   UNL     1      48.320   6.962  14.395  0.00  0.00    +0.000 A 
ENDROOT
BRANCH   1   7
ATOM      7  C   UNL     1      48.818   5.943  16.661  0.00  0.00    +0.000 C 
BRANCH   7  10
ATOM      8  O   UNL     1      48.703   3.213  17.254  0.00  0.00    +0.000 OA
ATOM      9  C   UNL     1      49.782   3.787  17.321  0.00  0.00    +0.000 C 
ATOM     10  N   UNL     1      49.945   5.130  17.062  0.00  0.00    +0.000 N 
ATOM     11  H   UNL     1      50.872   5.514  16.939  0.00  0.00    +0.000 HD
BRANCH   9  12
ATOM     12  C   UNL     1      51.017   3.029  17.655  0.00  0.00    +0.000 A 
ATOM     13  C   UNL     1      51.090   1.676  17.306  0.00  0.00    +0.000 A 
ATOM     14  C   UNL     1      52.242   0.938  17.590  0.00  0.00    +0.000 A 
ATOM     15  C   UNL     1      53.321   1.549  18.228  0.00  0.00    +0.000 A 
ATOM     16  C   UNL     1      53.235   2.892  18.586  0.00  0.00    +0.000 A 
ATOM     17  C   UNL     1      52.091   3.636  18.317  0.00  0.00    +0.000 A 
BRANCH  16  18
ATOM     18  O   UNL     1      54.268   3.529  19.207  0.00  0.00    +0.000 OA
ATOM     19  H   UNL     1      54.931   3.773  18.539  0.00  0.00    +0.000 HD
ENDBRANCH  16  18
ENDBRANCH   9  12
ENDBRANCH   7  10
ENDBRANCH   1   7
BRANCH   5  20
ATOM     20  C   UNL     1      47.813   7.787  12.051  0.00  0.00    +0.000 C 
BRANCH  20  21
ATOM     21  N   UNL     1      47.084   6.565  11.839  0.00  0.00    +0.000 N 
ATOM     22  C   UNL     1      45.710   6.572  11.790  0.00  0.00    +0.000 C 
ATOM     23  O   UNL     1      45.062   7.612  11.858  0.00  0.00    +0.000 OA
ATOM     24  H   UNL     1      47.569   5.696  12.042  0.00  0.00    +0.000 HD
BRANCH  22  25
ATOM     25  C   UNL     1      45.052   5.274  11.593  0.00  0.00    +0.000 A 
ATOM     26  C   UNL     1      44.356   4.685  12.641  0.00  0.00    +0.000 A 
ATOM     27  S   UNL     1      43.619   3.204  12.227  0.00  0.00    +0.000 S 
ATOM     28  C   UNL     1      44.249   3.270  10.649  0.00  0.00    +0.000 A 
ATOM     29  N   UNL     1      44.015   2.267   9.759  0.00  0.00    +0.000 NA
ATOM     30  C   UNL     1      44.574   2.432   8.609  0.00  0.00    +0.000 A 
ATOM     31  N   UNL     1      45.343   3.514   8.263  0.00  0.00    +0.000 N 
ATOM     32  C   UNL     1      45.588   4.561   9.118  0.00  0.00    +0.000 A 
ATOM     33  O   UNL     1      46.249   5.532   8.766  0.00  0.00    +0.000 OA
ATOM     34  C   UNL     1      44.989   4.418  10.432  0.00  0.00    +0.000 A 
ATOM     35  H   UNL     1      45.749   3.588   7.342  0.00  0.00    +0.000 HD
ENDBRANCH  22  25
ENDBRANCH  20  21
ENDBRANCH   5  20
TORSDOF 7
ENDMDL
