MODEL 1
REMARK VINA RESULT:    -8.954      0.000      0.000
REMARK INTER + INTRA:         -14.106
REMARK INTER:                 -12.618
REMARK INTRA:                  -1.488
REMARK UNBOUND:                -1.488
REMARK  Name = 
REMARK  8 active torsions:
REMARK  status: ('A' for Active; 'I' for Inactive)
REMARK    1  A    between atoms: C_1  and  C_2
REMARK    2  A    between atoms: C_2  and  N_3
REMARK    3  A    between atoms: C_2  and  C_18
REMARK    4  A    between atoms: N_3  and  C_4
REMARK    5  A    between atoms: C_7  and  N_8
REMARK    6  A    between atoms: N_8  and  C_9
REMARK    7  A    between atoms: C_9  and  C_10
REMARK    8  A    between atoms: C_18  and  C_20
REMARK                            x       y       z     vdW  Elec       q    Type
REMARK                         _______ _______ _______ _____ _____    ______ ____
ROOT
ATOM      1  N   UNL     1      45.658   6.260  13.502  0.00  0.00    +0.000 N 
ATOM      2  H   UNL     1      45.082   6.844  14.110  0.00  0.00    +0.000 HD
ENDROOT
BRANCH   1   3
ATOM      3  C   UNL     1      44.844   5.458  12.712  0.00  0.00    +0.000 C 
ATOM      4  C   UNL     1      44.121   4.458  13.246  0.00  0.00    +0.000 C 
ATOM      5  C   UNL     1      43.321   3.474  12.443  0.00  0.00    +0.000 C 
ATOM      6  C   UNL     1      43.636   3.506  10.927  0.00  0.00    +0.000 C 
ATOM      7  C   UNL     1      43.692   4.983  10.494  0.00  0.00    +0.000 C 
ATOM      8  C   UNL     1      44.794   5.759  11.228  0.00  0.00    +0.000 C 
BRANCH   6   9
ATOM      9  N   UNL     1      44.885   2.826  10.532  0.00  0.00    +0.000 NA
ATOM     10  H   UNL     1      45.247   2.278  11.314  0.00  0.00    +0.000 HD
BRANCH   9  11
ATOM     11  C   UNL     1      44.717   1.939   9.385  0.00  0.00    +0.000 C 
BRANCH  11  12
ATOM     12  C   UNL     1      45.747   2.192   8.305  0.00  0.00    +0.000 A 
ATOM     13  C   UNL     1      46.599   1.163   7.885  0.00  0.00    +0.000 A 
ATOM     14  C   UNL     1      47.500   1.369   6.836  0.00  0.00    +0.000 A 
ATOM     15  C   UNL     1      47.560   2.606   6.202  0.00  0.00    +0.000 A 
ATOM     16  C   UNL     1      46.727   3.648   6.626  0.00  0.00    +0.000 A 
ATOM     17  C   UNL     1      45.826   3.439   7.671  0.00  0.00    +0.000 A 
ENDBRANCH  11  12
ENDBRANCH   9  11
ENDBRANCH   6   9
ENDBRANCH   1   3
BRANCH   1  19
ATOM     18  C   UNL     1      46.642   8.578  13.232  0.00  0.00    +0.000 C 
ATOM     19  C   UNL     1      46.764   7.084  12.920  0.00  0.00    +0.000 C 
BRANCH  19  20
ATOM     20  C   UNL     1      48.158   6.570  13.365  0.00  0.00    +0.000 C 
ATOM     21  O   UNL     1      49.063   6.428  12.536  0.00  0.00    +0.000 OA
BRANCH  20  22
ATOM     22  C   UNL     1      48.482   6.396  14.796  0.00  0.00    +0.000 A 
ATOM     23  C   UNL     1      49.319   7.310  15.424  0.00  0.00    +0.000 A 
ATOM     24  S   UNL     1      49.464   7.061  17.105  0.00  0.00    +0.000 S 
ATOM     25  C   UNL     1      48.451   5.697  17.039  0.00  0.00    +0.000 A 
ATOM     26  N   UNL     1      48.094   5.031  18.170  0.00  0.00    +0.000 NA
ATOM     27  C   UNL     1      47.316   4.021  17.967  0.00  0.00    +0.000 A 
ATOM     28  N   UNL     1      46.905   3.584  16.734  0.00  0.00    +0.000 N 
ATOM     29  C   UNL     1      47.391   4.124  15.566  0.00  0.00    +0.000 A 
ATOM     30  O   UNL     1      47.299   3.531  14.500  0.00  0.00    +0.000 OA
ATOM     31  C   UNL     1      48.090   5.383  15.741  0.00  0.00    +0.000 A 
ATOM     32  H   UNL     1      46.396   2.718  16.644  0.00  0.00    +0.000 HD
ENDBRANCH  20  22
ENDBRANCH  19  20
ENDBRANCH   1  19
TORSDOF 7
ENDMDL
MODEL 2
REMARK VINA RESULT:    -7.805      2.650      4.596
REMARK INTER + INTRA:         -12.488
REMARK INTER:                 -11.247
REMARK INTRA:                  -1.241
REMARK UNBOUND:                -1.488
REMARK  Name = 
REMARK  8 active torsions:
REMARK  status: ('A' for Active; 'I' for Inactive)
REMARK    1  A    between atoms: C_1  and  C_2
REMARK    2  A    between atoms: C_2  and  N_3
REMARK    3  A    between atoms: C_2  and  C_18
REMARK    4  A    between atoms: N_3  and  C_4
REMARK    5  A    between atoms: C_7  and  N_8
REMARK    6  A    between atoms: N_8  and  C_9
REMARK    7  A    between atoms: C_9  and  C_10
REMARK    8  A    between atoms: C_18  and  C_20
REMARK                            x       y       z     vdW  Elec       q    Type
REMARK                         _______ _______ _______ _____ _____    ______ ____
ROOT
ATOM      1  N   UNL     1      47.647   5.818  13.055  0.00  0.00    +0.000 N 
ATOM      2  H   UNL     1      47.986   5.198  13.792  0.00  0.00    +0.000 HD
ENDROOT
BRANCH   1   3
ATOM      3  C   UNL     1      46.413   5.371  12.598  0.00  0.00    +0.000 C 
ATOM      4  C   UNL     1      45.555   4.735  13.414  0.00  0.00    +0.000 C 
ATOM      5  C   UNL     1      44.265   4.115  12.964  0.00  0.00    +0.000 C 
ATOM      6  C   UNL     1      44.138   3.992  11.425  0.00  0.00    +0.000 C 
ATOM      7  C   UNL     1      44.604   5.325  10.810  0.00  0.00    +0.000 C 
ATOM      8  C   UNL     1      46.068   5.637  11.147  0.00  0.00    +0.000 C 
BRANCH   6   9
ATOM      9  N   UNL     1      44.895   2.877  10.821  0.00  0.00    +0.000 NA
ATOM     10  H   UNL     1      44.885   2.069  11.445  0.00  0.00    +0.000 HD
BRANCH   9  11
ATOM     11  C   UNL     1      44.370   2.464   9.523  0.00  0.00    +0.000 C 
BRANCH  11  12
ATOM     12  C   UNL     1      45.437   2.446   8.449  0.00  0.00    +0.000 A 
ATOM     13  C   UNL     1      45.727   3.606   7.721  0.00  0.00    +0.000 A 
ATOM     14  C   UNL     1      46.763   3.617   6.782  0.00  0.00    +0.000 A 
ATOM     15  C   UNL     1      47.512   2.466   6.559  0.00  0.00    +0.000 A 
ATOM     16  C   UNL     1      47.219   1.294   7.266  0.00  0.00    +0.000 A 
ATOM     17  C   UNL     1      46.187   1.288   8.206  0.00  0.00    +0.000 A 
ENDBRANCH  11  12
ENDBRANCH   9  11
ENDBRANCH   6   9
ENDBRANCH   1   3
BRANCH   1  19
ATOM     18  C   UNL     1      48.895   7.401  14.589  0.00  0.00    +0.000 C 
ATOM     19  C   UNL     1      47.876   7.242  13.458  0.00  0.00    +0.000 C 
BRANCH  19  20
ATOM     20  C   UNL     1      48.295   8.119  12.250  0.00  0.00    +0.000 C 
ATOM     21  O   UNL     1      48.959   7.634  11.329  0.00  0.00    +0.000 OA
BRANCH  20  22
ATOM     22  C   UNL     1      47.780   9.495  12.097  0.00  0.00    +0.000 A 
ATOM     23  C   UNL     1      48.676  10.553  11.995  0.00  0.00    +0.000 A 
ATOM     24  S   UNL     1      47.930  12.050  11.662  0.00  0.00    +0.000 S 
ATOM     25  C   UNL     1      46.384  11.341  11.689  0.00  0.00    +0.000 A 
ATOM     26  N   UNL     1      45.272  12.069  11.403  0.00  0.00    +0.000 NA
ATOM     27  C   UNL     1      44.170  11.398  11.455  0.00  0.00    +0.000 A 
ATOM     28  N   UNL     1      44.075  10.079  11.819  0.00  0.00    +0.000 N 
ATOM     29  C   UNL     1      45.154   9.367  12.285  0.00  0.00    +0.000 A 
ATOM     30  O   UNL     1      45.012   8.329  12.918  0.00  0.00    +0.000 OA
ATOM     31  C   UNL     1      46.434  10.005  12.044  0.00  0.00    +0.000 A 
ATOM     32  H   UNL     1      43.170   9.652  11.953  0.00  0.00    +0.000 HD
ENDBRANCH  20  22
ENDBRANCH  19  20
ENDBRANCH   1  19
TORSDOF 7
ENDMDL
MODEL 3
REMARK VINA RESULT:    -7.759      1.609      2.017
REMARK INTER + INTRA:         -12.423
REMARK INTER:                 -11.036
REMARK INTRA:                  -1.387
REMARK UNBOUND:                -1.488
REMARK  Name = 
REMARK  8 active torsions:
REMARK  status: ('A' for Active; 'I' for Inactive)
REMARK    1  A    between atoms: C_1  and  C_2
REMARK    2  A    between atoms: C_2  and  N_3
REMARK    3  A    between atoms: C_2  and  C_18
REMARK    4  A    between atoms: N_3  and  C_4
REMARK    5  A    between atoms: C_7  and  N_8
REMARK    6  A    between atoms: N_8  and  C_9
REMARK    7  A    between atoms: C_9  and  C_10
REMARK    8  A    between atoms: C_18  and  C_20
REMARK                            x       y       z     vdW  Elec       q    Type
REMARK                         _______ _______ _______ _____ _____    ______ ____
ROOT
ATOM      1  N   UNL     1      46.718   6.602  11.785  0.00  0.00    +0.000 N 
ATOM      2  H   UNL     1      47.402   6.168  12.407  0.00  0.00    +0.000 HD
ENDROOT
BRANCH   1   3
ATOM      3  C   UNL     1      45.553   5.847  11.769  0.00  0.00    +0.000 C 
ATOM      4  C   UNL     1      45.490   4.648  12.373  0.00  0.00    +0.000 C 
ATOM      5  C   UNL     1      44.312   3.721  12.291  0.00  0.00    +0.000 C 
ATOM      6  C   UNL     1      43.286   4.116  11.199  0.00  0.00    +0.000 C 
ATOM      7  C   UNL     1      43.062   5.637  11.299  0.00  0.00    +0.000 C 
ATOM      8  C   UNL     1      44.352   6.429  11.052  0.00  0.00    +0.000 C 
BRANCH   6   9
ATOM      9  N   UNL     1      43.673   3.762   9.819  0.00  0.00    +0.000 NA
ATOM     10  H   UNL     1      44.244   4.505   9.414  0.00  0.00    +0.000 HD
BRANCH   9  11
ATOM     11  C   UNL     1      44.418   2.510   9.735  0.00  0.00    +0.000 C 
BRANCH  11  12
ATOM     12  C   UNL     1      45.472   2.538   8.649  0.00  0.00    +0.000 A 
ATOM     13  C   UNL     1      46.129   1.361   8.271  0.00  0.00    +0.000 A 
ATOM     14  C   UNL     1      47.048   1.366   7.217  0.00  0.00    +0.000 A 
ATOM     15  C   UNL     1      47.322   2.549   6.538  0.00  0.00    +0.000 A 
ATOM     16  C   UNL     1      46.687   3.736   6.919  0.00  0.00    +0.000 A 
ATOM     17  C   UNL     1      45.766   3.727   7.969  0.00  0.00    +0.000 A 
ENDBRANCH  11  12
ENDBRANCH   9  11
ENDBRANCH   6   9
ENDBRANCH   1   3
BRANCH   1  19
ATOM     18  C   UNL     1      45.718   8.518  13.107  0.00  0.00    +0.000 C 
ATOM     19  C   UNL     1      46.702   8.082  12.018  0.00  0.00    +0.000 C 
BRANCH  19  20
ATOM     20  C   UNL     1      48.116   8.627  12.345  0.00  0.00    +0.000 C 
ATOM     21  O   UNL     1      48.850   9.035  11.439  0.00  0.00    +0.000 OA
BRANCH  20  22
ATOM     22  C   UNL     1      48.551   8.821  13.743  0.00  0.00    +0.000 A 
ATOM     23  C   UNL     1      49.036  10.061  14.142  0.00  0.00    +0.000 A 
ATOM     24  S   UNL     1      49.343  10.168  15.816  0.00  0.00    +0.000 S 
ATOM     25  C   UNL     1      48.882   8.548  16.053  0.00  0.00    +0.000 A 
ATOM     26  N   UNL     1      48.842   8.004  17.299  0.00  0.00    +0.000 NA
ATOM     27  C   UNL     1      48.467   6.768  17.326  0.00  0.00    +0.000 A 
ATOM     28  N   UNL     1      48.179   6.014  16.218  0.00  0.00    +0.000 N 
ATOM     29  C   UNL     1      48.382   6.480  14.940  0.00  0.00    +0.000 A 
ATOM     30  O   UNL     1      48.455   5.719  13.985  0.00  0.00    +0.000 OA
ATOM     31  C   UNL     1      48.593   7.912  14.859  0.00  0.00    +0.000 A 
ATOM     32  H   UNL     1      48.008   5.023  16.307  0.00  0.00    +0.000 HD
ENDBRANCH  20  22
ENDBRANCH  19  20
ENDBRANCH   1  19
TORSDOF 7
ENDMDL
MODEL 4
REMARK VINA RESULT:    -7.759      2.077      2.675
REMARK INTER + INTRA:         -12.422
REMARK INTER:                 -12.256
REMARK INTRA:                  -0.166
REMARK UNBOUND:                -1.488
REMARK  Name = 
REMARK  8 active torsions:
REMARK  status: ('A' for Active; 'I' for Inactive)
REMARK    1  A    between atoms: C_1  and  C_2
REMARK    2  A    between atoms: C_2  and  N_3
REMARK    3  A    between atoms: C_2  and  C_18
REMARK    4  A    between atoms: N_3  and  C_4
REMARK    5  A    between atoms: C_7  and  N_8
REMARK    6  A    between atoms: N_8  and  C_9
REMARK    7  A    between atoms: C_9  and  C_10
REMARK    8  A    between atoms: C_18  and  C_20
REMARK                            x       y       z     vdW  Elec       q    Type
REMARK                         _______ _______ _______ _____ _____    ______ ____
ROOT
ATOM      1  N   UNL     1      46.117   3.750  13.912  0.00  0.00    +0.000 N 
ATOM      2  H   UNL     1      45.567   3.344  14.671  0.00  0.00    +0.000 HD
ENDROOT
BRANCH   1   3
ATOM      3  C   UNL     1      45.268   4.268  12.943  0.00  0.00    +0.000 C 
ATOM      4  C   UNL     1      43.943   4.045  12.984  0.00  0.00    +0.000 C 
ATOM      5  C   UNL     1      42.982   4.463  11.909  0.00  0.00    +0.000 C 
ATOM      6  C   UNL     1      43.674   4.903  10.595  0.00  0.00    +0.000 C 
ATOM      7  C   UNL     1      44.851   5.822  10.972  0.00  0.00    +0.000 C 
ATOM      8  C   UNL     1      45.890   5.103  11.842  0.00  0.00    +0.000 C 
BRANCH   6   9
ATOM      9  N   UNL     1      44.161   3.800   9.743  0.00  0.00    +0.000 NA
ATOM     10  H   UNL     1      43.381   3.202   9.465  0.00  0.00    +0.000 HD
BRANCH   9  11
ATOM     11  C   UNL     1      44.840   4.262   8.537  0.00  0.00    +0.000 C 
BRANCH  11  12
ATOM     12  C   UNL     1      45.733   3.199   7.934  0.00  0.00    +0.000 A 
ATOM     13  C   UNL     1      45.792   1.920   8.501  0.00  0.00    +0.000 A 
ATOM     14  C   UNL     1      46.554   0.911   7.904  0.00  0.00    +0.000 A 
ATOM     15  C   UNL     1      47.270   1.176   6.740  0.00  0.00    +0.000 A 
ATOM     16  C   UNL     1      47.235   2.455   6.175  0.00  0.00    +0.000 A 
ATOM     17  C   UNL     1      46.469   3.459   6.771  0.00  0.00    +0.000 A 
ENDBRANCH  11  12
ENDBRANCH   9  11
ENDBRANCH   6   9
ENDBRANCH   1   3
BRANCH   1  19
ATOM     18  C   UNL     1      47.105   6.055  14.264  0.00  0.00    +0.000 C 
ATOM     19  C   UNL     1      47.246   4.548  14.487  0.00  0.00    +0.000 C 
BRANCH  19  20
ATOM     20  C   UNL     1      47.443   4.259  15.997  0.00  0.00    +0.000 C 
ATOM     21  O   UNL     1      46.580   3.643  16.631  0.00  0.00    +0.000 OA
BRANCH  20  22
ATOM     22  C   UNL     1      48.722   4.569  16.669  0.00  0.00    +0.000 A 
ATOM     23  C   UNL     1      49.007   5.882  17.025  0.00  0.00    +0.000 A 
ATOM     24  S   UNL     1      50.441   6.048  17.931  0.00  0.00    +0.000 S 
ATOM     25  C   UNL     1      50.751   4.379  17.837  0.00  0.00    +0.000 A 
ATOM     26  N   UNL     1      51.814   3.824  18.479  0.00  0.00    +0.000 NA
ATOM     27  C   UNL     1      51.920   2.546  18.325  0.00  0.00    +0.000 A 
ATOM     28  N   UNL     1      51.090   1.782  17.545  0.00  0.00    +0.000 N 
ATOM     29  C   UNL     1      50.119   2.336  16.745  0.00  0.00    +0.000 A 
ATOM     30  O   UNL     1      49.622   1.713  15.817  0.00  0.00    +0.000 OA
ATOM     31  C   UNL     1      49.825   3.724  17.045  0.00  0.00    +0.000 A 
ATOM     32  H   UNL     1      51.303   0.809  17.376  0.00  0.00    +0.000 HD
ENDBRANCH  20  22
ENDBRANCH  19  20
ENDBRANCH   1  19
TORSDOF 7
ENDMDL
MODEL 5
REMARK VINA RESULT:    -7.632      2.522      3.390
REMARK INTER + INTRA:         -12.244
REMARK INTER:                 -11.142
REMARK INTRA:                  -1.102
REMARK UNBOUND:                -1.488
REMARK  Name = 
REMARK  8 active torsions:
REMARK  status: ('A' for Active; 'I' for Inactive)
REMARK    1  A    between atoms: C_1  and  C_2
REMARK    2  A    between atoms: C_2  and  N_3
REMARK    3  A    between atoms: C_2  and  C_18
REMARK    4  A    between atoms: N_3  and  C_4
REMARK    5  A    between atoms: C_7  and  N_8
REMARK    6  A    between atoms: N_8  and  C_9
REMARK    7  A    between atoms: C_9  and  C_10
REMARK    8  A    between atoms: C_18  and  C_20
REMARK                            x       y       z     vdW  Elec       q    Type
REMARK                         _______ _______ _______ _____ _____    ______ ____
ROOT
ATOM      1  N   UNL     1      45.739   6.717  13.025  0.00  0.00    +0.000 N 
ATOM      2  H   UNL     1      45.188   7.494  13.393  0.00  0.00    +0.000 HD
ENDROOT
BRANCH   1   3
ATOM      3  C   UNL     1      44.893   5.750  12.497  0.00  0.00    +0.000 C 
ATOM      4  C   UNL     1      44.403   4.760  13.262  0.00  0.00    +0.000 C 
ATOM      5  C   UNL     1      43.590   3.612  12.738  0.00  0.00    +0.000 C 
ATOM      6  C   UNL     1      43.614   3.486  11.194  0.00  0.00    +0.000 C 
ATOM      7  C   UNL     1      43.417   4.897  10.609  0.00  0.00    +0.000 C 
ATOM      8  C   UNL     1      44.535   5.859  11.029  0.00  0.00    +0.000 C 
BRANCH   6   9
ATOM      9  N   UNL     1      44.841   2.885  10.634  0.00  0.00    +0.000 NA
ATOM     10  H   UNL     1      45.290   2.292  11.334  0.00  0.00    +0.000 HD
BRANCH   9  11
ATOM     11  C   UNL     1      44.592   2.082   9.441  0.00  0.00    +0.000 C 
BRANCH  11  12
ATOM     12  C   UNL     1      45.653   2.284   8.380  0.00  0.00    +0.000 A 
ATOM     13  C   UNL     1      46.472   1.218   7.987  0.00  0.00    +0.000 A 
ATOM     14  C   UNL     1      47.401   1.377   6.954  0.00  0.00    +0.000 A 
ATOM     15  C   UNL     1      47.523   2.605   6.310  0.00  0.00    +0.000 A 
ATOM     16  C   UNL     1      46.724   3.683   6.707  0.00  0.00    +0.000 A 
ATOM     17  C   UNL     1      45.794   3.520   7.736  0.00  0.00    +0.000 A 
ENDBRANCH  11  12
ENDBRANCH   9  11
ENDBRANCH   6   9
ENDBRANCH   1   3
BRANCH   1  19
ATOM     18  C   UNL     1      46.983   8.783  12.251  0.00  0.00    +0.000 C 
ATOM     19  C   UNL     1      46.907   7.254  12.257  0.00  0.00    +0.000 C 
BRANCH  19  20
ATOM     20  C   UNL     1      48.248   6.667  12.765  0.00  0.00    +0.000 C 
ATOM     21  O   UNL     1      48.304   5.500  13.169  0.00  0.00    +0.000 OA
BRANCH  20  22
ATOM     22  C   UNL     1      49.509   7.424  12.630  0.00  0.00    +0.000 A 
ATOM     23  C   UNL     1      50.068   7.602  11.370  0.00  0.00    +0.000 A 
ATOM     24  S   UNL     1      51.429   8.630  11.365  0.00  0.00    +0.000 S 
ATOM     25  C   UNL     1      51.342   8.833  13.052  0.00  0.00    +0.000 A 
ATOM     26  N   UNL     1      52.192   9.670  13.704  0.00  0.00    +0.000 NA
ATOM     27  C   UNL     1      52.004   9.729  14.980  0.00  0.00    +0.000 A 
ATOM     28  N   UNL     1      51.079   8.989  15.669  0.00  0.00    +0.000 N 
ATOM     29  C   UNL     1      50.330   8.006  15.066  0.00  0.00    +0.000 A 
ATOM     30  O   UNL     1      49.772   7.135  15.719  0.00  0.00    +0.000 OA
ATOM     31  C   UNL     1      50.351   8.051  13.617  0.00  0.00    +0.000 A 
ATOM     32  H   UNL     1      51.069   8.997  16.679  0.00  0.00    +0.000 HD
ENDBRANCH  20  22
ENDBRANCH  19  20
ENDBRANCH   1  19
TORSDOF 7
ENDMDL
MODEL 6
REMARK VINA RESULT:    -7.444      1.492      1.715
REMARK INTER + INTRA:         -11.978
REMARK INTER:                 -11.058
REMARK INTRA:                  -0.920
REMARK UNBOUND:                -1.488
REMARK  Name = 
REMARK  8 active torsions:
REMARK  status: ('A' for Active; 'I' for Inactive)
REMARK    1  A    between atoms: C_1  and  C_2
REMARK    2  A    between atoms: C_2  and  N_3
REMARK    3  A    between atoms: C_2  and  C_18
REMARK    4  A    between atoms: N_3  and  C_4
REMARK    5  A    between atoms: C_7  and  N_8
REMARK    6  A    between atoms: N_8  and  C_9
REMARK    7  A    between atoms: C_9  and  C_10
REMARK    8  A    between atoms: C_18  and  C_20
REMARK                            x       y       z     vdW  Elec       q    Type
REMARK                         _______ _______ _______ _____ _____    ______ ____
ROOT
ATOM      1  N   UNL     1      46.230   7.142  13.433  0.00  0.00    +0.000 N 
ATOM      2  H   UNL     1      45.890   8.094  13.290  0.00  0.00    +0.000 HD
ENDROOT
BRANCH   1   3
ATOM      3  C   UNL     1      45.381   6.240  12.804  0.00  0.00    +0.000 C 
ATOM      4  C   UNL     1      45.347   4.946  13.165  0.00  0.00    +0.000 C 
ATOM      5  C   UNL     1      44.552   3.891  12.452  0.00  0.00    +0.000 C 
ATOM      6  C   UNL     1      44.011   4.347  11.074  0.00  0.00    +0.000 C 
ATOM      7  C   UNL     1      43.427   5.762  11.247  0.00  0.00    +0.000 C 
ATOM      8  C   UNL     1      44.487   6.772  11.702  0.00  0.00    +0.000 C 
BRANCH   6   9
ATOM      9  N   UNL     1      45.003   4.350   9.981  0.00  0.00    +0.000 NA
ATOM     10  H   UNL     1      45.852   3.866  10.278  0.00  0.00    +0.000 HD
BRANCH   9  11
ATOM     11  C   UNL     1      44.515   3.718   8.760  0.00  0.00    +0.000 C 
BRANCH  11  12
ATOM     12  C   UNL     1      45.595   2.936   8.043  0.00  0.00    +0.000 A 
ATOM     13  C   UNL     1      45.929   1.643   8.463  0.00  0.00    +0.000 A 
ATOM     14  C   UNL     1      46.871   0.887   7.759  0.00  0.00    +0.000 A 
ATOM     15  C   UNL     1      47.491   1.420   6.634  0.00  0.00    +0.000 A 
ATOM     16  C   UNL     1      47.181   2.719   6.216  0.00  0.00    +0.000 A 
ATOM     17  C   UNL     1      46.237   3.471   6.918  0.00  0.00    +0.000 A 
ENDBRANCH  11  12
ENDBRANCH   9  11
ENDBRANCH   6   9
ENDBRANCH   1   3
BRANCH   1  19
ATOM     18  C   UNL     1      48.150   7.562  11.835  0.00  0.00    +0.000 C 
ATOM     19  C   UNL     1      47.714   7.108  13.230  0.00  0.00    +0.000 C 
BRANCH  19  20
ATOM     20  C   UNL     1      48.459   7.937  14.306  0.00  0.00    +0.000 C 
ATOM     21  O   UNL     1      48.103   9.093  14.560  0.00  0.00    +0.000 OA
BRANCH  20  22
ATOM     22  C   UNL     1      49.497   7.319  15.157  0.00  0.00    +0.000 A 
ATOM     23  C   UNL     1      50.794   7.818  15.125  0.00  0.00    +0.000 A 
ATOM     24  S   UNL     1      51.829   7.105  16.278  0.00  0.00    +0.000 S 
ATOM     25  C   UNL     1      50.590   6.075  16.824  0.00  0.00    +0.000 A 
ATOM     26  N   UNL     1      50.788   5.233  17.873  0.00  0.00    +0.000 NA
ATOM     27  C   UNL     1      49.758   4.517  18.180  0.00  0.00    +0.000 A 
ATOM     28  N   UNL     1      48.566   4.530  17.502  0.00  0.00    +0.000 N 
ATOM     29  C   UNL     1      48.394   5.235  16.334  0.00  0.00    +0.000 A 
ATOM     30  O   UNL     1      47.478   4.984  15.564  0.00  0.00    +0.000 OA
ATOM     31  C   UNL     1      49.437   6.208  16.071  0.00  0.00    +0.000 A 
ATOM     32  H   UNL     1      47.846   3.858  17.725  0.00  0.00    +0.000 HD
ENDBRANCH  20  22
ENDBRANCH  19  20
ENDBRANCH   1  19
TORSDOF 7
ENDMDL
MODEL 7
REMARK VINA RESULT:    -7.159      2.027      2.812
REMARK INTER + INTRA:         -11.577
REMARK INTER:                 -10.469
REMARK INTRA:                  -1.108
REMARK UNBOUND:                -1.488
REMARK  Name = 
REMARK  8 active torsions:
REMARK  status: ('A' for Active; 'I' for Inactive)
REMARK    1  A    between atoms: C_1  and  C_2
REMARK    2  A    between atoms: C_2  and  N_3
REMARK    3  A    between atoms: C_2  and  C_18
REMARK    4  A    between atoms: N_3  and  C_4
REMARK    5  A    between atoms: C_7  and  N_8
REMARK    6  A    between atoms: N_8  and  C_9
REMARK    7  A    between atoms: C_9  and  C_10
REMARK    8  A    between atoms: C_18  and  C_20
REMARK                            x       y       z     vdW  Elec       q    Type
REMARK                         _______ _______ _______ _____ _____    ______ ____
ROOT
ATOM      1  N   UNL     1      47.061   7.265  13.475  0.00  0.00    +0.000 N 
ATOM      2  H   UNL     1      46.870   8.267  13.427  0.00  0.00    +0.000 HD
ENDROOT
BRANCH   1   3
ATOM      3  C   UNL     1      46.035   6.562  12.857  0.00  0.00    +0.000 C 
ATOM      4  C   UNL     1      45.843   5.254  13.099  0.00  0.00    +0.000 C 
ATOM      5  C   UNL     1      44.841   4.400  12.378  0.00  0.00    +0.000 C 
ATOM      6  C   UNL     1      44.252   5.070  11.111  0.00  0.00    +0.000 C 
ATOM      7  C   UNL     1      43.902   6.525  11.473  0.00  0.00    +0.000 C 
ATOM      8  C   UNL     1      45.136   7.326  11.908  0.00  0.00    +0.000 C 
BRANCH   6   9
ATOM      9  N   UNL     1      45.134   5.052   9.926  0.00  0.00    +0.000 NA
ATOM     10  H   UNL     1      46.044   4.660  10.173  0.00  0.00    +0.000 HD
BRANCH   9  11
ATOM     11  C   UNL     1      44.586   4.281   8.815  0.00  0.00    +0.000 C 
BRANCH  11  12
ATOM     12  C   UNL     1      45.585   3.294   8.250  0.00  0.00    +0.000 A 
ATOM     13  C   UNL     1      45.537   1.945   8.624  0.00  0.00    +0.000 A 
ATOM     14  C   UNL     1      46.407   1.015   8.048  0.00  0.00    +0.000 A 
ATOM     15  C   UNL     1      47.338   1.427   7.099  0.00  0.00    +0.000 A 
ATOM     16  C   UNL     1      47.410   2.776   6.732  0.00  0.00    +0.000 A 
ATOM     17  C   UNL     1      46.536   3.701   7.305  0.00  0.00    +0.000 A 
ENDBRANCH  11  12
ENDBRANCH   9  11
ENDBRANCH   6   9
ENDBRANCH   1   3
BRANCH   1  19
ATOM     18  C   UNL     1      49.039   7.912  12.031  0.00  0.00    +0.000 C 
ATOM     19  C   UNL     1      48.502   7.017  13.150  0.00  0.00    +0.000 C 
BRANCH  19  20
ATOM     20  C   UNL     1      49.404   7.151  14.404  0.00  0.00    +0.000 C 
ATOM     21  O   UNL     1      50.524   7.665  14.313  0.00  0.00    +0.000 OA
BRANCH  20  22
ATOM     22  C   UNL     1      48.891   6.818  15.748  0.00  0.00    +0.000 A 
ATOM     23  C   UNL     1      48.555   5.503  16.046  0.00  0.00    +0.000 A 
ATOM     24  S   UNL     1      48.133   5.259  17.680  0.00  0.00    +0.000 S 
ATOM     25  C   UNL     1      48.340   6.910  18.031  0.00  0.00    +0.000 A 
ATOM     26  N   UNL     1      48.203   7.382  19.299  0.00  0.00    +0.000 NA
ATOM     27  C   UNL     1      48.396   8.653  19.416  0.00  0.00    +0.000 A 
ATOM     28  N   UNL     1      48.663   9.503  18.373  0.00  0.00    +0.000 N 
ATOM     29  C   UNL     1      48.631   9.088  17.062  0.00  0.00    +0.000 A 
ATOM     30  O   UNL     1      48.528   9.886  16.141  0.00  0.00    +0.000 OA
ATOM     31  C   UNL     1      48.631   7.647  16.897  0.00  0.00    +0.000 A 
ATOM     32  H   UNL     1      48.684  10.501  18.522  0.00  0.00    +0.000 HD
ENDBRANCH  20  22
ENDBRANCH  19  20
ENDBRANCH   1  19
TORSDOF 7
ENDMDL
MODEL 8
REMARK VINA RESULT:    -7.036      2.298      2.985
REMARK INTER + INTRA:         -11.403
REMARK INTER:                 -10.334
REMARK INTRA:                  -1.070
REMARK UNBOUND:                -1.488
REMARK  Name = 
REMARK  8 active torsions:
REMARK  status: ('A' for Active; 'I' for Inactive)
REMARK    1  A    between atoms: C_1  and  C_2
REMARK    2  A    between atoms: C_2  and  N_3
REMARK    3  A    between atoms: C_2  and  C_18
REMARK    4  A    between atoms: N_3  and  C_4
REMARK    5  A    between atoms: C_7  and  N_8
REMARK    6  A    between atoms: N_8  and  C_9
REMARK    7  A    between atoms: C_9  and  C_10
REMARK    8  A    between atoms: C_18  and  C_20
REMARK                            x       y       z     vdW  Elec       q    Type
REMARK                         _______ _______ _______ _____ _____    ______ ____
ROOT
ATOM      1  N   UNL     1      47.136   7.237  13.665  0.00  0.00    +0.000 N 
ATOM      2  H   UNL     1      46.882   8.103  13.188  0.00  0.00    +0.000 HD
ENDROOT
BRANCH   1   3
ATOM      3  C   UNL     1      46.299   6.209  13.249  0.00  0.00    +0.000 C 
ATOM      4  C   UNL     1      46.704   4.928  13.272  0.00  0.00    +0.000 C 
ATOM      5  C   UNL     1      45.907   3.781  12.722  0.00  0.00    +0.000 C 
ATOM      6  C   UNL     1      44.710   4.221  11.843  0.00  0.00    +0.000 C 
ATOM      7  C   UNL     1      43.994   5.373  12.573  0.00  0.00    +0.000 C 
ATOM      8  C   UNL     1      44.910   6.586  12.777  0.00  0.00    +0.000 C 
BRANCH   6   9
ATOM      9  N   UNL     1      45.061   4.645  10.473  0.00  0.00    +0.000 NA
ATOM     10  H   UNL     1      46.072   4.591  10.339  0.00  0.00    +0.000 HD
BRANCH   9  11
ATOM     11  C   UNL     1      44.415   3.841   9.441  0.00  0.00    +0.000 C 
BRANCH  11  12
ATOM     12  C   UNL     1      45.414   3.109   8.570  0.00  0.00    +0.000 A 
ATOM     13  C   UNL     1      45.600   1.729   8.714  0.00  0.00    +0.000 A 
ATOM     14  C   UNL     1      46.465   1.035   7.862  0.00  0.00    +0.000 A 
ATOM     15  C   UNL     1      47.155   1.716   6.865  0.00  0.00    +0.000 A 
ATOM     16  C   UNL     1      46.993   3.099   6.724  0.00  0.00    +0.000 A 
ATOM     17  C   UNL     1      46.126   3.789   7.573  0.00  0.00    +0.000 A 
ENDBRANCH  11  12
ENDBRANCH   9  11
ENDBRANCH   6   9
ENDBRANCH   1   3
BRANCH   1  19
ATOM     18  C   UNL     1      49.320   7.831  12.528  0.00  0.00    +0.000 C 
ATOM     19  C   UNL     1      48.626   7.092  13.675  0.00  0.00    +0.000 C 
BRANCH  19  20
ATOM     20  C   UNL     1      49.238   7.537  15.028  0.00  0.00    +0.000 C 
ATOM     21  O   UNL     1      49.394   8.737  15.276  0.00  0.00    +0.000 OA
BRANCH  20  22
ATOM     22  C   UNL     1      49.496   6.558  16.103  0.00  0.00    +0.000 A 
ATOM     23  C   UNL     1      48.423   5.959  16.755  0.00  0.00    +0.000 A 
ATOM     24  S   UNL     1      48.886   4.740  17.854  0.00  0.00    +0.000 S 
ATOM     25  C   UNL     1      50.534   5.004  17.528  0.00  0.00    +0.000 A 
ATOM     26  N   UNL     1      51.496   4.229  18.097  0.00  0.00    +0.000 NA
ATOM     27  C   UNL     1      52.701   4.540  17.752  0.00  0.00    +0.000 A 
ATOM     28  N   UNL     1      53.034   5.589  16.934  0.00  0.00    +0.000 N 
ATOM     29  C   UNL     1      52.102   6.497  16.489  0.00  0.00    +0.000 A 
ATOM     30  O   UNL     1      52.431   7.594  16.059  0.00  0.00    +0.000 OA
ATOM     31  C   UNL     1      50.727   6.072  16.669  0.00  0.00    +0.000 A 
ATOM     32  H   UNL     1      54.001   5.846  16.804  0.00  0.00    +0.000 HD
ENDBRANCH  20  22
ENDBRANCH  19  20
ENDBRANCH   1  19
TORSDOF 7
ENDMDL
MODEL 9
REMARK VINA RESULT:    -6.965      1.978      2.994
REMARK INTER + INTRA:         -11.304
REMARK INTER:                 -10.647
REMARK INTRA:                  -0.657
REMARK UNBOUND:                -1.488
REMARK  Name = 
REMARK  8 active torsions:
REMARK  status: ('A' for Active; 'I' for Inactive)
REMARK    1  A    between atoms: C_1  and  C_2
REMARK    2  A    between atoms: C_2  and  N_3
REMARK    3  A    between atoms: C_2  and  C_18
REMARK    4  A    between atoms: N_3  and  C_4
REMARK    5  A    between atoms: C_7  and  N_8
REMARK    6  A    between atoms: N_8  and  C_9
REMARK    7  A    between atoms: C_9  and  C_10
REMARK    8  A    between atoms: C_18  and  C_20
REMARK                            x       y       z     vdW  Elec       q    Type
REMARK                         _______ _______ _______ _____ _____    ______ ____
ROOT
ATOM      1  N   UNL     1      46.791   5.708  13.571  0.00  0.00    +0.000 N 
ATOM      2  H   UNL     1      47.629   5.791  12.994  0.00  0.00    +0.000 HD
ENDROOT
BRANCH   1   3
ATOM      3  C   UNL     1      45.733   5.247  12.798  0.00  0.00    +0.000 C 
ATOM      4  C   UNL     1      44.702   4.586  13.350  0.00  0.00    +0.000 C 
ATOM      5  C   UNL     1      43.590   3.949  12.568  0.00  0.00    +0.000 C 
ATOM      6  C   UNL     1      43.880   3.844  11.050  0.00  0.00    +0.000 C 
ATOM      7  C   UNL     1      44.466   5.194  10.593  0.00  0.00    +0.000 C 
ATOM      8  C   UNL     1      45.781   5.525  11.309  0.00  0.00    +0.000 C 
BRANCH   6   9
ATOM      9  N   UNL     1      44.792   2.751  10.660  0.00  0.00    +0.000 NA
ATOM     10  H   UNL     1      44.797   2.027  11.380  0.00  0.00    +0.000 HD
BRANCH   9  11
ATOM     11  C   UNL     1      44.436   2.133   9.387  0.00  0.00    +0.000 C 
BRANCH  11  12
ATOM     12  C   UNL     1      45.537   2.263   8.356  0.00  0.00    +0.000 A 
ATOM     13  C   UNL     1      45.753   3.481   7.701  0.00  0.00    +0.000 A 
ATOM     14  C   UNL     1      46.815   3.630   6.805  0.00  0.00    +0.000 A 
ATOM     15  C   UNL     1      47.666   2.559   6.550  0.00  0.00    +0.000 A 
ATOM     16  C   UNL     1      47.449   1.329   7.182  0.00  0.00    +0.000 A 
ATOM     17  C   UNL     1      46.390   1.185   8.081  0.00  0.00    +0.000 A 
ENDBRANCH  11  12
ENDBRANCH   9  11
ENDBRANCH   6   9
ENDBRANCH   1   3
BRANCH   1  19
ATOM     18  C   UNL     1      47.430   3.578  14.783  0.00  0.00    +0.000 C 
ATOM     19  C   UNL     1      47.148   5.079  14.882  0.00  0.00    +0.000 C 
BRANCH  19  20
ATOM     20  C   UNL     1      48.351   5.792  15.552  0.00  0.00    +0.000 C 
ATOM     21  O   UNL     1      49.189   6.382  14.861  0.00  0.00    +0.000 OA
BRANCH  20  22
ATOM     22  C   UNL     1      48.436   5.920  17.021  0.00  0.00    +0.000 A 
ATOM     23  C   UNL     1      48.319   4.785  17.814  0.00  0.00    +0.000 A 
ATOM     24  S   UNL     1      48.599   5.077  19.471  0.00  0.00    +0.000 S 
ATOM     25  C   UNL     1      48.837   6.737  19.187  0.00  0.00    +0.000 A 
ATOM     26  N   UNL     1      49.192   7.578  20.195  0.00  0.00    +0.000 NA
ATOM     27  C   UNL     1      49.346   8.808  19.831  0.00  0.00    +0.000 A 
ATOM     28  N   UNL     1      49.126   9.281  18.563  0.00  0.00    +0.000 N 
ATOM     29  C   UNL     1      48.597   8.493  17.568  0.00  0.00    +0.000 A 
ATOM     30  O   UNL     1      48.091   8.981  16.566  0.00  0.00    +0.000 OA
ATOM     31  C   UNL     1      48.611   7.074  17.865  0.00  0.00    +0.000 A 
ATOM     32  H   UNL     1      49.150  10.273  18.378  0.00  0.00    +0.000 HD
ENDBRANCH  20  22
ENDBRANCH  19  20
ENDBRANCH   1  19
TORSDOF 7
ENDMDL
