MODEL 1
REMARK VINA RESULT:    -8.211      0.000      0.000
REMARK INTER + INTRA:         -12.766
REMARK INTER:                 -11.571
REMARK INTRA:                  -1.195
REMARK UNBOUND:                -1.195
REMARK  Name = 
REMARK  7 active torsions:
REMARK  status: ('A' for Active; 'I' for Inactive)
REMARK    1  A    between atoms: C_2  and  C_3
REMARK    2  A    between atoms: C_2  and  C_25
REMARK    3  A    between atoms: C_3  and  C_4
REMARK    4  A    between atoms: C_4  and  C_5
REMARK    5  A    between atoms: C_8  and  C_9
REMARK    6  A    between atoms: C_9  and  N_10
REMARK    7  A    between atoms: C_11  and  C_13
REMARK                            x       y       z     vdW  Elec       q    Type
REMARK                         _______ _______ _______ _____ _____    ______ ____
ROOT
ATOM      1  C   UNL     1      48.424   6.783  13.838  0.00  0.00    +0.000 C 
ENDROOT
BRANCH   1   5
ATOM      2  C   UNL     1      45.151   5.048  11.592  0.00  0.00    +0.000 A 
ATOM      3  C   UNL     1      45.521   4.520  12.838  0.00  0.00    +0.000 A 
ATOM      4  C   UNL     1      46.580   5.075  13.564  0.00  0.00    +0.000 A 
ATOM      5  C   UNL     1      47.296   6.165  13.056  0.00  0.00    +0.000 A 
ATOM      6  C   UNL     1      46.955   6.664  11.791  0.00  0.00    +0.000 A 
ATOM      7  C   UNL     1      45.890   6.116  11.071  0.00  0.00    +0.000 A 
BRANCH   2   8
ATOM      8  C   UNL     1      43.985   4.472  10.823  0.00  0.00    +0.000 C 
BRANCH   8   9
ATOM      9  C   UNL     1      44.342   4.218   9.357  0.00  0.00    +0.000 C 
BRANCH   9  11
ATOM     10  O   UNL     1      44.230   1.834   9.695  0.00  0.00    +0.000 OA
ATOM     11  C   UNL     1      44.734   2.778   9.092  0.00  0.00    +0.000 C 
BRANCH  11  12
ATOM     12  C   UNL     1      45.764   2.511   8.051  0.00  0.00    +0.000 A 
ATOM     13  C   UNL     1      46.017   3.463   7.062  0.00  0.00    +0.000 A 
ATOM     14  C   UNL     1      47.005   3.221   6.106  0.00  0.00    +0.000 A 
ATOM     15  C   UNL     1      47.706   2.026   6.174  0.00  0.00    +0.000 A 
ATOM     16  N   UNL     1      47.482   1.076   7.109  0.00  0.00    +0.000 NA
ATOM     17  C   UNL     1      46.514   1.341   8.024  0.00  0.00    +0.000 A 
ENDBRANCH  11  12
ENDBRANCH   9  11
ENDBRANCH   8   9
ENDBRANCH   2   8
ENDBRANCH   1   5
BRANCH   1  18
ATOM     18  N   UNL     1      48.260   6.600  15.257  0.00  0.00    +0.000 N 
ATOM     19  C   UNL     1      48.851   7.465  16.146  0.00  0.00    +0.000 C 
ATOM     20  O   UNL     1      49.526   8.423  15.780  0.00  0.00    +0.000 OA
ATOM     21  H   UNL     1      47.866   5.724  15.585  0.00  0.00    +0.000 HD
BRANCH  19  22
ATOM     22  C   UNL     1      48.579   7.210  17.558  0.00  0.00    +0.000 A 
ATOM     23  C   UNL     1      48.053   8.169  18.419  0.00  0.00    +0.000 A 
ATOM     24  N   UNL     1      47.874   7.613  19.660  0.00  0.00    +0.000 N 
ATOM     25  C   UNL     1      48.316   6.324  19.635  0.00  0.00    +0.000 A 
ATOM     26  N   UNL     1      48.305   5.509  20.714  0.00  0.00    +0.000 NA
ATOM     27  C   UNL     1      48.803   4.337  20.466  0.00  0.00    +0.000 A 
ATOM     28  N   UNL     1      49.293   3.925  19.242  0.00  0.00    +0.000 N 
ATOM     29  C   UNL     1      49.282   4.723  18.115  0.00  0.00    +0.000 A 
ATOM     30  O   UNL     1      49.666   4.327  17.021  0.00  0.00    +0.000 OA
ATOM     31  C   UNL     1      48.755   6.044  18.358  0.00  0.00    +0.000 A 
ATOM     32  H   UNL     1      47.486   8.070  20.474  0.00  0.00    +0.000 HD
ATOM     33  H   UNL     1      49.656   2.994  19.120  0.00  0.00    +0.000 HD
ENDBRANCH  19  22
ENDBRANCH   1  18
TORSDOF 7
ENDMDL
MODEL 2
REMARK VINA RESULT:    -8.086      1.039      2.053
REMARK INTER + INTRA:         -12.589
REMARK INTER:                 -11.514
REMARK INTRA:                  -1.075
REMARK UNBOUND:                -1.195
REMARK  Name = 
REMARK  7 active torsions:
REMARK  status: ('A' for Active; 'I' for Inactive)
REMARK    1  A    between atoms: C_2  and  C_3
REMARK    2  A    between atoms: C_2  and  C_25
REMARK    3  A    between atoms: C_3  and  C_4
REMARK    4  A    between atoms: C_4  and  C_5
REMARK    5  A    between atoms: C_8  and  C_9
REMARK    6  A    between atoms: C_9  and  N_10
REMARK    7  A    between atoms: C_11  and  C_13
REMARK                            x       y       z     vdW  Elec       q    Type
REMARK                         _______ _______ _______ _____ _____    ______ ____
ROOT
ATOM      1  C   UNL     1      48.614   6.732  14.660  0.00  0.00    +0.000 C 
ENDROOT
BRANCH   1   5
ATOM      2  C   UNL     1      45.620   5.323  11.865  0.00  0.00    +0.000 A 
ATOM      3  C   UNL     1      45.897   4.604  13.036  0.00  0.00    +0.000 A 
ATOM      4  C   UNL     1      46.866   5.053  13.939  0.00  0.00    +0.000 A 
ATOM      5  C   UNL     1      47.584   6.228  13.685  0.00  0.00    +0.000 A 
ATOM      6  C   UNL     1      47.338   6.923  12.493  0.00  0.00    +0.000 A 
ATOM      7  C   UNL     1      46.362   6.479  11.596  0.00  0.00    +0.000 A 
BRANCH   2   8
ATOM      8  C   UNL     1      44.549   4.857  10.906  0.00  0.00    +0.000 C 
BRANCH   8   9
ATOM      9  C   UNL     1      45.109   4.616   9.503  0.00  0.00    +0.000 C 
BRANCH   9  11
ATOM     10  O   UNL     1      44.129   2.413   9.530  0.00  0.00    +0.000 OA
ATOM     11  C   UNL     1      44.972   3.173   9.059  0.00  0.00    +0.000 C 
BRANCH  11  12
ATOM     12  C   UNL     1      45.894   2.673   8.001  0.00  0.00    +0.000 A 
ATOM     13  C   UNL     1      46.226   3.494   6.922  0.00  0.00    +0.000 A 
ATOM     14  C   UNL     1      47.114   3.033   5.950  0.00  0.00    +0.000 A 
ATOM     15  C   UNL     1      47.639   1.757   6.093  0.00  0.00    +0.000 A 
ATOM     16  N   UNL     1      47.333   0.930   7.117  0.00  0.00    +0.000 NA
ATOM     17  C   UNL     1      46.466   1.408   8.046  0.00  0.00    +0.000 A 
ENDBRANCH  11  12
ENDBRANCH   9  11
ENDBRANCH   8   9
ENDBRANCH   2   8
ENDBRANCH   1   5
BRANCH   1  18
ATOM     18  N   UNL     1      48.249   6.452  16.025  0.00  0.00    +0.000 N 
ATOM     19  C   UNL     1      49.116   5.787  16.858  0.00  0.00    +0.000 C 
ATOM     20  O   UNL     1      50.226   5.416  16.489  0.00  0.00    +0.000 OA
ATOM     21  H   UNL     1      47.280   6.583  16.299  0.00  0.00    +0.000 HD
BRANCH  19  22
ATOM     22  C   UNL     1      48.659   5.599  18.232  0.00  0.00    +0.000 A 
ATOM     23  C   UNL     1      48.564   4.350  18.840  0.00  0.00    +0.000 A 
ATOM     24  N   UNL     1      48.148   4.509  20.137  0.00  0.00    +0.000 N 
ATOM     25  C   UNL     1      47.927   5.833  20.372  0.00  0.00    +0.000 A 
ATOM     26  N   UNL     1      47.479   6.318  21.552  0.00  0.00    +0.000 NA
ATOM     27  C   UNL     1      47.311   7.604  21.536  0.00  0.00    +0.000 A 
ATOM     28  N   UNL     1      47.559   8.425  20.454  0.00  0.00    +0.000 N 
ATOM     29  C   UNL     1      48.052   7.962  19.250  0.00  0.00    +0.000 A 
ATOM     30  O   UNL     1      48.325   8.707  18.316  0.00  0.00    +0.000 OA
ATOM     31  C   UNL     1      48.232   6.530  19.222  0.00  0.00    +0.000 A 
ATOM     32  H   UNL     1      48.015   3.776  20.821  0.00  0.00    +0.000 HD
ATOM     33  H   UNL     1      47.415   9.420  20.519  0.00  0.00    +0.000 HD
ENDBRANCH  19  22
ENDBRANCH   1  18
TORSDOF 7
ENDMDL
MODEL 3
REMARK VINA RESULT:    -7.867      1.789      3.086
REMARK INTER + INTRA:         -12.281
REMARK INTER:                 -11.121
REMARK INTRA:                  -1.160
REMARK UNBOUND:                -1.195
REMARK  Name = 
REMARK  7 active torsions:
REMARK  status: ('A' for Active; 'I' for Inactive)
REMARK    1  A    between atoms: C_2  and  C_3
REMARK    2  A    between atoms: C_2  and  C_25
REMARK    3  A    between atoms: C_3  and  C_4
REMARK    4  A    between atoms: C_4  and  C_5
REMARK    5  A    between atoms: C_8  and  C_9
REMARK    6  A    between atoms: C_9  and  N_10
REMARK    7  A    between atoms: C_11  and  C_13
REMARK                            x       y       z     vdW  Elec       q    Type
REMARK                         _______ _______ _______ _____ _____    ______ ____
ROOT
ATOM      1  C   UNL     1      47.349   4.181  14.976  0.00  0.00    +0.000 C 
ENDROOT
BRANCH   1   5
ATOM      2  C   UNL     1      44.746   4.871  11.584  0.00  0.00    +0.000 A 
ATOM      3  C   UNL     1      45.046   3.565  11.999  0.00  0.00    +0.000 A 
ATOM      4  C   UNL     1      45.890   3.339  13.091  0.00  0.00    +0.000 A 
ATOM      5  C   UNL     1      46.456   4.413  13.787  0.00  0.00    +0.000 A 
ATOM      6  C   UNL     1      46.191   5.716  13.345  0.00  0.00    +0.000 A 
ATOM      7  C   UNL     1      45.339   5.943  12.259  0.00  0.00    +0.000 A 
BRANCH   2   8
ATOM      8  C   UNL     1      43.806   5.118  10.425  0.00  0.00    +0.000 C 
BRANCH   8   9
ATOM      9  C   UNL     1      44.043   4.129   9.282  0.00  0.00    +0.000 C 
BRANCH   9  11
ATOM     10  O   UNL     1      45.980   5.384   8.585  0.00  0.00    +0.000 OA
ATOM     11  C   UNL     1      45.402   4.301   8.632  0.00  0.00    +0.000 C 
BRANCH  11  12
ATOM     12  C   UNL     1      46.056   3.100   8.043  0.00  0.00    +0.000 A 
ATOM     13  C   UNL     1      46.949   3.245   6.980  0.00  0.00    +0.000 A 
ATOM     14  C   UNL     1      47.582   2.121   6.451  0.00  0.00    +0.000 A 
ATOM     15  C   UNL     1      47.295   0.882   7.007  0.00  0.00    +0.000 A 
ATOM     16  N   UNL     1      46.429   0.701   8.028  0.00  0.00    +0.000 NA
ATOM     17  C   UNL     1      45.828   1.816   8.520  0.00  0.00    +0.000 A 
ENDBRANCH  11  12
ENDBRANCH   9  11
ENDBRANCH   8   9
ENDBRANCH   2   8
ENDBRANCH   1   5
BRANCH   1  18
ATOM     18  N   UNL     1      47.556   5.385  15.739  0.00  0.00    +0.000 N 
ATOM     19  C   UNL     1      48.645   5.509  16.567  0.00  0.00    +0.000 C 
ATOM     20  O   UNL     1      49.483   4.620  16.687  0.00  0.00    +0.000 OA
ATOM     21  H   UNL     1      46.793   6.052  15.798  0.00  0.00    +0.000 HD
BRANCH  19  22
ATOM     22  C   UNL     1      48.778   6.790  17.255  0.00  0.00    +0.000 A 
ATOM     23  C   UNL     1      48.980   6.901  18.628  0.00  0.00    +0.000 A 
ATOM     24  N   UNL     1      49.107   8.225  18.961  0.00  0.00    +0.000 N 
ATOM     25  C   UNL     1      48.947   8.981  17.838  0.00  0.00    +0.000 A 
ATOM     26  N   UNL     1      48.985  10.333  17.835  0.00  0.00    +0.000 NA
ATOM     27  C   UNL     1      48.776  10.840  16.660  0.00  0.00    +0.000 A 
ATOM     28  N   UNL     1      48.543  10.112  15.510  0.00  0.00    +0.000 N 
ATOM     29  C   UNL     1      48.536   8.731  15.477  0.00  0.00    +0.000 A 
ATOM     30  O   UNL     1      48.386   8.095  14.440  0.00  0.00    +0.000 OA
ATOM     31  C   UNL     1      48.744   8.130  16.772  0.00  0.00    +0.000 A 
ATOM     32  H   UNL     1      49.285   8.600  19.883  0.00  0.00    +0.000 HD
ATOM     33  H   UNL     1      48.398  10.576  14.627  0.00  0.00    +0.000 HD
ENDBRANCH  19  22
ENDBRANCH   1  18
TORSDOF 7
ENDMDL
MODEL 4
REMARK VINA RESULT:    -7.835      2.343      9.392
REMARK INTER + INTRA:         -12.236
REMARK INTER:                 -10.787
REMARK INTRA:                  -1.449
REMARK UNBOUND:                -1.195
REMARK  Name = 
REMARK  7 active torsions:
REMARK  status: ('A' for Active; 'I' for Inactive)
REMARK    1  A    between atoms: C_2  and  C_3
REMARK    2  A    between atoms: C_2  and  C_25
REMARK    3  A    between atoms: C_3  and  C_4
REMARK    4  A    between atoms: C_4  and  C_5
REMARK    5  A    between atoms: C_8  and  C_9
REMARK    6  A    between atoms: C_9  and  N_10
REMARK    7  A    between atoms: C_11  and  C_13
REMARK                            x       y       z     vdW  Elec       q    Type
REMARK                         _______ _______ _______ _____ _____    ______ ____
ROOT
ATOM      1  C   UNL     1      45.107   6.663  11.410  0.00  0.00    +0.000 C 
ENDROOT
BRANCH   1   5
ATOM      2  C   UNL     1      48.379   8.027  13.898  0.00  0.00    +0.000 A 
ATOM      3  C   UNL     1      47.160   8.720  13.878  0.00  0.00    +0.000 A 
ATOM      4  C   UNL     1      46.103   8.285  13.073  0.00  0.00    +0.000 A 
ATOM      5  C   UNL     1      46.245   7.151  12.265  0.00  0.00    +0.000 A 
ATOM      6  C   UNL     1      47.477   6.485  12.250  0.00  0.00    +0.000 A 
ATOM      7  C   UNL     1      48.530   6.914  13.064  0.00  0.00    +0.000 A 
BRANCH   2   8
ATOM      8  C   UNL     1      49.510   8.475  14.794  0.00  0.00    +0.000 C 
BRANCH   8   9
ATOM      9  C   UNL     1      50.065   7.320  15.630  0.00  0.00    +0.000 C 
BRANCH   9  11
ATOM     10  O   UNL     1      48.509   7.572  17.454  0.00  0.00    +0.000 OA
ATOM     11  C   UNL     1      49.076   6.820  16.665  0.00  0.00    +0.000 C 
BRANCH  11  12
ATOM     12  C   UNL     1      48.782   5.361  16.710  0.00  0.00    +0.000 A 
ATOM     13  C   UNL     1      49.646   4.497  17.385  0.00  0.00    +0.000 A 
ATOM     14  C   UNL     1      49.350   3.136  17.450  0.00  0.00    +0.000 A 
ATOM     15  C   UNL     1      48.193   2.684  16.830  0.00  0.00    +0.000 A 
ATOM     16  N   UNL     1      47.340   3.488  16.159  0.00  0.00    +0.000 NA
ATOM     17  C   UNL     1      47.656   4.808  16.113  0.00  0.00    +0.000 A 
ENDBRANCH  11  12
ENDBRANCH   9  11
ENDBRANCH   8   9
ENDBRANCH   2   8
ENDBRANCH   1   5
BRANCH   1  18
ATOM     18  N   UNL     1      45.413   5.410  10.768  0.00  0.00    +0.000 N 
ATOM     19  C   UNL     1      44.416   4.653  10.201  0.00  0.00    +0.000 C 
ATOM     20  O   UNL     1      43.240   5.005  10.207  0.00  0.00    +0.000 OA
ATOM     21  H   UNL     1      46.337   5.013  10.907  0.00  0.00    +0.000 HD
BRANCH  19  22
ATOM     22  C   UNL     1      44.849   3.426   9.538  0.00  0.00    +0.000 A 
ATOM     23  C   UNL     1      44.322   2.172   9.835  0.00  0.00    +0.000 A 
ATOM     24  N   UNL     1      44.898   1.234   9.018  0.00  0.00    +0.000 N 
ATOM     25  C   UNL     1      45.823   1.846   8.225  0.00  0.00    +0.000 A 
ATOM     26  N   UNL     1      46.590   1.188   7.326  0.00  0.00    +0.000 NA
ATOM     27  C   UNL     1      47.421   1.968   6.708  0.00  0.00    +0.000 A 
ATOM     28  N   UNL     1      47.536   3.329   6.911  0.00  0.00    +0.000 N 
ATOM     29  C   UNL     1      46.741   4.031   7.795  0.00  0.00    +0.000 A 
ATOM     30  O   UNL     1      46.812   5.248   7.925  0.00  0.00    +0.000 OA
ATOM     31  C   UNL     1      45.817   3.193   8.519  0.00  0.00    +0.000 A 
ATOM     32  H   UNL     1      44.690   0.245   8.996  0.00  0.00    +0.000 HD
ATOM     33  H   UNL     1      48.200   3.874   6.385  0.00  0.00    +0.000 HD
ENDBRANCH  19  22
ENDBRANCH   1  18
TORSDOF 7
ENDMDL
MODEL 5
REMARK VINA RESULT:    -7.664      3.953      8.541
REMARK INTER + INTRA:         -11.995
REMARK INTER:                 -10.004
REMARK INTRA:                  -1.990
REMARK UNBOUND:                -1.195
REMARK  Name = 
REMARK  7 active torsions:
REMARK  status: ('A' for Active; 'I' for Inactive)
REMARK    1  A    between atoms: C_2  and  C_3
REMARK    2  A    between atoms: C_2  and  C_25
REMARK    3  A    between atoms: C_3  and  C_4
REMARK    4  A    between atoms: C_4  and  C_5
REMARK    5  A    between atoms: C_8  and  C_9
REMARK    6  A    between atoms: C_9  and  N_10
REMARK    7  A    between atoms: C_11  and  C_13
REMARK                            x       y       z     vdW  Elec       q    Type
REMARK                         _______ _______ _______ _____ _____    ______ ____
ROOT
ATOM      1  C   UNL     1      48.564   8.354  14.479  0.00  0.00    +0.000 C 
ENDROOT
BRANCH   1   5
ATOM      2  C   UNL     1      50.780   6.931  17.918  0.00  0.00    +0.000 A 
ATOM      3  C   UNL     1      49.503   7.489  18.073  0.00  0.00    +0.000 A 
ATOM      4  C   UNL     1      48.786   7.954  16.966  0.00  0.00    +0.000 A 
ATOM      5  C   UNL     1      49.334   7.876  15.680  0.00  0.00    +0.000 A 
ATOM      6  C   UNL     1      50.628   7.359  15.531  0.00  0.00    +0.000 A 
ATOM      7  C   UNL     1      51.340   6.885  16.636  0.00  0.00    +0.000 A 
BRANCH   2   8
ATOM      8  C   UNL     1      51.541   6.396  19.109  0.00  0.00    +0.000 C 
BRANCH   8   9
ATOM      9  C   UNL     1      51.008   5.034  19.558  0.00  0.00    +0.000 C 
BRANCH   9  11
ATOM     10  O   UNL     1      52.517   3.488  18.487  0.00  0.00    +0.000 OA
ATOM     11  C   UNL     1      51.371   3.918  18.597  0.00  0.00    +0.000 C 
BRANCH  11  12
ATOM     12  C   UNL     1      50.287   3.323  17.769  0.00  0.00    +0.000 A 
ATOM     13  C   UNL     1      49.025   3.920  17.741  0.00  0.00    +0.000 A 
ATOM     14  C   UNL     1      48.021   3.376  16.940  0.00  0.00    +0.000 A 
ATOM     15  C   UNL     1      48.317   2.245  16.192  0.00  0.00    +0.000 A 
ATOM     16  N   UNL     1      49.522   1.634  16.202  0.00  0.00    +0.000 NA
ATOM     17  C   UNL     1      50.478   2.187  16.993  0.00  0.00    +0.000 A 
ENDBRANCH  11  12
ENDBRANCH   9  11
ENDBRANCH   8   9
ENDBRANCH   2   8
ENDBRANCH   1   5
BRANCH   1  18
ATOM     18  N   UNL     1      47.464   7.480  14.161  0.00  0.00    +0.000 N 
ATOM     19  C   UNL     1      47.653   6.388  13.349  0.00  0.00    +0.000 C 
ATOM     20  O   UNL     1      48.749   6.105  12.872  0.00  0.00    +0.000 OA
ATOM     21  H   UNL     1      46.524   7.789  14.388  0.00  0.00    +0.000 HD
BRANCH  19  22
ATOM     22  C   UNL     1      46.479   5.547  13.131  0.00  0.00    +0.000 A 
ATOM     23  C   UNL     1      46.409   4.216  13.532  0.00  0.00    +0.000 A 
ATOM     24  N   UNL     1      45.170   3.716  13.227  0.00  0.00    +0.000 N 
ATOM     25  C   UNL     1      44.447   4.682  12.593  0.00  0.00    +0.000 A 
ATOM     26  N   UNL     1      43.189   4.494  12.134  0.00  0.00    +0.000 NA
ATOM     27  C   UNL     1      42.709   5.540  11.537  0.00  0.00    +0.000 A 
ATOM     28  N   UNL     1      43.376   6.739  11.375  0.00  0.00    +0.000 N 
ATOM     29  C   UNL     1      44.645   6.970  11.866  0.00  0.00    +0.000 A 
ATOM     30  O   UNL     1      45.204   8.057  11.768  0.00  0.00    +0.000 OA
ATOM     31  C   UNL     1      45.222   5.820  12.519  0.00  0.00    +0.000 A 
ATOM     32  H   UNL     1      44.831   2.784  13.424  0.00  0.00    +0.000 HD
ATOM     33  H   UNL     1      42.934   7.514  10.908  0.00  0.00    +0.000 HD
ENDBRANCH  19  22
ENDBRANCH   1  18
TORSDOF 7
ENDMDL
MODEL 6
REMARK VINA RESULT:    -7.608      1.710      2.214
REMARK INTER + INTRA:         -11.916
REMARK INTER:                 -10.767
REMARK INTRA:                  -1.148
REMARK UNBOUND:                -1.195
REMARK  Name = 
REMARK  7 active torsions:
REMARK  status: ('A' for Active; 'I' for Inactive)
REMARK    1  A    between atoms: C_2  and  C_3
REMARK    2  A    between atoms: C_2  and  C_25
REMARK    3  A    between atoms: C_3  and  C_4
REMARK    4  A    between atoms: C_4  and  C_5
REMARK    5  A    between atoms: C_8  and  C_9
REMARK    6  A    between atoms: C_9  and  N_10
REMARK    7  A    between atoms: C_11  and  C_13
REMARK                            x       y       z     vdW  Elec       q    Type
REMARK                         _______ _______ _______ _____ _____    ______ ____
ROOT
ATOM      1  C   UNL     1      47.786   4.522  14.990  0.00  0.00    +0.000 C 
ENDROOT
BRANCH   1   5
ATOM      2  C   UNL     1      44.945   4.958  11.750  0.00  0.00    +0.000 A 
ATOM      3  C   UNL     1      45.260   3.689  12.257  0.00  0.00    +0.000 A 
ATOM      4  C   UNL     1      46.180   3.544  13.300  0.00  0.00    +0.000 A 
ATOM      5  C   UNL     1      46.810   4.665  13.854  0.00  0.00    +0.000 A 
ATOM      6  C   UNL     1      46.527   5.929  13.318  0.00  0.00    +0.000 A 
ATOM      7  C   UNL     1      45.599   6.075  12.282  0.00  0.00    +0.000 A 
BRANCH   2   8
ATOM      8  C   UNL     1      43.924   5.119  10.647  0.00  0.00    +0.000 C 
BRANCH   8   9
ATOM      9  C   UNL     1      44.100   4.065   9.553  0.00  0.00    +0.000 C 
BRANCH   9  11
ATOM     10  O   UNL     1      45.872   5.379   8.579  0.00  0.00    +0.000 OA
ATOM     11  C   UNL     1      45.363   4.272   8.739  0.00  0.00    +0.000 C 
BRANCH  11  12
ATOM     12  C   UNL     1      46.008   3.078   8.126  0.00  0.00    +0.000 A 
ATOM     13  C   UNL     1      46.919   3.239   7.081  0.00  0.00    +0.000 A 
ATOM     14  C   UNL     1      47.544   2.119   6.531  0.00  0.00    +0.000 A 
ATOM     15  C   UNL     1      47.230   0.871   7.049  0.00  0.00    +0.000 A 
ATOM     16  N   UNL     1      46.345   0.675   8.051  0.00  0.00    +0.000 NA
ATOM     17  C   UNL     1      45.754   1.784   8.565  0.00  0.00    +0.000 A 
ENDBRANCH  11  12
ENDBRANCH   9  11
ENDBRANCH   8   9
ENDBRANCH   2   8
ENDBRANCH   1   5
BRANCH   1  18
ATOM     18  N   UNL     1      47.727   5.640  15.896  0.00  0.00    +0.000 N 
ATOM     19  C   UNL     1      48.752   6.554  15.947  0.00  0.00    +0.000 C 
ATOM     20  O   UNL     1      49.744   6.468  15.229  0.00  0.00    +0.000 OA
ATOM     21  H   UNL     1      47.014   5.635  16.620  0.00  0.00    +0.000 HD
BRANCH  19  22
ATOM     22  C   UNL     1      48.563   7.671  16.869  0.00  0.00    +0.000 A 
ATOM     23  C   UNL     1      48.720   9.003  16.495  0.00  0.00    +0.000 A 
ATOM     24  N   UNL     1      48.433   9.810  17.566  0.00  0.00    +0.000 N 
ATOM     25  C   UNL     1      48.137   9.027  18.643  0.00  0.00    +0.000 A 
ATOM     26  N   UNL     1      47.839   9.520  19.866  0.00  0.00    +0.000 NA
ATOM     27  C   UNL     1      47.623   8.591  20.745  0.00  0.00    +0.000 A 
ATOM     28  N   UNL     1      47.675   7.234  20.495  0.00  0.00    +0.000 N 
ATOM     29  C   UNL     1      47.940   6.704  19.248  0.00  0.00    +0.000 A 
ATOM     30  O   UNL     1      47.925   5.498  19.026  0.00  0.00    +0.000 OA
ATOM     31  C   UNL     1      48.208   7.708  18.248  0.00  0.00    +0.000 A 
ATOM     32  H   UNL     1      48.441  10.820  17.578  0.00  0.00    +0.000 HD
ATOM     33  H   UNL     1      47.485   6.569  21.228  0.00  0.00    +0.000 HD
ENDBRANCH  19  22
ENDBRANCH   1  18
TORSDOF 7
ENDMDL
MODEL 7
REMARK VINA RESULT:    -7.481      3.603      8.450
REMARK INTER + INTRA:         -11.737
REMARK INTER:                  -9.835
REMARK INTRA:                  -1.902
REMARK UNBOUND:                -1.195
REMARK  Name = 
REMARK  7 active torsions:
REMARK  status: ('A' for Active; 'I' for Inactive)
REMARK    1  A    between atoms: C_2  and  C_3
REMARK    2  A    between atoms: C_2  and  C_25
REMARK    3  A    between atoms: C_3  and  C_4
REMARK    4  A    between atoms: C_4  and  C_5
REMARK    5  A    between atoms: C_8  and  C_9
REMARK    6  A    between atoms: C_9  and  N_10
REMARK    7  A    between atoms: C_11  and  C_13
REMARK                            x       y       z     vdW  Elec       q    Type
REMARK                         _______ _______ _______ _____ _____    ______ ____
ROOT
ATOM      1  C   UNL     1      48.074   8.210  12.733  0.00  0.00    +0.000 C 
ENDROOT
BRANCH   1   5
ATOM      2  C   UNL     1      49.039   7.720  16.926  0.00  0.00    +0.000 A 
ATOM      3  C   UNL     1      48.414   8.889  16.470  0.00  0.00    +0.000 A 
ATOM      4  C   UNL     1      48.105   9.053  15.116  0.00  0.00    +0.000 A 
ATOM      5  C   UNL     1      48.421   8.053  14.189  0.00  0.00    +0.000 A 
ATOM      6  C   UNL     1      49.086   6.904  14.638  0.00  0.00    +0.000 A 
ATOM      7  C   UNL     1      49.385   6.736  15.993  0.00  0.00    +0.000 A 
BRANCH   2   8
ATOM      8  C   UNL     1      49.342   7.526  18.395  0.00  0.00    +0.000 C 
BRANCH   8   9
ATOM      9  C   UNL     1      48.103   7.085  19.176  0.00  0.00    +0.000 C 
BRANCH   9  11
ATOM     10  O   UNL     1      48.168   5.265  20.757  0.00  0.00    +0.000 OA
ATOM     11  C   UNL     1      48.157   5.625  19.582  0.00  0.00    +0.000 C 
BRANCH  11  12
ATOM     12  C   UNL     1      48.186   4.597  18.506  0.00  0.00    +0.000 A 
ATOM     13  C   UNL     1      49.313   3.789  18.345  0.00  0.00    +0.000 A 
ATOM     14  C   UNL     1      49.323   2.806  17.355  0.00  0.00    +0.000 A 
ATOM     15  C   UNL     1      48.199   2.669  16.553  0.00  0.00    +0.000 A 
ATOM     16  N   UNL     1      47.095   3.440  16.671  0.00  0.00    +0.000 NA
ATOM     17  C   UNL     1      47.116   4.387  17.644  0.00  0.00    +0.000 A 
ENDBRANCH  11  12
ENDBRANCH   9  11
ENDBRANCH   8   9
ENDBRANCH   2   8
ENDBRANCH   1   5
BRANCH   1  18
ATOM     18  N   UNL     1      47.008   7.328  12.334  0.00  0.00    +0.000 N 
ATOM     19  C   UNL     1      45.695   7.703  12.490  0.00  0.00    +0.000 C 
ATOM     20  O   UNL     1      45.375   8.792  12.960  0.00  0.00    +0.000 OA
ATOM     21  H   UNL     1      47.239   6.364  12.116  0.00  0.00    +0.000 HD
BRANCH  19  22
ATOM     22  C   UNL     1      44.699   6.750  12.009  0.00  0.00    +0.000 A 
ATOM     23  C   UNL     1      43.579   7.123  11.273  0.00  0.00    +0.000 A 
ATOM     24  N   UNL     1      42.865   6.002  10.935  0.00  0.00    +0.000 N 
ATOM     25  C   UNL     1      43.476   4.910  11.475  0.00  0.00    +0.000 A 
ATOM     26  N   UNL     1      43.001   3.650  11.350  0.00  0.00    +0.000 NA
ATOM     27  C   UNL     1      43.727   2.774  11.972  0.00  0.00    +0.000 A 
ATOM     28  N   UNL     1      44.872   3.057  12.690  0.00  0.00    +0.000 N 
ATOM     29  C   UNL     1      45.400   4.328  12.803  0.00  0.00    +0.000 A 
ATOM     30  O   UNL     1      46.449   4.558  13.393  0.00  0.00    +0.000 OA
ATOM     31  C   UNL     1      44.606   5.334  12.141  0.00  0.00    +0.000 A 
ATOM     32  H   UNL     1      42.019   5.971  10.382  0.00  0.00    +0.000 HD
ATOM     33  H   UNL     1      45.392   2.321  13.140  0.00  0.00    +0.000 HD
ENDBRANCH  19  22
ENDBRANCH   1  18
TORSDOF 7
ENDMDL
MODEL 8
REMARK VINA RESULT:    -7.378      1.570      1.846
REMARK INTER + INTRA:         -11.591
REMARK INTER:                 -10.594
REMARK INTRA:                  -0.997
REMARK UNBOUND:                -1.195
REMARK  Name = 
REMARK  7 active torsions:
REMARK  status: ('A' for Active; 'I' for Inactive)
REMARK    1  A    between atoms: C_2  and  C_3
REMARK    2  A    between atoms: C_2  and  C_25
REMARK    3  A    between atoms: C_3  and  C_4
REMARK    4  A    between atoms: C_4  and  C_5
REMARK    5  A    between atoms: C_8  and  C_9
REMARK    6  A    between atoms: C_9  and  N_10
REMARK    7  A    between atoms: C_11  and  C_13
REMARK                            x       y       z     vdW  Elec       q    Type
REMARK                         _______ _______ _______ _____ _____    ______ ____
ROOT
ATOM      1  C   UNL     1      46.502   8.711  13.028  0.00  0.00    +0.000 C 
ENDROOT
BRANCH   1   5
ATOM      2  C   UNL     1      44.553   5.094  11.660  0.00  0.00    +0.000 A 
ATOM      3  C   UNL     1      45.718   5.026  12.438  0.00  0.00    +0.000 A 
ATOM      4  C   UNL     1      46.352   6.192  12.878  0.00  0.00    +0.000 A 
ATOM      5  C   UNL     1      45.839   7.450  12.543  0.00  0.00    +0.000 A 
ATOM      6  C   UNL     1      44.701   7.518  11.728  0.00  0.00    +0.000 A 
ATOM      7  C   UNL     1      44.061   6.352  11.297  0.00  0.00    +0.000 A 
BRANCH   2   8
ATOM      8  C   UNL     1      43.847   3.834  11.213  0.00  0.00    +0.000 C 
BRANCH   8   9
ATOM      9  C   UNL     1      44.753   2.948  10.357  0.00  0.00    +0.000 C 
BRANCH   9  11
ATOM     10  O   UNL     1      44.189   4.363   8.488  0.00  0.00    +0.000 OA
ATOM     11  C   UNL     1      44.869   3.439   8.927  0.00  0.00    +0.000 C 
BRANCH  11  12
ATOM     12  C   UNL     1      45.858   2.775   8.034  0.00  0.00    +0.000 A 
ATOM     13  C   UNL     1      46.485   3.507   7.024  0.00  0.00    +0.000 A 
ATOM     14  C   UNL     1      47.434   2.888   6.210  0.00  0.00    +0.000 A 
ATOM     15  C   UNL     1      47.721   1.550   6.436  0.00  0.00    +0.000 A 
ATOM     16  N   UNL     1      47.128   0.807   7.395  0.00  0.00    +0.000 NA
ATOM     17  C   UNL     1      46.208   1.438   8.171  0.00  0.00    +0.000 A 
ENDBRANCH  11  12
ENDBRANCH   9  11
ENDBRANCH   8   9
ENDBRANCH   2   8
ENDBRANCH   1   5
BRANCH   1  18
ATOM     18  N   UNL     1      46.983   8.582  14.380  0.00  0.00    +0.000 N 
ATOM     19  C   UNL     1      48.316   8.749  14.666  0.00  0.00    +0.000 C 
ATOM     20  O   UNL     1      49.145   9.019  13.801  0.00  0.00    +0.000 OA
ATOM     21  H   UNL     1      46.359   8.184  15.075  0.00  0.00    +0.000 HD
BRANCH  19  22
ATOM     22  C   UNL     1      48.683   8.641  16.076  0.00  0.00    +0.000 A 
ATOM     23  C   UNL     1      48.912   9.745  16.891  0.00  0.00    +0.000 A 
ATOM     24  N   UNL     1      49.192   9.318  18.163  0.00  0.00    +0.000 N 
ATOM     25  C   UNL     1      49.194   7.955  18.182  0.00  0.00    +0.000 A 
ATOM     26  N   UNL     1      49.467   7.223  19.285  0.00  0.00    +0.000 NA
ATOM     27  C   UNL     1      49.442   5.945  19.061  0.00  0.00    +0.000 A 
ATOM     28  N   UNL     1      49.163   5.358  17.843  0.00  0.00    +0.000 N 
ATOM     29  C   UNL     1      48.845   6.080  16.710  0.00  0.00    +0.000 A 
ATOM     30  O   UNL     1      48.542   5.546  15.649  0.00  0.00    +0.000 OA
ATOM     31  C   UNL     1      48.884   7.507  16.915  0.00  0.00    +0.000 A 
ATOM     32  H   UNL     1      49.377   9.902  18.968  0.00  0.00    +0.000 HD
ATOM     33  H   UNL     1      49.152   4.355  17.746  0.00  0.00    +0.000 HD
ENDBRANCH  19  22
ENDBRANCH   1  18
TORSDOF 7
ENDMDL
MODEL 9
REMARK VINA RESULT:    -7.256      4.039      9.568
REMARK INTER + INTRA:         -11.420
REMARK INTER:                  -9.778
REMARK INTRA:                  -1.641
REMARK UNBOUND:                -1.195
REMARK  Name = 
REMARK  7 active torsions:
REMARK  status: ('A' for Active; 'I' for Inactive)
REMARK    1  A    between atoms: C_2  and  C_3
REMARK    2  A    between atoms: C_2  and  C_25
REMARK    3  A    between atoms: C_3  and  C_4
REMARK    4  A    between atoms: C_4  and  C_5
REMARK    5  A    between atoms: C_8  and  C_9
REMARK    6  A    between atoms: C_9  and  N_10
REMARK    7  A    between atoms: C_11  and  C_13
REMARK                            x       y       z     vdW  Elec       q    Type
REMARK                         _______ _______ _______ _____ _____    ______ ____
ROOT
ATOM      1  C   UNL     1      47.288   3.542  16.657  0.00  0.00    +0.000 C 
ENDROOT
BRANCH   1   5
ATOM      2  C   UNL     1      50.411   5.404  19.010  0.00  0.00    +0.000 A 
ATOM      3  C   UNL     1      49.577   4.429  19.575  0.00  0.00    +0.000 A 
ATOM      4  C   UNL     1      48.565   3.829  18.820  0.00  0.00    +0.000 A 
ATOM      5  C   UNL     1      48.361   4.196  17.485  0.00  0.00    +0.000 A 
ATOM      6  C   UNL     1      49.166   5.202  16.933  0.00  0.00    +0.000 A 
ATOM      7  C   UNL     1      50.185   5.794  17.685  0.00  0.00    +0.000 A 
BRANCH   2   8
ATOM      8  C   UNL     1      51.529   6.028  19.815  0.00  0.00    +0.000 C 
BRANCH   8   9
ATOM      9  C   UNL     1      52.650   5.026  20.101  0.00  0.00    +0.000 C 
BRANCH   9  11
ATOM     10  O   UNL     1      53.879   5.213  18.035  0.00  0.00    +0.000 OA
ATOM     11  C   UNL     1      53.291   4.490  18.836  0.00  0.00    +0.000 C 
BRANCH  11  12
ATOM     12  C   UNL     1      53.208   3.027  18.572  0.00  0.00    +0.000 A 
ATOM     13  C   UNL     1      52.165   2.517  17.798  0.00  0.00    +0.000 A 
ATOM     14  C   UNL     1      52.109   1.149  17.529  0.00  0.00    +0.000 A 
ATOM     15  C   UNL     1      53.105   0.336  18.049  0.00  0.00    +0.000 A 
ATOM     16  N   UNL     1      54.124   0.791  18.811  0.00  0.00    +0.000 NA
ATOM     17  C   UNL     1      54.150   2.127  19.056  0.00  0.00    +0.000 A 
ENDBRANCH  11  12
ENDBRANCH   9  11
ENDBRANCH   8   9
ENDBRANCH   2   8
ENDBRANCH   1   5
BRANCH   1  18
ATOM     18  N   UNL     1      46.700   4.459  15.714  0.00  0.00    +0.000 N 
ATOM     19  C   UNL     1      46.707   4.178  14.369  0.00  0.00    +0.000 C 
ATOM     20  O   UNL     1      47.197   3.148  13.916  0.00  0.00    +0.000 OA
ATOM     21  H   UNL     1      46.455   5.390  16.038  0.00  0.00    +0.000 HD
BRANCH  19  22
ATOM     22  C   UNL     1      46.042   5.156  13.512  0.00  0.00    +0.000 A 
ATOM     23  C   UNL     1      46.573   6.413  13.234  0.00  0.00    +0.000 A 
ATOM     24  N   UNL     1      45.739   7.075  12.370  0.00  0.00    +0.000 N 
ATOM     25  C   UNL     1      44.653   6.291  12.115  0.00  0.00    +0.000 A 
ATOM     26  N   UNL     1      43.627   6.671  11.320  0.00  0.00    +0.000 NA
ATOM     27  C   UNL     1      42.689   5.778  11.247  0.00  0.00    +0.000 A 
ATOM     28  N   UNL     1      42.703   4.557  11.891  0.00  0.00    +0.000 N 
ATOM     29  C   UNL     1      43.754   4.128  12.678  0.00  0.00    +0.000 A 
ATOM     30  O   UNL     1      43.782   3.018  13.197  0.00  0.00    +0.000 OA
ATOM     31  C   UNL     1      44.808   5.105  12.800  0.00  0.00    +0.000 A 
ATOM     32  H   UNL     1      45.885   7.996  11.980  0.00  0.00    +0.000 HD
ATOM     33  H   UNL     1      41.941   3.907  11.779  0.00  0.00    +0.000 HD
ENDBRANCH  19  22
ENDBRANCH   1  18
TORSDOF 7
ENDMDL
