MODEL 1
REMARK VINA RESULT:    -8.516      0.000      0.000
REMARK INTER + INTRA:         -12.223
REMARK INTER:                 -11.503
REMARK INTRA:                  -0.720
REMARK UNBOUND:                -0.720
REMARK  Name = 
REMARK  6 active torsions:
REMARK  status: ('A' for Active; 'I' for Inactive)
REMARK    1  A    between atoms: C_2  and  C_25
REMARK    2  A    between atoms: N_3  and  C_4
REMARK    3  A    between atoms: C_4  and  C_5
REMARK    4  A    between atoms: C_8  and  C_9
REMARK    5  A    between atoms: C_9  and  N_10
REMARK    6  A    between atoms: C_11  and  C_13
REMARK                            x       y       z     vdW  Elec       q    Type
REMARK                         _______ _______ _______ _____ _____    ______ ____
ROOT
ATOM      1  C   UNL     1      44.688   5.223  11.389  0.00  0.00    +0.000 A 
ATOM      2  C   UNL     1      44.438   6.603  11.406  0.00  0.00    +0.000 A 
ATOM      3  C   UNL     1      45.276   7.471  12.115  0.00  0.00    +0.000 A 
ATOM      4  C   UNL     1      46.391   6.979  12.806  0.00  0.00    +0.000 A 
ATOM      5  C   UNL     1      46.635   5.599  12.796  0.00  0.00    +0.000 A 
ATOM      6  C   UNL     1      45.799   4.732  12.085  0.00  0.00    +0.000 A 
ENDROOT
BRANCH   1   7
ATOM      7  C   UNL     1      43.780   4.290  10.633  0.00  0.00    +0.000 C 
BRANCH   7  10
ATOM      8  O   UNL     1      45.283   5.038   8.428  0.00  0.00    +0.000 OA
ATOM      9  C   UNL     1      45.248   3.850   8.735  0.00  0.00    +0.000 C 
ATOM     10  N   UNL     1      44.517   3.367   9.800  0.00  0.00    +0.000 N 
ATOM     11  H   UNL     1      44.674   2.430  10.146  0.00  0.00    +0.000 HD
BRANCH   9  12
ATOM     12  C   UNL     1      46.048   2.867   7.962  0.00  0.00    +0.000 A 
ATOM     13  C   UNL     1      46.023   1.532   8.366  0.00  0.00    +0.000 A 
ATOM     14  C   UNL     1      46.790   0.625   7.661  0.00  0.00    +0.000 A 
ATOM     15  N   UNL     1      47.568   0.963   6.611  0.00  0.00    +0.000 NA
ATOM     16  C   UNL     1      47.589   2.265   6.255  0.00  0.00    +0.000 A 
ATOM     17  C   UNL     1      46.851   3.251   6.889  0.00  0.00    +0.000 A 
ENDBRANCH   9  12
ENDBRANCH   7  10
ENDBRANCH   1   7
BRANCH   4  18
ATOM     18  C   UNL     1      47.297   7.905  13.575  0.00  0.00    +0.000 C 
BRANCH  18  19
ATOM     19  N   UNL     1      47.677   7.342  14.846  0.00  0.00    +0.000 N 
ATOM     20  C   UNL     1      48.941   6.844  15.048  0.00  0.00    +0.000 C 
ATOM     21  O   UNL     1      49.806   6.901  14.179  0.00  0.00    +0.000 OA
ATOM     22  H   UNL     1      46.929   7.080  15.480  0.00  0.00    +0.000 HD
BRANCH  20  23
ATOM     23  C   UNL     1      49.228   6.293  16.379  0.00  0.00    +0.000 A 
ATOM     24  C   UNL     1      50.204   6.885  17.170  0.00  0.00    +0.000 A 
ATOM     25  S   UNL     1      50.376   6.161  18.704  0.00  0.00    +0.000 S 
ATOM     26  C   UNL     1      49.189   4.996  18.346  0.00  0.00    +0.000 A 
ATOM     27  N   UNL     1      48.860   4.032  19.249  0.00  0.00    +0.000 NA
ATOM     28  C   UNL     1      47.970   3.193  18.833  0.00  0.00    +0.000 A 
ATOM     29  N   UNL     1      47.376   3.233  17.599  0.00  0.00    +0.000 N 
ATOM     30  C   UNL     1      47.655   4.205  16.667  0.00  0.00    +0.000 A 
ATOM     31  O   UNL     1      47.075   4.237  15.586  0.00  0.00    +0.000 OA
ATOM     32  C   UNL     1      48.658   5.166  17.080  0.00  0.00    +0.000 A 
ATOM     33  H   UNL     1      46.680   2.550  17.337  0.00  0.00    +0.000 HD
ENDBRANCH  20  23
ENDBRANCH  18  19
ENDBRANCH   4  18
TORSDOF 6
ENDMDL
MODEL 2
REMARK VINA RESULT:    -8.337      1.642      1.946
REMARK INTER + INTRA:         -11.981
REMARK INTER:                 -11.004
REMARK INTRA:                  -0.977
REMARK UNBOUND:                -0.720
REMARK  Name = 
REMARK  6 active torsions:
REMARK  status: ('A' for Active; 'I' for Inactive)
REMARK    1  A    between atoms: C_2  and  C_25
REMARK    2  A    between atoms: N_3  and  C_4
REMARK    3  A    between atoms: C_4  and  C_5
REMARK    4  A    between atoms: C_8  and  C_9
REMARK    5  A    between atoms: C_9  and  N_10
REMARK    6  A    between atoms: C_11  and  C_13
REMARK                            x       y       z     vdW  Elec       q    Type
REMARK                         _______ _______ _______ _____ _____    ______ ____
ROOT
ATOM      1  C   UNL     1      44.776   5.149  11.647  0.00  0.00    +0.000 A 
ATOM      2  C   UNL     1      44.186   6.385  11.345  0.00  0.00    +0.000 A 
ATOM      3  C   UNL     1      44.774   7.580  11.775  0.00  0.00    +0.000 A 
ATOM      4  C   UNL     1      45.973   7.564  12.499  0.00  0.00    +0.000 A 
ATOM      5  C   UNL     1      46.557   6.328  12.809  0.00  0.00    +0.000 A 
ATOM      6  C   UNL     1      45.971   5.134  12.377  0.00  0.00    +0.000 A 
ENDROOT
BRANCH   1   7
ATOM      7  C   UNL     1      44.138   3.864  11.193  0.00  0.00    +0.000 C 
BRANCH   7  10
ATOM      8  O   UNL     1      44.227   4.250   8.450  0.00  0.00    +0.000 OA
ATOM      9  C   UNL     1      44.967   3.405   8.945  0.00  0.00    +0.000 C 
ATOM     10  N   UNL     1      44.990   3.119  10.294  0.00  0.00    +0.000 N 
ATOM     11  H   UNL     1      45.745   2.576  10.690  0.00  0.00    +0.000 HD
BRANCH   9  12
ATOM     12  C   UNL     1      45.919   2.664   8.080  0.00  0.00    +0.000 A 
ATOM     13  C   UNL     1      46.045   1.286   8.266  0.00  0.00    +0.000 A 
ATOM     14  C   UNL     1      46.952   0.605   7.479  0.00  0.00    +0.000 A 
ATOM     15  N   UNL     1      47.727   1.200   6.547  0.00  0.00    +0.000 NA
ATOM     16  C   UNL     1      47.599   2.536   6.404  0.00  0.00    +0.000 A 
ATOM     17  C   UNL     1      46.715   3.310   7.136  0.00  0.00    +0.000 A 
ENDBRANCH   9  12
ENDBRANCH   7  10
ENDBRANCH   1   7
BRANCH   4  18
ATOM     18  C   UNL     1      46.612   8.846  12.969  0.00  0.00    +0.000 C 
BRANCH  18  19
ATOM     19  N   UNL     1      46.936   8.795  14.372  0.00  0.00    +0.000 N 
ATOM     20  C   UNL     1      48.239   8.866  14.799  0.00  0.00    +0.000 C 
ATOM     21  O   UNL     1      49.170   9.026  14.015  0.00  0.00    +0.000 OA
ATOM     22  H   UNL     1      46.223   8.438  15.000  0.00  0.00    +0.000 HD
BRANCH  20  23
ATOM     23  C   UNL     1      48.463   8.807  16.249  0.00  0.00    +0.000 A 
ATOM     24  C   UNL     1      48.376   9.969  17.005  0.00  0.00    +0.000 A 
ATOM     25  S   UNL     1      48.607   9.719  18.676  0.00  0.00    +0.000 S 
ATOM     26  C   UNL     1      48.885   8.057  18.443  0.00  0.00    +0.000 A 
ATOM     27  N   UNL     1      49.174   7.242  19.494  0.00  0.00    +0.000 NA
ATOM     28  C   UNL     1      49.397   6.013  19.170  0.00  0.00    +0.000 A 
ATOM     29  N   UNL     1      49.353   5.522  17.891  0.00  0.00    +0.000 N 
ATOM     30  C   UNL     1      49.036   6.300  16.803  0.00  0.00    +0.000 A 
ATOM     31  O   UNL     1      48.963   5.821  15.676  0.00  0.00    +0.000 OA
ATOM     32  C   UNL     1      48.788   7.695  17.111  0.00  0.00    +0.000 A 
ATOM     33  H   UNL     1      49.530   4.545  17.705  0.00  0.00    +0.000 HD
ENDBRANCH  20  23
ENDBRANCH  18  19
ENDBRANCH   4  18
TORSDOF 6
ENDMDL
MODEL 3
REMARK VINA RESULT:    -7.737      1.881      2.760
REMARK INTER + INTRA:         -11.171
REMARK INTER:                 -10.512
REMARK INTRA:                  -0.659
REMARK UNBOUND:                -0.720
REMARK  Name = 
REMARK  6 active torsions:
REMARK  status: ('A' for Active; 'I' for Inactive)
REMARK    1  A    between atoms: C_2  and  C_25
REMARK    2  A    between atoms: N_3  and  C_4
REMARK    3  A    between atoms: C_4  and  C_5
REMARK    4  A    between atoms: C_8  and  C_9
REMARK    5  A    between atoms: C_9  and  N_10
REMARK    6  A    between atoms: C_11  and  C_13
REMARK                            x       y       z     vdW  Elec       q    Type
REMARK                         _______ _______ _______ _____ _____    ______ ____
ROOT
ATOM      1  C   UNL     1      44.870   5.439  11.388  0.00  0.00    +0.000 A 
ATOM      2  C   UNL     1      45.026   6.826  11.248  0.00  0.00    +0.000 A 
ATOM      3  C   UNL     1      45.915   7.530  12.067  0.00  0.00    +0.000 A 
ATOM      4  C   UNL     1      46.681   6.860  13.030  0.00  0.00    +0.000 A 
ATOM      5  C   UNL     1      46.518   5.476  13.175  0.00  0.00    +0.000 A 
ATOM      6  C   UNL     1      45.631   4.771  12.355  0.00  0.00    +0.000 A 
ENDROOT
BRANCH   1   7
ATOM      7  C   UNL     1      43.906   4.685  10.513  0.00  0.00    +0.000 C 
BRANCH   7  10
ATOM      8  O   UNL     1      45.618   5.187   8.393  0.00  0.00    +0.000 OA
ATOM      9  C   UNL     1      45.409   4.020   8.711  0.00  0.00    +0.000 C 
ATOM     10  N   UNL     1      44.562   3.657   9.737  0.00  0.00    +0.000 N 
ATOM     11  H   UNL     1      44.574   2.714  10.103  0.00  0.00    +0.000 HD
BRANCH   9  12
ATOM     12  C   UNL     1      46.117   2.926   7.999  0.00  0.00    +0.000 A 
ATOM     13  C   UNL     1      46.854   3.248   6.859  0.00  0.00    +0.000 A 
ATOM     14  C   UNL     1      47.488   2.225   6.184  0.00  0.00    +0.000 A 
ATOM     15  N   UNL     1      47.425   0.930   6.562  0.00  0.00    +0.000 NA
ATOM     16  C   UNL     1      46.688   0.644   7.656  0.00  0.00    +0.000 A 
ATOM     17  C   UNL     1      46.021   1.597   8.408  0.00  0.00    +0.000 A 
ENDBRANCH   9  12
ENDBRANCH   7  10
ENDBRANCH   1   7
BRANCH   4  18
ATOM     18  C   UNL     1      47.640   7.610  13.918  0.00  0.00    +0.000 C 
BRANCH  18  19
ATOM     19  N   UNL     1      48.458   6.713  14.693  0.00  0.00    +0.000 N 
ATOM     20  C   UNL     1      48.898   7.064  15.946  0.00  0.00    +0.000 C 
ATOM     21  O   UNL     1      48.575   8.125  16.473  0.00  0.00    +0.000 OA
ATOM     22  H   UNL     1      48.915   5.955  14.197  0.00  0.00    +0.000 HD
BRANCH  20  23
ATOM     23  C   UNL     1      49.724   6.078  16.655  0.00  0.00    +0.000 A 
ATOM     24  C   UNL     1      49.112   5.068  17.387  0.00  0.00    +0.000 A 
ATOM     25  S   UNL     1      50.210   3.978  18.103  0.00  0.00    +0.000 S 
ATOM     26  C   UNL     1      51.545   4.847  17.505  0.00  0.00    +0.000 A 
ATOM     27  N   UNL     1      52.818   4.451  17.781  0.00  0.00    +0.000 NA
ATOM     28  C   UNL     1      53.733   5.221  17.296  0.00  0.00    +0.000 A 
ATOM     29  N   UNL     1      53.492   6.349  16.554  0.00  0.00    +0.000 N 
ATOM     30  C   UNL     1      52.226   6.770  16.225  0.00  0.00    +0.000 A 
ATOM     31  O   UNL     1      52.045   7.761  15.524  0.00  0.00    +0.000 OA
ATOM     32  C   UNL     1      51.159   5.945  16.757  0.00  0.00    +0.000 A 
ATOM     33  H   UNL     1      54.255   6.905  16.196  0.00  0.00    +0.000 HD
ENDBRANCH  20  23
ENDBRANCH  18  19
ENDBRANCH   4  18
TORSDOF 6
ENDMDL
MODEL 4
REMARK VINA RESULT:    -7.253      3.205      8.812
REMARK INTER + INTRA:         -10.518
REMARK INTER:                  -9.511
REMARK INTRA:                  -1.007
REMARK UNBOUND:                -0.720
REMARK  Name = 
REMARK  6 active torsions:
REMARK  status: ('A' for Active; 'I' for Inactive)
REMARK    1  A    between atoms: C_2  and  C_25
REMARK    2  A    between atoms: N_3  and  C_4
REMARK    3  A    between atoms: C_4  and  C_5
REMARK    4  A    between atoms: C_8  and  C_9
REMARK    5  A    between atoms: C_9  and  N_10
REMARK    6  A    between atoms: C_11  and  C_13
REMARK                            x       y       z     vdW  Elec       q    Type
REMARK                         _______ _______ _______ _____ _____    ______ ____
ROOT
ATOM      1  C   UNL     1      50.179   7.288  15.512  0.00  0.00    +0.000 A 
ATOM      2  C   UNL     1      50.590   8.060  14.415  0.00  0.00    +0.000 A 
ATOM      3  C   UNL     1      49.778   8.177  13.282  0.00  0.00    +0.000 A 
ATOM      4  C   UNL     1      48.530   7.542  13.230  0.00  0.00    +0.000 A 
ATOM      5  C   UNL     1      48.124   6.764  14.322  0.00  0.00    +0.000 A 
ATOM      6  C   UNL     1      48.935   6.648  15.456  0.00  0.00    +0.000 A 
ENDROOT
BRANCH   1   7
ATOM      7  C   UNL     1      51.058   7.154  16.726  0.00  0.00    +0.000 C 
BRANCH   7  10
ATOM      8  O   UNL     1      50.162   5.283  18.564  0.00  0.00    +0.000 OA
ATOM      9  C   UNL     1      51.069   4.964  17.801  0.00  0.00    +0.000 C 
ATOM     10  N   UNL     1      51.602   5.822  16.862  0.00  0.00    +0.000 N 
ATOM     11  H   UNL     1      52.193   5.468  16.122  0.00  0.00    +0.000 HD
BRANCH   9  12
ATOM     12  C   UNL     1      51.614   3.584  17.842  0.00  0.00    +0.000 A 
ATOM     13  C   UNL     1      50.803   2.540  17.392  0.00  0.00    +0.000 A 
ATOM     14  C   UNL     1      51.303   1.255  17.457  0.00  0.00    +0.000 A 
ATOM     15  N   UNL     1      52.527   0.953  17.941  0.00  0.00    +0.000 NA
ATOM     16  C   UNL     1      53.280   1.980  18.389  0.00  0.00    +0.000 A 
ATOM     17  C   UNL     1      52.878   3.304  18.360  0.00  0.00    +0.000 A 
ENDBRANCH   9  12
ENDBRANCH   7  10
ENDBRANCH   1   7
BRANCH   4  18
ATOM     18  C   UNL     1      47.650   7.661  12.012  0.00  0.00    +0.000 C 
BRANCH  18  19
ATOM     19  N   UNL     1      46.947   6.432  11.743  0.00  0.00    +0.000 N 
ATOM     20  C   UNL     1      45.580   6.362  11.856  0.00  0.00    +0.000 C 
ATOM     21  O   UNL     1      44.902   7.346  12.138  0.00  0.00    +0.000 OA
ATOM     22  H   UNL     1      47.492   5.576  11.738  0.00  0.00    +0.000 HD
BRANCH  20  23
ATOM     23  C   UNL     1      44.959   5.065  11.559  0.00  0.00    +0.000 A 
ATOM     24  C   UNL     1      44.270   4.389  12.558  0.00  0.00    +0.000 A 
ATOM     25  S   UNL     1      43.564   2.926  12.035  0.00  0.00    +0.000 S 
ATOM     26  C   UNL     1      44.199   3.118  10.468  0.00  0.00    +0.000 A 
ATOM     27  N   UNL     1      43.982   2.180   9.506  0.00  0.00    +0.000 NA
ATOM     28  C   UNL     1      44.551   2.435   8.376  0.00  0.00    +0.000 A 
ATOM     29  N   UNL     1      45.314   3.544   8.117  0.00  0.00    +0.000 N 
ATOM     30  C   UNL     1      45.535   4.532   9.048  0.00  0.00    +0.000 A 
ATOM     31  O   UNL     1      46.188   5.533   8.772  0.00  0.00    +0.000 OA
ATOM     32  C   UNL     1      44.927   4.288  10.341  0.00  0.00    +0.000 A 
ATOM     33  H   UNL     1      45.726   3.688   7.207  0.00  0.00    +0.000 HD
ENDBRANCH  20  23
ENDBRANCH  18  19
ENDBRANCH   4  18
TORSDOF 6
ENDMDL
MODEL 5
REMARK VINA RESULT:    -7.189      4.125      6.927
REMARK INTER + INTRA:         -10.431
REMARK INTER:                  -9.434
REMARK INTRA:                  -0.997
REMARK UNBOUND:                -0.720
REMARK  Name = 
REMARK  6 active torsions:
REMARK  status: ('A' for Active; 'I' for Inactive)
REMARK    1  A    between atoms: C_2  and  C_25
REMARK    2  A    between atoms: N_3  and  C_4
REMARK    3  A    between atoms: C_4  and  C_5
REMARK    4  A    between atoms: C_8  and  C_9
REMARK    5  A    between atoms: C_9  and  N_10
REMARK    6  A    between atoms: C_11  and  C_13
REMARK                            x       y       z     vdW  Elec       q    Type
REMARK                         _______ _______ _______ _____ _____    ______ ____
ROOT
ATOM      1  C   UNL     1      44.914   9.249  11.909  0.00  0.00    +0.000 A 
ATOM      2  C   UNL     1      44.330   8.088  11.383  0.00  0.00    +0.000 A 
ATOM      3  C   UNL     1      44.803   6.823  11.749  0.00  0.00    +0.000 A 
ATOM      4  C   UNL     1      45.858   6.693  12.663  0.00  0.00    +0.000 A 
ATOM      5  C   UNL     1      46.447   7.854  13.180  0.00  0.00    +0.000 A 
ATOM      6  C   UNL     1      45.972   9.118  12.816  0.00  0.00    +0.000 A 
ENDROOT
BRANCH   1   7
ATOM      7  C   UNL     1      44.411  10.609  11.507  0.00  0.00    +0.000 C 
BRANCH   7  10
ATOM      8  O   UNL     1      42.122  10.631   9.945  0.00  0.00    +0.000 OA
ATOM      9  C   UNL     1      42.009  10.841  11.149  0.00  0.00    +0.000 C 
ATOM     10  N   UNL     1      43.083  10.872  12.014  0.00  0.00    +0.000 N 
ATOM     11  H   UNL     1      42.936  10.840  13.014  0.00  0.00    +0.000 HD
BRANCH   9  12
ATOM     12  C   UNL     1      40.661  11.040  11.737  0.00  0.00    +0.000 A 
ATOM     13  C   UNL     1      40.517  11.984  12.755  0.00  0.00    +0.000 A 
ATOM     14  C   UNL     1      39.267  12.147  13.318  0.00  0.00    +0.000 A 
ATOM     15  N   UNL     1      38.181  11.436  12.945  0.00  0.00    +0.000 NA
ATOM     16  C   UNL     1      38.355  10.514  11.974  0.00  0.00    +0.000 A 
ATOM     17  C   UNL     1      39.562  10.280  11.338  0.00  0.00    +0.000 A 
ENDBRANCH   9  12
ENDBRANCH   7  10
ENDBRANCH   1   7
BRANCH   4  18
ATOM     18  C   UNL     1      46.376   5.335  13.060  0.00  0.00    +0.000 C 
BRANCH  18  19
ATOM     19  N   UNL     1      46.907   5.341  14.400  0.00  0.00    +0.000 N 
ATOM     20  C   UNL     1      47.351   4.182  14.988  0.00  0.00    +0.000 C 
ATOM     21  O   UNL     1      47.361   3.113  14.386  0.00  0.00    +0.000 OA
ATOM     22  H   UNL     1      46.696   6.147  14.980  0.00  0.00    +0.000 HD
BRANCH  20  23
ATOM     23  C   UNL     1      47.876   4.296  16.355  0.00  0.00    +0.000 A 
ATOM     24  C   UNL     1      47.392   3.454  17.348  0.00  0.00    +0.000 A 
ATOM     25  S   UNL     1      48.143   3.678  18.863  0.00  0.00    +0.000 S 
ATOM     26  C   UNL     1      49.105   4.945  18.259  0.00  0.00    +0.000 A 
ATOM     27  N   UNL     1      49.978   5.606  19.067  0.00  0.00    +0.000 NA
ATOM     28  C   UNL     1      50.617   6.566  18.487  0.00  0.00    +0.000 A 
ATOM     29  N   UNL     1      50.467   6.923  17.173  0.00  0.00    +0.000 N 
ATOM     30  C   UNL     1      49.620   6.265  16.312  0.00  0.00    +0.000 A 
ATOM     31  O   UNL     1      49.539   6.582  15.130  0.00  0.00    +0.000 OA
ATOM     32  C   UNL     1      48.868   5.183  16.917  0.00  0.00    +0.000 A 
ATOM     33  H   UNL     1      51.004   7.681  16.777  0.00  0.00    +0.000 HD
ENDBRANCH  20  23
ENDBRANCH  18  19
ENDBRANCH   4  18
TORSDOF 6
ENDMDL
MODEL 6
REMARK VINA RESULT:    -7.003      2.768      4.012
REMARK INTER + INTRA:         -10.180
REMARK INTER:                  -9.373
REMARK INTRA:                  -0.807
REMARK UNBOUND:                -0.720
REMARK  Name = 
REMARK  6 active torsions:
REMARK  status: ('A' for Active; 'I' for Inactive)
REMARK    1  A    between atoms: C_2  and  C_25
REMARK    2  A    between atoms: N_3  and  C_4
REMARK    3  A    between atoms: C_4  and  C_5
REMARK    4  A    between atoms: C_8  and  C_9
REMARK    5  A    between atoms: C_9  and  N_10
REMARK    6  A    between atoms: C_11  and  C_13
REMARK                            x       y       z     vdW  Elec       q    Type
REMARK                         _______ _______ _______ _____ _____    ______ ____
ROOT
ATOM      1  C   UNL     1      45.137   5.059  11.497  0.00  0.00    +0.000 A 
ATOM      2  C   UNL     1      45.804   6.288  11.606  0.00  0.00    +0.000 A 
ATOM      3  C   UNL     1      46.654   6.543  12.688  0.00  0.00    +0.000 A 
ATOM      4  C   UNL     1      46.871   5.568  13.671  0.00  0.00    +0.000 A 
ATOM      5  C   UNL     1      46.197   4.344  13.565  0.00  0.00    +0.000 A 
ATOM      6  C   UNL     1      45.348   4.088  12.483  0.00  0.00    +0.000 A 
ENDROOT
BRANCH   1   7
ATOM      7  C   UNL     1      44.213   4.789  10.339  0.00  0.00    +0.000 C 
BRANCH   7  10
ATOM      8  O   UNL     1      46.089   5.314   8.367  0.00  0.00    +0.000 OA
ATOM      9  C   UNL     1      45.690   4.161   8.501  0.00  0.00    +0.000 C 
ATOM     10  N   UNL     1      44.746   3.793   9.437  0.00  0.00    +0.000 N 
ATOM     11  H   UNL     1      44.597   2.818   9.658  0.00  0.00    +0.000 HD
BRANCH   9  12
ATOM     12  C   UNL     1      46.259   3.083   7.655  0.00  0.00    +0.000 A 
ATOM     13  C   UNL     1      46.632   3.398   6.347  0.00  0.00    +0.000 A 
ATOM     14  C   UNL     1      47.136   2.386   5.553  0.00  0.00    +0.000 A 
ATOM     15  N   UNL     1      47.278   1.110   5.971  0.00  0.00    +0.000 NA
ATOM     16  C   UNL     1      46.890   0.830   7.233  0.00  0.00    +0.000 A 
ATOM     17  C   UNL     1      46.382   1.772   8.112  0.00  0.00    +0.000 A 
ENDBRANCH   9  12
ENDBRANCH   7  10
ENDBRANCH   1   7
BRANCH   4  18
ATOM     18  C   UNL     1      47.783   5.835  14.840  0.00  0.00    +0.000 C 
BRANCH  18  19
ATOM     19  N   UNL     1      48.100   7.236  14.956  0.00  0.00    +0.000 N 
ATOM     20  C   UNL     1      49.398   7.656  15.114  0.00  0.00    +0.000 C 
ATOM     21  O   UNL     1      50.338   6.867  15.112  0.00  0.00    +0.000 OA
ATOM     22  H   UNL     1      47.339   7.866  15.189  0.00  0.00    +0.000 HD
BRANCH  20  23
ATOM     23  C   UNL     1      49.615   9.104  15.221  0.00  0.00    +0.000 A 
ATOM     24  C   UNL     1      49.656   9.879  14.069  0.00  0.00    +0.000 A 
ATOM     25  S   UNL     1      49.860  11.546  14.371  0.00  0.00    +0.000 S 
ATOM     26  C   UNL     1      49.954  11.285  16.050  0.00  0.00    +0.000 A 
ATOM     27  N   UNL     1      50.153  12.322  16.908  0.00  0.00    +0.000 NA
ATOM     28  C   UNL     1      50.240  11.977  18.149  0.00  0.00    +0.000 A 
ATOM     29  N   UNL     1      50.141  10.690  18.611  0.00  0.00    +0.000 N 
ATOM     30  C   UNL     1      49.910   9.616  17.785  0.00  0.00    +0.000 A 
ATOM     31  O   UNL     1      49.785   8.481  18.234  0.00  0.00    +0.000 OA
ATOM     32  C   UNL     1      49.817   9.947  16.377  0.00  0.00    +0.000 A 
ATOM     33  H   UNL     1      50.210  10.488  19.598  0.00  0.00    +0.000 HD
ENDBRANCH  20  23
ENDBRANCH  18  19
ENDBRANCH   4  18
TORSDOF 6
ENDMDL
MODEL 7
REMARK VINA RESULT:    -6.846      4.921      7.739
REMARK INTER + INTRA:          -9.967
REMARK INTER:                  -9.049
REMARK INTRA:                  -0.918
REMARK UNBOUND:                -0.720
REMARK  Name = 
REMARK  6 active torsions:
REMARK  status: ('A' for Active; 'I' for Inactive)
REMARK    1  A    between atoms: C_2  and  C_25
REMARK    2  A    between atoms: N_3  and  C_4
REMARK    3  A    between atoms: C_4  and  C_5
REMARK    4  A    between atoms: C_8  and  C_9
REMARK    5  A    between atoms: C_9  and  N_10
REMARK    6  A    between atoms: C_11  and  C_13
REMARK                            x       y       z     vdW  Elec       q    Type
REMARK                         _______ _______ _______ _____ _____    ______ ____
ROOT
ATOM      1  C   UNL     1      50.786   8.912  11.149  0.00  0.00    +0.000 A 
ATOM      2  C   UNL     1      50.310   7.622  11.423  0.00  0.00    +0.000 A 
ATOM      3  C   UNL     1      49.029   7.433  11.955  0.00  0.00    +0.000 A 
ATOM      4  C   UNL     1      48.192   8.529  12.205  0.00  0.00    +0.000 A 
ATOM      5  C   UNL     1      48.673   9.818  11.939  0.00  0.00    +0.000 A 
ATOM      6  C   UNL     1      49.952  10.007  11.406  0.00  0.00    +0.000 A 
ENDROOT
BRANCH   1   7
ATOM      7  C   UNL     1      52.168   9.114  10.586  0.00  0.00    +0.000 C 
BRANCH   7  10
ATOM      8  O   UNL     1      54.490   7.685  10.093  0.00  0.00    +0.000 OA
ATOM      9  C   UNL     1      53.585   7.632   9.265  0.00  0.00    +0.000 C 
ATOM     10  N   UNL     1      52.397   8.318   9.401  0.00  0.00    +0.000 N 
ATOM     11  H   UNL     1      51.604   8.092   8.816  0.00  0.00    +0.000 HD
BRANCH   9  12
ATOM     12  C   UNL     1      53.734   6.769   8.067  0.00  0.00    +0.000 A 
ATOM     13  C   UNL     1      54.217   7.347   6.892  0.00  0.00    +0.000 A 
ATOM     14  C   UNL     1      54.329   6.547   5.772  0.00  0.00    +0.000 A 
ATOM     15  N   UNL     1      53.987   5.241   5.750  0.00  0.00    +0.000 NA
ATOM     16  C   UNL     1      53.503   4.714   6.895  0.00  0.00    +0.000 A 
ATOM     17  C   UNL     1      53.361   5.426   8.074  0.00  0.00    +0.000 A 
ENDBRANCH   9  12
ENDBRANCH   7  10
ENDBRANCH   1   7
BRANCH   4  18
ATOM     18  C   UNL     1      46.813   8.336  12.780  0.00  0.00    +0.000 C 
BRANCH  18  19
ATOM     19  N   UNL     1      46.319   7.004  12.536  0.00  0.00    +0.000 N 
ATOM     20  C   UNL     1      45.210   6.796  11.752  0.00  0.00    +0.000 C 
ATOM     21  O   UNL     1      44.630   7.721  11.192  0.00  0.00    +0.000 OA
ATOM     22  H   UNL     1      46.634   6.270  13.162  0.00  0.00    +0.000 HD
BRANCH  20  23
ATOM     23  C   UNL     1      44.789   5.402  11.564  0.00  0.00    +0.000 A 
ATOM     24  C   UNL     1      44.114   4.744  12.585  0.00  0.00    +0.000 A 
ATOM     25  S   UNL     1      43.648   3.153  12.185  0.00  0.00    +0.000 S 
ATOM     26  C   UNL     1      44.378   3.267  10.653  0.00  0.00    +0.000 A 
ATOM     27  N   UNL     1      44.363   2.214   9.791  0.00  0.00    +0.000 NA
ATOM     28  C   UNL     1      44.983   2.426   8.679  0.00  0.00    +0.000 A 
ATOM     29  N   UNL     1      45.614   3.596   8.348  0.00  0.00    +0.000 N 
ATOM     30  C   UNL     1      45.630   4.696   9.173  0.00  0.00    +0.000 A 
ATOM     31  O   UNL     1      46.168   5.744   8.830  0.00  0.00    +0.000 OA
ATOM     32  C   UNL     1      44.956   4.506  10.443  0.00  0.00    +0.000 A 
ATOM     33  H   UNL     1      46.077   3.701   7.456  0.00  0.00    +0.000 HD
ENDBRANCH  20  23
ENDBRANCH  18  19
ENDBRANCH   4  18
TORSDOF 6
ENDMDL
MODEL 8
REMARK VINA RESULT:    -6.839      5.516      8.241
REMARK INTER + INTRA:          -9.957
REMARK INTER:                  -8.983
REMARK INTRA:                  -0.974
REMARK UNBOUND:                -0.720
REMARK  Name = 
REMARK  6 active torsions:
REMARK  status: ('A' for Active; 'I' for Inactive)
REMARK    1  A    between atoms: C_2  and  C_25
REMARK    2  A    between atoms: N_3  and  C_4
REMARK    3  A    between atoms: C_4  and  C_5
REMARK    4  A    between atoms: C_8  and  C_9
REMARK    5  A    between atoms: C_9  and  N_10
REMARK    6  A    between atoms: C_11  and  C_13
REMARK                            x       y       z     vdW  Elec       q    Type
REMARK                         _______ _______ _______ _____ _____    ______ ____
ROOT
ATOM      1  C   UNL     1      48.990   6.899  13.907  0.00  0.00    +0.000 A 
ATOM      2  C   UNL     1      48.885   6.988  12.511  0.00  0.00    +0.000 A 
ATOM      3  C   UNL     1      49.819   7.722  11.771  0.00  0.00    +0.000 A 
ATOM      4  C   UNL     1      50.888   8.365  12.410  0.00  0.00    +0.000 A 
ATOM      5  C   UNL     1      50.986   8.282  13.805  0.00  0.00    +0.000 A 
ATOM      6  C   UNL     1      50.054   7.548  14.545  0.00  0.00    +0.000 A 
ENDROOT
BRANCH   1   7
ATOM      7  C   UNL     1      47.978   6.119  14.703  0.00  0.00    +0.000 C 
BRANCH   7  10
ATOM      8  O   UNL     1      47.279   3.632  13.699  0.00  0.00    +0.000 OA
ATOM      9  C   UNL     1      46.516   4.574  13.509  0.00  0.00    +0.000 C 
ATOM     10  N   UNL     1      46.774   5.855  13.947  0.00  0.00    +0.000 N 
ATOM     11  H   UNL     1      46.041   6.551  13.957  0.00  0.00    +0.000 HD
BRANCH   9  12
ATOM     12  C   UNL     1      45.228   4.346  12.807  0.00  0.00    +0.000 A 
ATOM     13  C   UNL     1      45.112   3.223  11.987  0.00  0.00    +0.000 A 
ATOM     14  C   UNL     1      43.922   3.028  11.314  0.00  0.00    +0.000 A 
ATOM     15  N   UNL     1      42.870   3.870  11.400  0.00  0.00    +0.000 NA
ATOM     16  C   UNL     1      43.017   4.960  12.184  0.00  0.00    +0.000 A 
ATOM     17  C   UNL     1      44.164   5.242  12.907  0.00  0.00    +0.000 A 
ENDBRANCH   9  12
ENDBRANCH   7  10
ENDBRANCH   1   7
BRANCH   4  18
ATOM     18  C   UNL     1      51.897   9.159  11.621  0.00  0.00    +0.000 C 
BRANCH  18  19
ATOM     19  N   UNL     1      52.107   8.597  10.311  0.00  0.00    +0.000 N 
ATOM     20  C   UNL     1      53.233   8.899   9.586  0.00  0.00    +0.000 C 
ATOM     21  O   UNL     1      54.124   9.612  10.039  0.00  0.00    +0.000 OA
ATOM     22  H   UNL     1      51.298   8.205   9.838  0.00  0.00    +0.000 HD
BRANCH  20  23
ATOM     23  C   UNL     1      53.354   8.274   8.262  0.00  0.00    +0.000 A 
ATOM     24  C   UNL     1      53.301   9.065   7.122  0.00  0.00    +0.000 A 
ATOM     25  S   UNL     1      53.510   8.193   5.671  0.00  0.00    +0.000 S 
ATOM     26  C   UNL     1      53.625   6.718   6.512  0.00  0.00    +0.000 A 
ATOM     27  N   UNL     1      53.791   5.544   5.845  0.00  0.00    +0.000 NA
ATOM     28  C   UNL     1      53.827   4.500   6.604  0.00  0.00    +0.000 A 
ATOM     29  N   UNL     1      53.717   4.524   7.970  0.00  0.00    +0.000 N 
ATOM     30  C   UNL     1      53.579   5.687   8.688  0.00  0.00    +0.000 A 
ATOM     31  O   UNL     1      53.525   5.678   9.914  0.00  0.00    +0.000 OA
ATOM     32  C   UNL     1      53.521   6.891   7.881  0.00  0.00    +0.000 A 
ATOM     33  H   UNL     1      53.761   3.670   8.508  0.00  0.00    +0.000 HD
ENDBRANCH  20  23
ENDBRANCH  18  19
ENDBRANCH   4  18
TORSDOF 6
ENDMDL
MODEL 9
REMARK VINA RESULT:    -6.684      3.039      4.454
REMARK INTER + INTRA:          -9.748
REMARK INTER:                  -8.785
REMARK INTRA:                  -0.963
REMARK UNBOUND:                -0.720
REMARK  Name = 
REMARK  6 active torsions:
REMARK  status: ('A' for Active; 'I' for Inactive)
REMARK    1  A    between atoms: C_2  and  C_25
REMARK    2  A    between atoms: N_3  and  C_4
REMARK    3  A    between atoms: C_4  and  C_5
REMARK    4  A    between atoms: C_8  and  C_9
REMARK    5  A    between atoms: C_9  and  N_10
REMARK    6  A    between atoms: C_11  and  C_13
REMARK                            x       y       z     vdW  Elec       q    Type
REMARK                         _______ _______ _______ _____ _____    ______ ____
ROOT
ATOM      1  C   UNL     1      48.140   7.832  13.245  0.00  0.00    +0.000 A 
ATOM      2  C   UNL     1      47.684   8.821  14.130  0.00  0.00    +0.000 A 
ATOM      3  C   UNL     1      48.172   8.886  15.439  0.00  0.00    +0.000 A 
ATOM      4  C   UNL     1      49.140   7.976  15.885  0.00  0.00    +0.000 A 
ATOM      5  C   UNL     1      49.588   6.983  15.004  0.00  0.00    +0.000 A 
ATOM      6  C   UNL     1      49.102   6.919  13.694  0.00  0.00    +0.000 A 
ENDROOT
BRANCH   1   7
ATOM      7  C   UNL     1      47.606   7.757  11.840  0.00  0.00    +0.000 C 
BRANCH   7  10
ATOM      8  O   UNL     1      44.904   7.421  12.359  0.00  0.00    +0.000 OA
ATOM      9  C   UNL     1      45.528   6.480  11.877  0.00  0.00    +0.000 C 
ATOM     10  N   UNL     1      46.877   6.532  11.597  0.00  0.00    +0.000 N 
ATOM     11  H   UNL     1      47.308   5.825  11.017  0.00  0.00    +0.000 HD
BRANCH   9  12
ATOM     12  C   UNL     1      44.814   5.224  11.535  0.00  0.00    +0.000 A 
ATOM     13  C   UNL     1      44.105   4.571  12.544  0.00  0.00    +0.000 A 
ATOM     14  C   UNL     1      43.465   3.389  12.229  0.00  0.00    +0.000 A 
ATOM     15  N   UNL     1      43.497   2.827  11.001  0.00  0.00    +0.000 NA
ATOM     16  C   UNL     1      44.209   3.469  10.050  0.00  0.00    +0.000 A 
ATOM     17  C   UNL     1      44.878   4.663  10.260  0.00  0.00    +0.000 A 
ENDBRANCH   9  12
ENDBRANCH   7  10
ENDBRANCH   1   7
BRANCH   4  18
ATOM     18  C   UNL     1      49.670   8.037  17.295  0.00  0.00    +0.000 C 
BRANCH  18  19
ATOM     19  N   UNL     1      50.608   6.974  17.556  0.00  0.00    +0.000 N 
ATOM     20  C   UNL     1      50.264   5.911  18.353  0.00  0.00    +0.000 C 
ATOM     21  O   UNL     1      49.139   5.796  18.832  0.00  0.00    +0.000 OA
ATOM     22  H   UNL     1      51.587   7.162  17.367  0.00  0.00    +0.000 HD
BRANCH  20  23
ATOM     23  C   UNL     1      51.290   4.879  18.555  0.00  0.00    +0.000 A 
ATOM     24  C   UNL     1      52.428   5.178  19.293  0.00  0.00    +0.000 A 
ATOM     25  S   UNL     1      53.491   3.858  19.479  0.00  0.00    +0.000 S 
ATOM     26  C   UNL     1      52.494   2.853  18.535  0.00  0.00    +0.000 A 
ATOM     27  N   UNL     1      52.845   1.564  18.277  0.00  0.00    +0.000 NA
ATOM     28  C   UNL     1      52.015   0.928  17.519  0.00  0.00    +0.000 A 
ATOM     29  N   UNL     1      50.864   1.461  17.001  0.00  0.00    +0.000 N 
ATOM     30  C   UNL     1      50.454   2.747  17.259  0.00  0.00    +0.000 A 
ATOM     31  O   UNL     1      49.397   3.182  16.814  0.00  0.00    +0.000 OA
ATOM     32  C   UNL     1      51.358   3.511  18.097  0.00  0.00    +0.000 A 
ATOM     33  H   UNL     1      50.252   0.906  16.420  0.00  0.00    +0.000 HD
ENDBRANCH  20  23
ENDBRANCH  18  19
ENDBRANCH   4  18
TORSDOF 6
ENDMDL
