MODEL 1
REMARK VINA RESULT:    -7.912      0.000      0.000
REMARK INTER + INTRA:         -12.265
REMARK INTER:                 -11.150
REMARK INTRA:                  -1.116
REMARK UNBOUND:                -1.116
REMARK  Name = 
REMARK  9 active torsions:
REMARK  status: ('A' for Active; 'I' for Inactive)
REMARK    1  A    between atoms: C_1  and  C_2
REMARK    2  A    between atoms: C_2  and  N_3
REMARK    3  A    between atoms: C_2  and  C_11
REMARK    4  A    between atoms: N_3  and  C_4
REMARK    5  A    between atoms: C_4  and  C_5
REMARK    6  A    between atoms: C_14  and  C_15
REMARK    7  A    between atoms: C_15  and  N_16
REMARK    8  A    between atoms: N_16  and  C_17
REMARK    9  A    between atoms: C_18  and  C_20
REMARK                            x       y       z     vdW  Elec       q    Type
REMARK                         _______ _______ _______ _____ _____    ______ ____
ROOT
ATOM      1  C   UNL     1      45.386   5.391  11.647  0.00  0.00    +0.000 A 
ATOM      2  C   UNL     1      46.183   6.403  11.094  0.00  0.00    +0.000 A 
ATOM      3  C   UNL     1      47.297   6.907  11.779  0.00  0.00    +0.000 A 
ATOM      4  C   UNL     1      47.670   6.405  13.035  0.00  0.00    +0.000 A 
ATOM      5  C   UNL     1      46.912   5.357  13.571  0.00  0.00    +0.000 A 
ATOM      6  C   UNL     1      45.795   4.849  12.879  0.00  0.00    +0.000 A 
ENDROOT
BRANCH   1   8
ATOM      7  C   UNL     1      43.324   3.926  11.734  0.00  0.00    +0.000 C 
ATOM      8  C   UNL     1      44.073   5.016  10.949  0.00  0.00    +0.000 C 
BRANCH   8   9
ATOM      9  N   UNL     1      44.246   4.670   9.520  0.00  0.00    +0.000 NA
ATOM     10  H   UNL     1      43.418   4.987   9.014  0.00  0.00    +0.000 HD
BRANCH   9  11
ATOM     11  C   UNL     1      44.363   3.211   9.330  0.00  0.00    +0.000 C 
BRANCH  11  12
ATOM     12  C   UNL     1      45.462   2.758   8.394  0.00  0.00    +0.000 A 
ATOM     13  C   UNL     1      46.215   3.652   7.629  0.00  0.00    +0.000 A 
ATOM     14  C   UNL     1      47.285   3.166   6.891  0.00  0.00    +0.000 A 
ATOM     15  N   UNL     1      47.662   1.869   6.868  0.00  0.00    +0.000 NA
ATOM     16  C   UNL     1      46.939   1.020   7.624  0.00  0.00    +0.000 A 
ATOM     17  C   UNL     1      45.850   1.409   8.392  0.00  0.00    +0.000 A 
ENDBRANCH  11  12
ENDBRANCH   9  11
ENDBRANCH   8   9
ENDBRANCH   1   8
BRANCH   4  18
ATOM     18  C   UNL     1      48.900   6.946  13.745  0.00  0.00    +0.000 C 
BRANCH  18  19
ATOM     19  N   UNL     1      48.727   7.507  15.097  0.00  0.00    +0.000 N 
ATOM     20  C   UNL     1      48.074   8.804  15.230  0.00  0.00    +0.000 C 
ATOM     21  C   UNL     1      49.474   6.891  16.127  0.00  0.00    +0.000 C 
ATOM     22  O   UNL     1      50.169   5.904  15.888  0.00  0.00    +0.000 OA
BRANCH  21  23
ATOM     23  C   UNL     1      49.385   7.393  17.514  0.00  0.00    +0.000 A 
ATOM     24  C   UNL     1      49.963   8.576  17.952  0.00  0.00    +0.000 A 
ATOM     25  S   UNL     1      49.673   8.922  19.596  0.00  0.00    +0.000 S 
ATOM     26  C   UNL     1      48.629   7.591  19.747  0.00  0.00    +0.000 A 
ATOM     27  N   UNL     1      47.948   7.377  20.901  0.00  0.00    +0.000 NA
ATOM     28  C   UNL     1      47.144   6.368  20.862  0.00  0.00    +0.000 A 
ATOM     29  N   UNL     1      46.984   5.539  19.781  0.00  0.00    +0.000 N 
ATOM     30  C   UNL     1      47.751   5.639  18.638  0.00  0.00    +0.000 A 
ATOM     31  O   UNL     1      47.743   4.744  17.801  0.00  0.00    +0.000 OA
ATOM     32  C   UNL     1      48.584   6.832  18.589  0.00  0.00    +0.000 A 
ATOM     33  H   UNL     1      46.384   4.729  19.838  0.00  0.00    +0.000 HD
ENDBRANCH  21  23
ENDBRANCH  18  19
ENDBRANCH   4  18
TORSDOF 7
ENDMDL
MODEL 2
REMARK VINA RESULT:    -7.881      1.832      2.059
REMARK INTER + INTRA:         -12.222
REMARK INTER:                 -10.946
REMARK INTRA:                  -1.276
REMARK UNBOUND:                -1.116
REMARK  Name = 
REMARK  9 active torsions:
REMARK  status: ('A' for Active; 'I' for Inactive)
REMARK    1  A    between atoms: C_1  and  C_2
REMARK    2  A    between atoms: C_2  and  N_3
REMARK    3  A    between atoms: C_2  and  C_11
REMARK    4  A    between atoms: N_3  and  C_4
REMARK    5  A    between atoms: C_4  and  C_5
REMARK    6  A    between atoms: C_14  and  C_15
REMARK    7  A    between atoms: C_15  and  N_16
REMARK    8  A    between atoms: N_16  and  C_17
REMARK    9  A    between atoms: C_18  and  C_20
REMARK                            x       y       z     vdW  Elec       q    Type
REMARK                         _______ _______ _______ _____ _____    ______ ____
ROOT
ATOM      1  C   UNL     1      44.560   5.119  11.384  0.00  0.00    +0.000 A 
ATOM      2  C   UNL     1      45.670   5.476  10.606  0.00  0.00    +0.000 A 
ATOM      3  C   UNL     1      46.535   6.505  11.003  0.00  0.00    +0.000 A 
ATOM      4  C   UNL     1      46.336   7.203  12.204  0.00  0.00    +0.000 A 
ATOM      5  C   UNL     1      45.262   6.817  13.013  0.00  0.00    +0.000 A 
ATOM      6  C   UNL     1      44.395   5.780  12.614  0.00  0.00    +0.000 A 
ENDROOT
BRANCH   1   8
ATOM      7  C   UNL     1      43.410   2.888  11.711  0.00  0.00    +0.000 C 
ATOM      8  C   UNL     1      43.540   4.127  10.810  0.00  0.00    +0.000 C 
BRANCH   8   9
ATOM      9  N   UNL     1      43.795   3.777   9.394  0.00  0.00    +0.000 NA
ATOM     10  H   UNL     1      42.900   3.768   8.903  0.00  0.00    +0.000 HD
BRANCH   9  11
ATOM     11  C   UNL     1      44.393   2.432   9.273  0.00  0.00    +0.000 C 
BRANCH  11  12
ATOM     12  C   UNL     1      45.553   2.315   8.308  0.00  0.00    +0.000 A 
ATOM     13  C   UNL     1      46.131   3.425   7.689  0.00  0.00    +0.000 A 
ATOM     14  C   UNL     1      47.270   3.244   6.917  0.00  0.00    +0.000 A 
ATOM     15  N   UNL     1      47.873   2.050   6.726  0.00  0.00    +0.000 NA
ATOM     16  C   UNL     1      47.315   0.990   7.343  0.00  0.00    +0.000 A 
ATOM     17  C   UNL     1      46.176   1.069   8.132  0.00  0.00    +0.000 A 
ENDBRANCH  11  12
ENDBRANCH   9  11
ENDBRANCH   8   9
ENDBRANCH   1   8
BRANCH   4  18
ATOM     18  C   UNL     1      47.305   8.294  12.629  0.00  0.00    +0.000 C 
BRANCH  18  19
ATOM     19  N   UNL     1      48.010   8.132  13.912  0.00  0.00    +0.000 N 
ATOM     20  C   UNL     1      47.751   9.100  14.971  0.00  0.00    +0.000 C 
ATOM     21  C   UNL     1      49.103   7.235  13.913  0.00  0.00    +0.000 C 
ATOM     22  O   UNL     1      49.384   6.594  12.902  0.00  0.00    +0.000 OA
BRANCH  21  23
ATOM     23  C   UNL     1      49.888   7.019  15.147  0.00  0.00    +0.000 A 
ATOM     24  C   UNL     1      51.028   7.735  15.480  0.00  0.00    +0.000 A 
ATOM     25  S   UNL     1      51.712   7.293  16.978  0.00  0.00    +0.000 S 
ATOM     26  C   UNL     1      50.421   6.243  17.317  0.00  0.00    +0.000 A 
ATOM     27  N   UNL     1      50.341   5.616  18.518  0.00  0.00    +0.000 NA
ATOM     28  C   UNL     1      49.280   4.895  18.669  0.00  0.00    +0.000 A 
ATOM     29  N   UNL     1      48.310   4.725  17.714  0.00  0.00    +0.000 N 
ATOM     30  C   UNL     1      48.417   5.234  16.435  0.00  0.00    +0.000 A 
ATOM     31  O   UNL     1      47.654   4.864  15.551  0.00  0.00    +0.000 OA
ATOM     32  C   UNL     1      49.535   6.150  16.257  0.00  0.00    +0.000 A 
ATOM     33  H   UNL     1      47.536   4.097  17.874  0.00  0.00    +0.000 HD
ENDBRANCH  21  23
ENDBRANCH  18  19
ENDBRANCH   4  18
TORSDOF 7
ENDMDL
MODEL 3
REMARK VINA RESULT:    -7.574      1.378      2.142
REMARK INTER + INTRA:         -11.789
REMARK INTER:                 -10.637
REMARK INTRA:                  -1.152
REMARK UNBOUND:                -1.116
REMARK  Name = 
REMARK  9 active torsions:
REMARK  status: ('A' for Active; 'I' for Inactive)
REMARK    1  A    between atoms: C_1  and  C_2
REMARK    2  A    between atoms: C_2  and  N_3
REMARK    3  A    between atoms: C_2  and  C_11
REMARK    4  A    between atoms: N_3  and  C_4
REMARK    5  A    between atoms: C_4  and  C_5
REMARK    6  A    between atoms: C_14  and  C_15
REMARK    7  A    between atoms: C_15  and  N_16
REMARK    8  A    between atoms: N_16  and  C_17
REMARK    9  A    between atoms: C_18  and  C_20
REMARK                            x       y       z     vdW  Elec       q    Type
REMARK                         _______ _______ _______ _____ _____    ______ ____
ROOT
ATOM      1  C   UNL     1      45.404   5.249  11.625  0.00  0.00    +0.000 A 
ATOM      2  C   UNL     1      46.240   6.301  11.223  0.00  0.00    +0.000 A 
ATOM      3  C   UNL     1      47.304   6.731  12.027  0.00  0.00    +0.000 A 
ATOM      4  C   UNL     1      47.588   6.113  13.254  0.00  0.00    +0.000 A 
ATOM      5  C   UNL     1      46.793   5.027  13.638  0.00  0.00    +0.000 A 
ATOM      6  C   UNL     1      45.725   4.594  12.827  0.00  0.00    +0.000 A 
ENDROOT
BRANCH   1   8
ATOM      7  C   UNL     1      42.904   4.862  11.716  0.00  0.00    +0.000 C 
ATOM      8  C   UNL     1      44.141   4.951  10.807  0.00  0.00    +0.000 C 
BRANCH   8   9
ATOM      9  N   UNL     1      44.281   3.773   9.920  0.00  0.00    +0.000 NA
ATOM     10  H   UNL     1      44.917   3.112  10.368  0.00  0.00    +0.000 HD
BRANCH   9  11
ATOM     11  C   UNL     1      44.861   4.148   8.616  0.00  0.00    +0.000 C 
BRANCH  11  12
ATOM     12  C   UNL     1      45.816   3.143   8.010  0.00  0.00    +0.000 A 
ATOM     13  C   UNL     1      45.897   1.820   8.452  0.00  0.00    +0.000 A 
ATOM     14  C   UNL     1      46.708   0.931   7.760  0.00  0.00    +0.000 A 
ATOM     15  N   UNL     1      47.429   1.259   6.666  0.00  0.00    +0.000 NA
ATOM     16  C   UNL     1      47.329   2.533   6.239  0.00  0.00    +0.000 A 
ATOM     17  C   UNL     1      46.549   3.495   6.865  0.00  0.00    +0.000 A 
ENDBRANCH  11  12
ENDBRANCH   9  11
ENDBRANCH   8   9
ENDBRANCH   1   8
BRANCH   4  18
ATOM     18  C   UNL     1      48.767   6.577  14.094  0.00  0.00    +0.000 C 
BRANCH  18  19
ATOM     19  N   UNL     1      48.502   7.012  15.476  0.00  0.00    +0.000 N 
ATOM     20  C   UNL     1      48.268   8.430  15.722  0.00  0.00    +0.000 C 
ATOM     21  C   UNL     1      48.795   6.074  16.492  0.00  0.00    +0.000 C 
ATOM     22  O   UNL     1      49.186   4.944  16.203  0.00  0.00    +0.000 OA
BRANCH  21  23
ATOM     23  C   UNL     1      48.583   6.423  17.913  0.00  0.00    +0.000 A 
ATOM     24  C   UNL     1      47.476   6.035  18.653  0.00  0.00    +0.000 A 
ATOM     25  S   UNL     1      47.509   6.556  20.276  0.00  0.00    +0.000 S 
ATOM     26  C   UNL     1      49.079   7.180  20.099  0.00  0.00    +0.000 A 
ATOM     27  N   UNL     1      49.745   7.682  21.169  0.00  0.00    +0.000 NA
ATOM     28  C   UNL     1      50.950   8.067  20.909  0.00  0.00    +0.000 A 
ATOM     29  N   UNL     1      51.534   8.019  19.669  0.00  0.00    +0.000 N 
ATOM     30  C   UNL     1      50.851   7.642  18.530  0.00  0.00    +0.000 A 
ATOM     31  O   UNL     1      51.331   7.838  17.420  0.00  0.00    +0.000 OA
ATOM     32  C   UNL     1      49.530   7.087  18.792  0.00  0.00    +0.000 A 
ATOM     33  H   UNL     1      52.460   8.395  19.521  0.00  0.00    +0.000 HD
ENDBRANCH  21  23
ENDBRANCH  18  19
ENDBRANCH   4  18
TORSDOF 7
ENDMDL
MODEL 4
REMARK VINA RESULT:    -7.258      3.423      3.951
REMARK INTER + INTRA:         -11.344
REMARK INTER:                 -10.189
REMARK INTRA:                  -1.155
REMARK UNBOUND:                -1.116
REMARK  Name = 
REMARK  9 active torsions:
REMARK  status: ('A' for Active; 'I' for Inactive)
REMARK    1  A    between atoms: C_1  and  C_2
REMARK    2  A    between atoms: C_2  and  N_3
REMARK    3  A    between atoms: C_2  and  C_11
REMARK    4  A    between atoms: N_3  and  C_4
REMARK    5  A    between atoms: C_4  and  C_5
REMARK    6  A    between atoms: C_14  and  C_15
REMARK    7  A    between atoms: C_15  and  N_16
REMARK    8  A    between atoms: N_16  and  C_17
REMARK    9  A    between atoms: C_18  and  C_20
REMARK                            x       y       z     vdW  Elec       q    Type
REMARK                         _______ _______ _______ _____ _____    ______ ____
ROOT
ATOM      1  C   UNL     1      46.897   6.029  12.929  0.00  0.00    +0.000 A 
ATOM      2  C   UNL     1      47.451   7.296  13.159  0.00  0.00    +0.000 A 
ATOM      3  C   UNL     1      48.081   7.603  14.372  0.00  0.00    +0.000 A 
ATOM      4  C   UNL     1      48.200   6.650  15.396  0.00  0.00    +0.000 A 
ATOM      5  C   UNL     1      47.697   5.367  15.154  0.00  0.00    +0.000 A 
ATOM      6  C   UNL     1      47.067   5.059  13.932  0.00  0.00    +0.000 A 
ENDROOT
BRANCH   1   8
ATOM      7  C   UNL     1      45.222   7.059  11.335  0.00  0.00    +0.000 C 
ATOM      8  C   UNL     1      46.050   5.808  11.669  0.00  0.00    +0.000 C 
BRANCH   8   9
ATOM      9  N   UNL     1      45.225   4.578  11.725  0.00  0.00    +0.000 NA
ATOM     10  H   UNL     1      45.854   3.777  11.790  0.00  0.00    +0.000 HD
BRANCH   9  11
ATOM     11  C   UNL     1      44.413   4.421  10.502  0.00  0.00    +0.000 C 
BRANCH  11  12
ATOM     12  C   UNL     1      45.084   3.692   9.359  0.00  0.00    +0.000 A 
ATOM     13  C   UNL     1      45.757   4.358   8.333  0.00  0.00    +0.000 A 
ATOM     14  C   UNL     1      46.451   3.612   7.391  0.00  0.00    +0.000 A 
ATOM     15  N   UNL     1      46.530   2.263   7.403  0.00  0.00    +0.000 NA
ATOM     16  C   UNL     1      45.891   1.633   8.408  0.00  0.00    +0.000 A 
ATOM     17  C   UNL     1      45.169   2.290   9.394  0.00  0.00    +0.000 A 
ENDBRANCH  11  12
ENDBRANCH   9  11
ENDBRANCH   8   9
ENDBRANCH   1   8
BRANCH   4  18
ATOM     18  C   UNL     1      48.914   6.998  16.691  0.00  0.00    +0.000 C 
BRANCH  18  19
ATOM     19  N   UNL     1      50.203   6.340  16.969  0.00  0.00    +0.000 N 
ATOM     20  C   UNL     1      51.324   6.611  16.077  0.00  0.00    +0.000 C 
ATOM     21  C   UNL     1      50.170   5.270  17.892  0.00  0.00    +0.000 C 
ATOM     22  O   UNL     1      49.122   4.972  18.463  0.00  0.00    +0.000 OA
BRANCH  21  23
ATOM     23  C   UNL     1      51.408   4.533  18.222  0.00  0.00    +0.000 A 
ATOM     24  C   UNL     1      52.440   5.050  18.991  0.00  0.00    +0.000 A 
ATOM     25  S   UNL     1      53.733   3.965  19.235  0.00  0.00    +0.000 S 
ATOM     26  C   UNL     1      52.892   2.707  18.462  0.00  0.00    +0.000 A 
ATOM     27  N   UNL     1      53.411   1.453  18.424  0.00  0.00    +0.000 NA
ATOM     28  C   UNL     1      52.645   0.580  17.861  0.00  0.00    +0.000 A 
ATOM     29  N   UNL     1      51.421   0.857  17.308  0.00  0.00    +0.000 N 
ATOM     30  C   UNL     1      50.915   2.138  17.206  0.00  0.00    +0.000 A 
ATOM     31  O   UNL     1      49.940   2.369  16.500  0.00  0.00    +0.000 OA
ATOM     32  C   UNL     1      51.687   3.137  17.932  0.00  0.00    +0.000 A 
ATOM     33  H   UNL     1      50.899   0.140  16.827  0.00  0.00    +0.000 HD
ENDBRANCH  21  23
ENDBRANCH  18  19
ENDBRANCH   4  18
TORSDOF 7
ENDMDL
MODEL 5
REMARK VINA RESULT:    -7.056      3.821      5.015
REMARK INTER + INTRA:         -11.059
REMARK INTER:                  -9.861
REMARK INTRA:                  -1.198
REMARK UNBOUND:                -1.116
REMARK  Name = 
REMARK  9 active torsions:
REMARK  status: ('A' for Active; 'I' for Inactive)
REMARK    1  A    between atoms: C_1  and  C_2
REMARK    2  A    between atoms: C_2  and  N_3
REMARK    3  A    between atoms: C_2  and  C_11
REMARK    4  A    between atoms: N_3  and  C_4
REMARK    5  A    between atoms: C_4  and  C_5
REMARK    6  A    between atoms: C_14  and  C_15
REMARK    7  A    between atoms: C_15  and  N_16
REMARK    8  A    between atoms: N_16  and  C_17
REMARK    9  A    between atoms: C_18  and  C_20
REMARK                            x       y       z     vdW  Elec       q    Type
REMARK                         _______ _______ _______ _____ _____    ______ ____
ROOT
ATOM      1  C   UNL     1      44.760   5.016  11.573  0.00  0.00    +0.000 A 
ATOM      2  C   UNL     1      44.262   6.273  11.203  0.00  0.00    +0.000 A 
ATOM      3  C   UNL     1      44.723   7.446  11.816  0.00  0.00    +0.000 A 
ATOM      4  C   UNL     1      45.716   7.411  12.807  0.00  0.00    +0.000 A 
ATOM      5  C   UNL     1      46.257   6.165  13.144  0.00  0.00    +0.000 A 
ATOM      6  C   UNL     1      45.795   4.987  12.525  0.00  0.00    +0.000 A 
ENDROOT
BRANCH   1   8
ATOM      7  C   UNL     1      43.455   2.924  12.146  0.00  0.00    +0.000 C 
ATOM      8  C   UNL     1      44.085   3.756  11.017  0.00  0.00    +0.000 C 
BRANCH   8   9
ATOM      9  N   UNL     1      44.970   2.952  10.144  0.00  0.00    +0.000 NA
ATOM     10  H   UNL     1      45.903   2.942  10.559  0.00  0.00    +0.000 HD
BRANCH   9  11
ATOM     11  C   UNL     1      45.080   3.544   8.797  0.00  0.00    +0.000 C 
BRANCH  11  12
ATOM     12  C   UNL     1      45.987   2.814   7.831  0.00  0.00    +0.000 A 
ATOM     13  C   UNL     1      46.620   3.454   6.763  0.00  0.00    +0.000 A 
ATOM     14  C   UNL     1      47.533   2.740   6.000  0.00  0.00    +0.000 A 
ATOM     15  N   UNL     1      47.865   1.450   6.228  0.00  0.00    +0.000 NA
ATOM     16  C   UNL     1      47.260   0.849   7.271  0.00  0.00    +0.000 A 
ATOM     17  C   UNL     1      46.331   1.477   8.089  0.00  0.00    +0.000 A 
ENDBRANCH  11  12
ENDBRANCH   9  11
ENDBRANCH   8   9
ENDBRANCH   1   8
BRANCH   4  18
ATOM     18  C   UNL     1      46.221   8.699  13.435  0.00  0.00    +0.000 C 
BRANCH  18  19
ATOM     19  N   UNL     1      47.502   9.246  12.954  0.00  0.00    +0.000 N 
ATOM     20  C   UNL     1      47.550   9.822  11.616  0.00  0.00    +0.000 C 
ATOM     21  C   UNL     1      48.649   8.897  13.705  0.00  0.00    +0.000 C 
ATOM     22  O   UNL     1      48.542   8.228  14.731  0.00  0.00    +0.000 OA
BRANCH  21  23
ATOM     23  C   UNL     1      49.984   9.380  13.292  0.00  0.00    +0.000 A 
ATOM     24  C   UNL     1      50.664  10.416  13.916  0.00  0.00    +0.000 A 
ATOM     25  S   UNL     1      52.199  10.739  13.247  0.00  0.00    +0.000 S 
ATOM     26  C   UNL     1      52.085   9.402  12.205  0.00  0.00    +0.000 A 
ATOM     27  N   UNL     1      53.134   9.049  11.421  0.00  0.00    +0.000 NA
ATOM     28  C   UNL     1      52.938   7.981  10.723  0.00  0.00    +0.000 A 
ATOM     29  N   UNL     1      51.775   7.254  10.720  0.00  0.00    +0.000 N 
ATOM     30  C   UNL     1      50.639   7.651  11.398  0.00  0.00    +0.000 A 
ATOM     31  O   UNL     1      49.561   7.108  11.181  0.00  0.00    +0.000 OA
ATOM     32  C   UNL     1      50.850   8.781  12.291  0.00  0.00    +0.000 A 
ATOM     33  H   UNL     1      51.664   6.463  10.103  0.00  0.00    +0.000 HD
ENDBRANCH  21  23
ENDBRANCH  18  19
ENDBRANCH   4  18
TORSDOF 7
ENDMDL
MODEL 6
REMARK VINA RESULT:    -6.903      3.048      4.010
REMARK INTER + INTRA:         -10.843
REMARK INTER:                  -9.619
REMARK INTRA:                  -1.225
REMARK UNBOUND:                -1.116
REMARK  Name = 
REMARK  9 active torsions:
REMARK  status: ('A' for Active; 'I' for Inactive)
REMARK    1  A    between atoms: C_1  and  C_2
REMARK    2  A    between atoms: C_2  and  N_3
REMARK    3  A    between atoms: C_2  and  C_11
REMARK    4  A    between atoms: N_3  and  C_4
REMARK    5  A    between atoms: C_4  and  C_5
REMARK    6  A    between atoms: C_14  and  C_15
REMARK    7  A    between atoms: C_15  and  N_16
REMARK    8  A    between atoms: N_16  and  C_17
REMARK    9  A    between atoms: C_18  and  C_20
REMARK                            x       y       z     vdW  Elec       q    Type
REMARK                         _______ _______ _______ _____ _____    ______ ____
ROOT
ATOM      1  C   UNL     1      44.611   5.117  11.413  0.00  0.00    +0.000 A 
ATOM      2  C   UNL     1      45.594   5.522  10.498  0.00  0.00    +0.000 A 
ATOM      3  C   UNL     1      46.454   6.591  10.782  0.00  0.00    +0.000 A 
ATOM      4  C   UNL     1      46.381   7.284  12.001  0.00  0.00    +0.000 A 
ATOM      5  C   UNL     1      45.440   6.851  12.941  0.00  0.00    +0.000 A 
ATOM      6  C   UNL     1      44.577   5.774  12.655  0.00  0.00    +0.000 A 
ENDROOT
BRANCH   1   8
ATOM      7  C   UNL     1      43.577   2.862  11.914  0.00  0.00    +0.000 C 
ATOM      8  C   UNL     1      43.572   4.078  10.974  0.00  0.00    +0.000 C 
BRANCH   8   9
ATOM      9  N   UNL     1      43.692   3.694   9.548  0.00  0.00    +0.000 NA
ATOM     10  H   UNL     1      42.750   3.582   9.169  0.00  0.00    +0.000 HD
BRANCH   9  11
ATOM     11  C   UNL     1      44.398   2.408   9.396  0.00  0.00    +0.000 C 
BRANCH  11  12
ATOM     12  C   UNL     1      45.480   2.375   8.338  0.00  0.00    +0.000 A 
ATOM     13  C   UNL     1      45.875   3.512   7.631  0.00  0.00    +0.000 A 
ATOM     14  C   UNL     1      46.959   3.422   6.768  0.00  0.00    +0.000 A 
ATOM     15  N   UNL     1      47.676   2.295   6.569  0.00  0.00    +0.000 NA
ATOM     16  C   UNL     1      47.295   1.209   7.270  0.00  0.00    +0.000 A 
ATOM     17  C   UNL     1      46.224   1.199   8.153  0.00  0.00    +0.000 A 
ENDBRANCH  11  12
ENDBRANCH   9  11
ENDBRANCH   8   9
ENDBRANCH   1   8
BRANCH   4  18
ATOM     18  C   UNL     1      47.346   8.419  12.298  0.00  0.00    +0.000 C 
BRANCH  18  19
ATOM     19  N   UNL     1      48.634   8.085  12.932  0.00  0.00    +0.000 N 
ATOM     20  C   UNL     1      49.594   7.293  12.171  0.00  0.00    +0.000 C 
ATOM     21  C   UNL     1      48.715   8.296  14.327  0.00  0.00    +0.000 C 
ATOM     22  O   UNL     1      47.770   8.793  14.938  0.00  0.00    +0.000 OA
BRANCH  21  23
ATOM     23  C   UNL     1      49.958   7.972  15.058  0.00  0.00    +0.000 A 
ATOM     24  C   UNL     1      50.135   6.829  15.824  0.00  0.00    +0.000 A 
ATOM     25  S   UNL     1      51.682   6.701  16.531  0.00  0.00    +0.000 S 
ATOM     26  C   UNL     1      52.230   8.082  15.709  0.00  0.00    +0.000 A 
ATOM     27  N   UNL     1      53.529   8.465  15.795  0.00  0.00    +0.000 NA
ATOM     28  C   UNL     1      53.827   9.495  15.075  0.00  0.00    +0.000 A 
ATOM     29  N   UNL     1      52.934  10.190  14.301  0.00  0.00    +0.000 N 
ATOM     30  C   UNL     1      51.580   9.918  14.287  0.00  0.00    +0.000 A 
ATOM     31  O   UNL     1      50.791  10.703  13.774  0.00  0.00    +0.000 OA
ATOM     32  C   UNL     1      51.217   8.694  14.988  0.00  0.00    +0.000 A 
ATOM     33  H   UNL     1      53.219  11.024  13.810  0.00  0.00    +0.000 HD
ENDBRANCH  21  23
ENDBRANCH  18  19
ENDBRANCH   4  18
TORSDOF 7
ENDMDL
MODEL 7
REMARK VINA RESULT:    -6.577      4.737      8.427
REMARK INTER + INTRA:         -10.384
REMARK INTER:                  -9.158
REMARK INTRA:                  -1.226
REMARK UNBOUND:                -1.116
REMARK  Name = 
REMARK  9 active torsions:
REMARK  status: ('A' for Active; 'I' for Inactive)
REMARK    1  A    between atoms: C_1  and  C_2
REMARK    2  A    between atoms: C_2  and  N_3
REMARK    3  A    between atoms: C_2  and  C_11
REMARK    4  A    between atoms: N_3  and  C_4
REMARK    5  A    between atoms: C_4  and  C_5
REMARK    6  A    between atoms: C_14  and  C_15
REMARK    7  A    between atoms: C_15  and  N_16
REMARK    8  A    between atoms: N_16  and  C_17
REMARK    9  A    between atoms: C_18  and  C_20
REMARK                            x       y       z     vdW  Elec       q    Type
REMARK                         _______ _______ _______ _____ _____    ______ ____
ROOT
ATOM      1  C   UNL     1      51.089   8.817  12.541  0.00  0.00    +0.000 A 
ATOM      2  C   UNL     1      50.220   8.593  11.464  0.00  0.00    +0.000 A 
ATOM      3  C   UNL     1      48.861   8.320  11.671  0.00  0.00    +0.000 A 
ATOM      4  C   UNL     1      48.313   8.281  12.962  0.00  0.00    +0.000 A 
ATOM      5  C   UNL     1      49.162   8.557  14.040  0.00  0.00    +0.000 A 
ATOM      6  C   UNL     1      50.527   8.835  13.830  0.00  0.00    +0.000 A 
ENDROOT
BRANCH   1   8
ATOM      7  C   UNL     1      52.923  10.147  11.411  0.00  0.00    +0.000 C 
ATOM      8  C   UNL     1      52.596   8.915  12.271  0.00  0.00    +0.000 C 
BRANCH   8   9
ATOM      9  N   UNL     1      53.175   7.668  11.721  0.00  0.00    +0.000 NA
ATOM     10  H   UNL     1      53.813   7.280  12.417  0.00  0.00    +0.000 HD
BRANCH   9  11
ATOM     11  C   UNL     1      53.950   7.932  10.492  0.00  0.00    +0.000 C 
BRANCH  11  12
ATOM     12  C   UNL     1      53.469   7.218   9.248  0.00  0.00    +0.000 A 
ATOM     13  C   UNL     1      52.855   7.887   8.187  0.00  0.00    +0.000 A 
ATOM     14  C   UNL     1      52.557   7.179   7.031  0.00  0.00    +0.000 A 
ATOM     15  N   UNL     1      52.832   5.868   6.854  0.00  0.00    +0.000 NA
ATOM     16  C   UNL     1      53.440   5.238   7.879  0.00  0.00    +0.000 A 
ATOM     17  C   UNL     1      53.774   5.859   9.075  0.00  0.00    +0.000 A 
ENDBRANCH  11  12
ENDBRANCH   9  11
ENDBRANCH   8   9
ENDBRANCH   1   8
BRANCH   4  18
ATOM     18  C   UNL     1      46.830   8.013  13.160  0.00  0.00    +0.000 C 
BRANCH  18  19
ATOM     19  N   UNL     1      46.346   6.634  12.973  0.00  0.00    +0.000 N 
ATOM     20  C   UNL     1      47.107   5.545  13.576  0.00  0.00    +0.000 C 
ATOM     21  C   UNL     1      45.359   6.449  11.978  0.00  0.00    +0.000 C 
ATOM     22  O   UNL     1      44.905   7.414  11.365  0.00  0.00    +0.000 OA
BRANCH  21  23
ATOM     23  C   UNL     1      44.824   5.100  11.701  0.00  0.00    +0.000 A 
ATOM     24  C   UNL     1      44.031   4.381  12.583  0.00  0.00    +0.000 A 
ATOM     25  S   UNL     1      43.531   2.863  11.987  0.00  0.00    +0.000 S 
ATOM     26  C   UNL     1      44.218   3.176  10.465  0.00  0.00    +0.000 A 
ATOM     27  N   UNL     1      44.050   2.301   9.441  0.00  0.00    +0.000 NA
ATOM     28  C   UNL     1      44.570   2.687   8.325  0.00  0.00    +0.000 A 
ATOM     29  N   UNL     1      45.267   3.855   8.151  0.00  0.00    +0.000 N 
ATOM     30  C   UNL     1      45.576   4.708   9.193  0.00  0.00    +0.000 A 
ATOM     31  O   UNL     1      46.394   5.608   9.041  0.00  0.00    +0.000 OA
ATOM     32  C   UNL     1      44.909   4.375  10.444  0.00  0.00    +0.000 A 
ATOM     33  H   UNL     1      45.702   4.068   7.266  0.00  0.00    +0.000 HD
ENDBRANCH  21  23
ENDBRANCH  18  19
ENDBRANCH   4  18
TORSDOF 7
ENDMDL
MODEL 8
REMARK VINA RESULT:    -6.522      3.638      8.642
REMARK INTER + INTRA:         -10.307
REMARK INTER:                  -9.204
REMARK INTRA:                  -1.103
REMARK UNBOUND:                -1.116
REMARK  Name = 
REMARK  9 active torsions:
REMARK  status: ('A' for Active; 'I' for Inactive)
REMARK    1  A    between atoms: C_1  and  C_2
REMARK    2  A    between atoms: C_2  and  N_3
REMARK    3  A    between atoms: C_2  and  C_11
REMARK    4  A    between atoms: N_3  and  C_4
REMARK    5  A    between atoms: C_4  and  C_5
REMARK    6  A    between atoms: C_14  and  C_15
REMARK    7  A    between atoms: C_15  and  N_16
REMARK    8  A    between atoms: N_16  and  C_17
REMARK    9  A    between atoms: C_18  and  C_20
REMARK                            x       y       z     vdW  Elec       q    Type
REMARK                         _______ _______ _______ _____ _____    ______ ____
ROOT
ATOM      1  C   UNL     1      50.347   7.778  16.544  0.00  0.00    +0.000 A 
ATOM      2  C   UNL     1      50.563   7.294  15.246  0.00  0.00    +0.000 A 
ATOM      3  C   UNL     1      49.580   7.410  14.254  0.00  0.00    +0.000 A 
ATOM      4  C   UNL     1      48.350   8.034  14.514  0.00  0.00    +0.000 A 
ATOM      5  C   UNL     1      48.147   8.568  15.791  0.00  0.00    +0.000 A 
ATOM      6  C   UNL     1      49.138   8.453  16.787  0.00  0.00    +0.000 A 
ENDROOT
BRANCH   1   8
ATOM      7  C   UNL     1      52.699   6.978  17.026  0.00  0.00    +0.000 C 
ATOM      8  C   UNL     1      51.370   7.451  17.638  0.00  0.00    +0.000 C 
BRANCH   8   9
ATOM      9  N   UNL     1      50.854   6.517  18.665  0.00  0.00    +0.000 NA
ATOM     10  H   UNL     1      51.479   6.552  19.471  0.00  0.00    +0.000 HD
BRANCH   9  11
ATOM     11  C   UNL     1      50.834   5.128  18.167  0.00  0.00    +0.000 C 
BRANCH  11  12
ATOM     12  C   UNL     1      49.462   4.528  17.950  0.00  0.00    +0.000 A 
ATOM     13  C   UNL     1      48.284   5.234  18.205  0.00  0.00    +0.000 A 
ATOM     14  C   UNL     1      47.069   4.656  17.861  0.00  0.00    +0.000 A 
ATOM     15  N   UNL     1      46.945   3.443  17.279  0.00  0.00    +0.000 NA
ATOM     16  C   UNL     1      48.090   2.780  17.023  0.00  0.00    +0.000 A 
ATOM     17  C   UNL     1      49.350   3.272  17.332  0.00  0.00    +0.000 A 
ENDBRANCH  11  12
ENDBRANCH   9  11
ENDBRANCH   8   9
ENDBRANCH   1   8
BRANCH   4  18
ATOM     18  C   UNL     1      47.312   8.175  13.413  0.00  0.00    +0.000 C 
BRANCH  18  19
ATOM     19  N   UNL     1      46.877   6.954  12.712  0.00  0.00    +0.000 N 
ATOM     20  C   UNL     1      47.651   5.733  12.905  0.00  0.00    +0.000 C 
ATOM     21  C   UNL     1      45.931   7.134  11.678  0.00  0.00    +0.000 C 
ATOM     22  O   UNL     1      45.468   8.249  11.443  0.00  0.00    +0.000 OA
BRANCH  21  23
ATOM     23  C   UNL     1      45.447   5.972  10.901  0.00  0.00    +0.000 A 
ATOM     24  C   UNL     1      45.850   5.680   9.606  0.00  0.00    +0.000 A 
ATOM     25  S   UNL     1      45.152   4.262   8.967  0.00  0.00    +0.000 S 
ATOM     26  C   UNL     1      44.413   3.893  10.451  0.00  0.00    +0.000 A 
ATOM     27  N   UNL     1      43.737   2.728  10.613  0.00  0.00    +0.000 NA
ATOM     28  C   UNL     1      43.276   2.544  11.805  0.00  0.00    +0.000 A 
ATOM     29  N   UNL     1      43.408   3.437  12.839  0.00  0.00    +0.000 N 
ATOM     30  C   UNL     1      43.969   4.689  12.683  0.00  0.00    +0.000 A 
ATOM     31  O   UNL     1      43.854   5.537  13.560  0.00  0.00    +0.000 OA
ATOM     32  C   UNL     1      44.608   4.892  11.390  0.00  0.00    +0.000 A 
ATOM     33  H   UNL     1      42.970   3.259  13.730  0.00  0.00    +0.000 HD
ENDBRANCH  21  23
ENDBRANCH  18  19
ENDBRANCH   4  18
TORSDOF 7
ENDMDL
MODEL 9
REMARK VINA RESULT:    -6.266      3.574      8.224
REMARK INTER + INTRA:          -9.946
REMARK INTER:                  -7.960
REMARK INTRA:                  -1.986
REMARK UNBOUND:                -1.116
REMARK  Name = 
REMARK  9 active torsions:
REMARK  status: ('A' for Active; 'I' for Inactive)
REMARK    1  A    between atoms: C_1  and  C_2
REMARK    2  A    between atoms: C_2  and  N_3
REMARK    3  A    between atoms: C_2  and  C_11
REMARK    4  A    between atoms: N_3  and  C_4
REMARK    5  A    between atoms: C_4  and  C_5
REMARK    6  A    between atoms: C_14  and  C_15
REMARK    7  A    between atoms: C_15  and  N_16
REMARK    8  A    between atoms: N_16  and  C_17
REMARK    9  A    between atoms: C_18  and  C_20
REMARK                            x       y       z     vdW  Elec       q    Type
REMARK                         _______ _______ _______ _____ _____    ______ ____
ROOT
ATOM      1  C   UNL     1      51.892   6.741  17.608  0.00  0.00    +0.000 A 
ATOM      2  C   UNL     1      52.485   6.684  16.339  0.00  0.00    +0.000 A 
ATOM      3  C   UNL     1      51.882   7.288  15.228  0.00  0.00    +0.000 A 
ATOM      4  C   UNL     1      50.672   7.991  15.346  0.00  0.00    +0.000 A 
ATOM      5  C   UNL     1      50.102   8.099  16.619  0.00  0.00    +0.000 A 
ATOM      6  C   UNL     1      50.712   7.494  17.735  0.00  0.00    +0.000 A 
ENDROOT
BRANCH   1   8
ATOM      7  C   UNL     1      53.887   5.380  18.369  0.00  0.00    +0.000 C 
ATOM      8  C   UNL     1      52.489   5.900  18.744  0.00  0.00    +0.000 C 
BRANCH   8   9
ATOM      9  N   UNL     1      51.588   4.822  19.212  0.00  0.00    +0.000 NA
ATOM     10  H   UNL     1      52.062   4.314  19.960  0.00  0.00    +0.000 HD
BRANCH   9  11
ATOM     11  C   UNL     1      51.290   3.863  18.130  0.00  0.00    +0.000 C 
BRANCH  11  12
ATOM     12  C   UNL     1      49.826   3.690  17.791  0.00  0.00    +0.000 A 
ATOM     13  C   UNL     1      49.348   2.609  17.048  0.00  0.00    +0.000 A 
ATOM     14  C   UNL     1      47.977   2.460  16.888  0.00  0.00    +0.000 A 
ATOM     15  N   UNL     1      47.058   3.296  17.418  0.00  0.00    +0.000 NA
ATOM     16  C   UNL     1      47.532   4.325  18.147  0.00  0.00    +0.000 A 
ATOM     17  C   UNL     1      48.882   4.561  18.360  0.00  0.00    +0.000 A 
ENDBRANCH  11  12
ENDBRANCH   9  11
ENDBRANCH   8   9
ENDBRANCH   1   8
BRANCH   4  18
ATOM     18  C   UNL     1      50.053   8.664  14.132  0.00  0.00    +0.000 C 
BRANCH  18  19
ATOM     19  N   UNL     1      49.041   7.915  13.368  0.00  0.00    +0.000 N 
ATOM     20  C   UNL     1      49.441   7.295  12.110  0.00  0.00    +0.000 C 
ATOM     21  C   UNL     1      47.696   8.110  13.758  0.00  0.00    +0.000 C 
ATOM     22  O   UNL     1      47.424   8.820  14.724  0.00  0.00    +0.000 OA
BRANCH  21  23
ATOM     23  C   UNL     1      46.604   7.418  13.039  0.00  0.00    +0.000 A 
ATOM     24  C   UNL     1      45.765   8.033  12.122  0.00  0.00    +0.000 A 
ATOM     25  S   UNL     1      44.614   6.985  11.425  0.00  0.00    +0.000 S 
ATOM     26  C   UNL     1      45.297   5.635  12.197  0.00  0.00    +0.000 A 
ATOM     27  N   UNL     1      44.837   4.386  11.935  0.00  0.00    +0.000 NA
ATOM     28  C   UNL     1      45.482   3.446  12.542  0.00  0.00    +0.000 A 
ATOM     29  N   UNL     1      46.526   3.650  13.408  0.00  0.00    +0.000 N 
ATOM     30  C   UNL     1      46.939   4.906  13.805  0.00  0.00    +0.000 A 
ATOM     31  O   UNL     1      47.707   5.040  14.750  0.00  0.00    +0.000 OA
ATOM     32  C   UNL     1      46.322   5.993  13.057  0.00  0.00    +0.000 A 
ATOM     33  H   UNL     1      46.947   2.874  13.897  0.00  0.00    +0.000 HD
ENDBRANCH  21  23
ENDBRANCH  18  19
ENDBRANCH   4  18
TORSDOF 7
ENDMDL
