MODEL 1
REMARK VINA RESULT:    -8.663      0.000      0.000
REMARK INTER + INTRA:         -11.934
REMARK INTER:                 -11.195
REMARK INTRA:                  -0.740
REMARK UNBOUND:                -0.740
REMARK  Name = 
REMARK  5 active torsions:
REMARK  status: ('A' for Active; 'I' for Inactive)
REMARK    1  A    between atoms: C_2  and  C_18
REMARK    2  A    between atoms: N_3  and  C_4
REMARK    3  A    between atoms: C_4  and  C_5
REMARK    4  A    between atoms: C_8  and  C_9
REMARK    5  A    between atoms: C_9  and  C_10
REMARK                            x       y       z     vdW  Elec       q    Type
REMARK                         _______ _______ _______ _____ _____    ______ ____
ROOT
ATOM      1  O   UNL     1      48.557   6.806  12.768  0.00  0.00    +0.000 OA
ATOM      2  C   UNL     1      47.868   6.675  13.777  0.00  0.00    +0.000 C 
ATOM      3  N   UNL     1      46.503   6.800  13.759  0.00  0.00    +0.000 N 
ATOM      4  H   UNL     1      46.005   6.872  14.637  0.00  0.00    +0.000 HD
ENDROOT
BRANCH   2   5
ATOM      5  C   UNL     1      48.467   6.315  15.068  0.00  0.00    +0.000 A 
ATOM      6  C   UNL     1      49.469   7.106  15.611  0.00  0.00    +0.000 A 
ATOM      7  S   UNL     1      50.073   6.522  17.095  0.00  0.00    +0.000 S 
ATOM      8  C   UNL     1      48.977   5.220  17.091  0.00  0.00    +0.000 A 
ATOM      9  N   UNL     1      48.953   4.325  18.115  0.00  0.00    +0.000 NA
ATOM     10  C   UNL     1      48.049   3.411  18.005  0.00  0.00    +0.000 A 
ATOM     11  N   UNL     1      47.170   3.306  16.957  0.00  0.00    +0.000 N 
ATOM     12  C   UNL     1      47.210   4.138  15.864  0.00  0.00    +0.000 A 
ATOM     13  O   UNL     1      46.494   3.935  14.889  0.00  0.00    +0.000 OA
ATOM     14  C   UNL     1      48.182   5.211  15.960  0.00  0.00    +0.000 A 
ATOM     15  H   UNL     1      46.499   2.552  16.918  0.00  0.00    +0.000 HD
ENDBRANCH   2   5
BRANCH   3  16
ATOM     16  C   UNL     1      45.775   7.224  12.591  0.00  0.00    +0.000 C 
BRANCH  16  17
ATOM     17  C   UNL     1      45.489   6.062  11.676  0.00  0.00    +0.000 A 
ATOM     18  C   UNL     1      45.870   6.117  10.330  0.00  0.00    +0.000 A 
ATOM     19  C   UNL     1      45.613   5.044   9.473  0.00  0.00    +0.000 A 
ATOM     20  C   UNL     1      44.955   3.899   9.941  0.00  0.00    +0.000 A 
ATOM     21  C   UNL     1      44.555   3.852  11.284  0.00  0.00    +0.000 A 
ATOM     22  C   UNL     1      44.811   4.927  12.140  0.00  0.00    +0.000 A 
BRANCH  20  23
ATOM     23  C   UNL     1      44.663   2.750   9.008  0.00  0.00    +0.000 C 
BRANCH  23  24
ATOM     24  C   UNL     1      45.734   2.461   7.990  0.00  0.00    +0.000 A 
ATOM     25  C   UNL     1      45.994   3.332   6.928  0.00  0.00    +0.000 A 
ATOM     26  C   UNL     1      46.942   2.991   5.968  0.00  0.00    +0.000 A 
ATOM     27  C   UNL     1      47.613   1.788   6.105  0.00  0.00    +0.000 A 
ATOM     28  N   UNL     1      47.413   0.932   7.130  0.00  0.00    +0.000 NA
ATOM     29  C   UNL     1      46.486   1.290   8.049  0.00  0.00    +0.000 A 
ENDBRANCH  23  24
ENDBRANCH  20  23
ENDBRANCH  16  17
ENDBRANCH   3  16
TORSDOF 5
ENDMDL
MODEL 2
REMARK VINA RESULT:    -8.249      1.441      2.038
REMARK INTER + INTRA:         -11.400
REMARK INTER:                 -10.668
REMARK INTRA:                  -0.732
REMARK UNBOUND:                -0.740
REMARK  Name = 
REMARK  5 active torsions:
REMARK  status: ('A' for Active; 'I' for Inactive)
REMARK    1  A    between atoms: C_2  and  C_18
REMARK    2  A    between atoms: N_3  and  C_4
REMARK    3  A    between atoms: C_4  and  C_5
REMARK    4  A    between atoms: C_8  and  C_9
REMARK    5  A    between atoms: C_9  and  C_10
REMARK                            x       y       z     vdW  Elec       q    Type
REMARK                         _______ _______ _______ _____ _____    ______ ____
ROOT
ATOM      1  O   UNL     1      48.300   5.606  13.403  0.00  0.00    +0.000 OA
ATOM      2  C   UNL     1      47.448   5.442  14.274  0.00  0.00    +0.000 C 
ATOM      3  N   UNL     1      46.129   5.757  14.083  0.00  0.00    +0.000 N 
ATOM      4  H   UNL     1      45.509   5.783  14.884  0.00  0.00    +0.000 HD
ENDROOT
BRANCH   2   5
ATOM      5  C   UNL     1      47.788   4.836  15.568  0.00  0.00    +0.000 A 
ATOM      6  C   UNL     1      47.447   3.517  15.826  0.00  0.00    +0.000 A 
ATOM      7  S   UNL     1      47.887   2.990  17.386  0.00  0.00    +0.000 S 
ATOM      8  C   UNL     1      48.599   4.490  17.753  0.00  0.00    +0.000 A 
ATOM      9  N   UNL     1      49.193   4.706  18.957  0.00  0.00    +0.000 NA
ATOM     10  C   UNL     1      49.728   5.874  19.089  0.00  0.00    +0.000 A 
ATOM     11  N   UNL     1      49.714   6.851  18.125  0.00  0.00    +0.000 N 
ATOM     12  C   UNL     1      49.058   6.706  16.927  0.00  0.00    +0.000 A 
ATOM     13  O   UNL     1      48.958   7.646  16.144  0.00  0.00    +0.000 OA
ATOM     14  C   UNL     1      48.478   5.394  16.713  0.00  0.00    +0.000 A 
ATOM     15  H   UNL     1      50.131   7.754  18.298  0.00  0.00    +0.000 HD
ENDBRANCH   2   5
BRANCH   3  16
ATOM     16  C   UNL     1      45.650   6.428  12.901  0.00  0.00    +0.000 C 
BRANCH  16  17
ATOM     17  C   UNL     1      45.414   5.451  11.779  0.00  0.00    +0.000 A 
ATOM     18  C   UNL     1      45.633   5.839  10.452  0.00  0.00    +0.000 A 
ATOM     19  C   UNL     1      45.421   4.940   9.404  0.00  0.00    +0.000 A 
ATOM     20  C   UNL     1      44.969   3.639   9.660  0.00  0.00    +0.000 A 
ATOM     21  C   UNL     1      44.729   3.257  10.987  0.00  0.00    +0.000 A 
ATOM     22  C   UNL     1      44.940   4.157  12.036  0.00  0.00    +0.000 A 
BRANCH  20  23
ATOM     23  C   UNL     1      44.722   2.677   8.524  0.00  0.00    +0.000 C 
BRANCH  23  24
ATOM     24  C   UNL     1      45.890   2.465   7.598  0.00  0.00    +0.000 A 
ATOM     25  C   UNL     1      46.113   3.291   6.492  0.00  0.00    +0.000 A 
ATOM     26  C   UNL     1      47.162   3.015   5.620  0.00  0.00    +0.000 A 
ATOM     27  C   UNL     1      47.968   1.921   5.887  0.00  0.00    +0.000 A 
ATOM     28  N   UNL     1      47.805   1.115   6.958  0.00  0.00    +0.000 NA
ATOM     29  C   UNL     1      46.778   1.409   7.789  0.00  0.00    +0.000 A 
ENDBRANCH  23  24
ENDBRANCH  20  23
ENDBRANCH  16  17
ENDBRANCH   3  16
TORSDOF 5
ENDMDL
MODEL 3
REMARK VINA RESULT:    -7.703      1.951      2.441
REMARK INTER + INTRA:         -10.695
REMARK INTER:                  -9.634
REMARK INTRA:                  -1.061
REMARK UNBOUND:                -0.740
REMARK  Name = 
REMARK  5 active torsions:
REMARK  status: ('A' for Active; 'I' for Inactive)
REMARK    1  A    between atoms: C_2  and  C_18
REMARK    2  A    between atoms: N_3  and  C_4
REMARK    3  A    between atoms: C_4  and  C_5
REMARK    4  A    between atoms: C_8  and  C_9
REMARK    5  A    between atoms: C_9  and  C_10
REMARK                            x       y       z     vdW  Elec       q    Type
REMARK                         _______ _______ _______ _____ _____    ______ ____
ROOT
ATOM      1  O   UNL     1      46.523   8.523  13.644  0.00  0.00    +0.000 OA
ATOM      2  C   UNL     1      47.317   7.586  13.688  0.00  0.00    +0.000 C 
ATOM      3  N   UNL     1      46.936   6.286  13.479  0.00  0.00    +0.000 N 
ATOM      4  H   UNL     1      47.581   5.542  13.712  0.00  0.00    +0.000 HD
ENDROOT
BRANCH   2   5
ATOM      5  C   UNL     1      48.750   7.812  13.912  0.00  0.00    +0.000 A 
ATOM      6  C   UNL     1      49.448   8.690  13.097  0.00  0.00    +0.000 A 
ATOM      7  S   UNL     1      51.106   8.805  13.477  0.00  0.00    +0.000 S 
ATOM      8  C   UNL     1      50.939   7.726  14.781  0.00  0.00    +0.000 A 
ATOM      9  N   UNL     1      52.005   7.399  15.559  0.00  0.00    +0.000 NA
ATOM     10  C   UNL     1      51.730   6.601  16.537  0.00  0.00    +0.000 A 
ATOM     11  N   UNL     1      50.484   6.093  16.801  0.00  0.00    +0.000 N 
ATOM     12  C   UNL     1      49.396   6.332  15.997  0.00  0.00    +0.000 A 
ATOM     13  O   UNL     1      48.329   5.758  16.191  0.00  0.00    +0.000 OA
ATOM     14  C   UNL     1      49.643   7.258  14.908  0.00  0.00    +0.000 A 
ATOM     15  H   UNL     1      50.338   5.455  17.570  0.00  0.00    +0.000 HD
ENDBRANCH   2   5
BRANCH   3  16
ATOM     16  C   UNL     1      45.559   5.893  13.323  0.00  0.00    +0.000 C 
BRANCH  16  17
ATOM     17  C   UNL     1      45.321   5.268  11.974  0.00  0.00    +0.000 A 
ATOM     18  C   UNL     1      45.834   5.871  10.820  0.00  0.00    +0.000 A 
ATOM     19  C   UNL     1      45.623   5.299   9.564  0.00  0.00    +0.000 A 
ATOM     20  C   UNL     1      44.879   4.118   9.433  0.00  0.00    +0.000 A 
ATOM     21  C   UNL     1      44.346   3.526  10.586  0.00  0.00    +0.000 A 
ATOM     22  C   UNL     1      44.557   4.101  11.844  0.00  0.00    +0.000 A 
BRANCH  20  23
ATOM     23  C   UNL     1      44.636   3.513   8.072  0.00  0.00    +0.000 C 
BRANCH  23  24
ATOM     24  C   UNL     1      45.838   2.871   7.432  0.00  0.00    +0.000 A 
ATOM     25  C   UNL     1      46.438   3.410   6.289  0.00  0.00    +0.000 A 
ATOM     26  C   UNL     1      47.502   2.744   5.686  0.00  0.00    +0.000 A 
ATOM     27  C   UNL     1      47.942   1.560   6.253  0.00  0.00    +0.000 A 
ATOM     28  N   UNL     1      47.409   1.021   7.370  0.00  0.00    +0.000 NA
ATOM     29  C   UNL     1      46.378   1.691   7.935  0.00  0.00    +0.000 A 
ENDBRANCH  23  24
ENDBRANCH  20  23
ENDBRANCH  16  17
ENDBRANCH   3  16
TORSDOF 5
ENDMDL
MODEL 4
REMARK VINA RESULT:    -7.648      3.924      9.556
REMARK INTER + INTRA:         -10.623
REMARK INTER:                  -9.710
REMARK INTRA:                  -0.913
REMARK UNBOUND:                -0.740
REMARK  Name = 
REMARK  5 active torsions:
REMARK  status: ('A' for Active; 'I' for Inactive)
REMARK    1  A    between atoms: C_2  and  C_18
REMARK    2  A    between atoms: N_3  and  C_4
REMARK    3  A    between atoms: C_4  and  C_5
REMARK    4  A    between atoms: C_8  and  C_9
REMARK    5  A    between atoms: C_9  and  C_10
REMARK                            x       y       z     vdW  Elec       q    Type
REMARK                         _______ _______ _______ _____ _____    ______ ____
ROOT
ATOM      1  O   UNL     1      47.297   3.158  14.024  0.00  0.00    +0.000 OA
ATOM      2  C   UNL     1      46.861   4.202  14.505  0.00  0.00    +0.000 C 
ATOM      3  N   UNL     1      46.879   4.456  15.852  0.00  0.00    +0.000 N 
ATOM      4  H   UNL     1      46.341   5.235  16.212  0.00  0.00    +0.000 HD
ENDROOT
BRANCH   2   5
ATOM      5  C   UNL     1      46.340   5.276  13.651  0.00  0.00    +0.000 A 
ATOM      6  C   UNL     1      47.076   6.438  13.474  0.00  0.00    +0.000 A 
ATOM      7  S   UNL     1      46.307   7.590  12.480  0.00  0.00    +0.000 S 
ATOM      8  C   UNL     1      44.986   6.553  12.206  0.00  0.00    +0.000 A 
ATOM      9  N   UNL     1      43.955   6.931  11.404  0.00  0.00    +0.000 NA
ATOM     10  C   UNL     1      43.039   6.035  11.251  0.00  0.00    +0.000 A 
ATOM     11  N   UNL     1      43.057   4.794  11.835  0.00  0.00    +0.000 N 
ATOM     12  C   UNL     1      44.036   4.399  12.715  0.00  0.00    +0.000 A 
ATOM     13  O   UNL     1      43.951   3.333  13.317  0.00  0.00    +0.000 OA
ATOM     14  C   UNL     1      45.113   5.356  12.887  0.00  0.00    +0.000 A 
ATOM     15  H   UNL     1      42.297   4.145  11.694  0.00  0.00    +0.000 HD
ENDBRANCH   2   5
BRANCH   3  16
ATOM     16  C   UNL     1      47.285   3.475  16.825  0.00  0.00    +0.000 C 
BRANCH  16  17
ATOM     17  C   UNL     1      48.760   3.577  17.117  0.00  0.00    +0.000 A 
ATOM     18  C   UNL     1      49.540   2.418  17.205  0.00  0.00    +0.000 A 
ATOM     19  C   UNL     1      50.908   2.500  17.471  0.00  0.00    +0.000 A 
ATOM     20  C   UNL     1      51.523   3.743  17.672  0.00  0.00    +0.000 A 
ATOM     21  C   UNL     1      50.738   4.902  17.605  0.00  0.00    +0.000 A 
ATOM     22  C   UNL     1      49.367   4.819  17.340  0.00  0.00    +0.000 A 
BRANCH  20  23
ATOM     23  C   UNL     1      52.998   3.826  17.978  0.00  0.00    +0.000 C 
BRANCH  23  24
ATOM     24  C   UNL     1      53.376   3.514  19.402  0.00  0.00    +0.000 A 
ATOM     25  C   UNL     1      52.920   4.291  20.471  0.00  0.00    +0.000 A 
ATOM     26  C   UNL     1      53.353   4.012  21.765  0.00  0.00    +0.000 A 
ATOM     27  C   UNL     1      54.225   2.953  21.952  0.00  0.00    +0.000 A 
ATOM     28  N   UNL     1      54.667   2.162  20.951  0.00  0.00    +0.000 NA
ATOM     29  C   UNL     1      54.228   2.456  19.705  0.00  0.00    +0.000 A 
ENDBRANCH  23  24
ENDBRANCH  20  23
ENDBRANCH  16  17
ENDBRANCH   3  16
TORSDOF 5
ENDMDL
MODEL 5
REMARK VINA RESULT:    -7.178      1.955      2.827
REMARK INTER + INTRA:         -10.016
REMARK INTER:                  -9.381
REMARK INTRA:                  -0.635
REMARK UNBOUND:                -0.740
REMARK  Name = 
REMARK  5 active torsions:
REMARK  status: ('A' for Active; 'I' for Inactive)
REMARK    1  A    between atoms: C_2  and  C_18
REMARK    2  A    between atoms: N_3  and  C_4
REMARK    3  A    between atoms: C_4  and  C_5
REMARK    4  A    between atoms: C_8  and  C_9
REMARK    5  A    between atoms: C_9  and  C_10
REMARK                            x       y       z     vdW  Elec       q    Type
REMARK                         _______ _______ _______ _____ _____    ______ ____
ROOT
ATOM      1  O   UNL     1      50.183   6.533  15.590  0.00  0.00    +0.000 OA
ATOM      2  C   UNL     1      49.100   6.916  16.028  0.00  0.00    +0.000 C 
ATOM      3  N   UNL     1      48.101   7.385  15.215  0.00  0.00    +0.000 N 
ATOM      4  H   UNL     1      47.312   7.861  15.633  0.00  0.00    +0.000 HD
ENDROOT
BRANCH   2   5
ATOM      5  C   UNL     1      48.787   6.840  17.460  0.00  0.00    +0.000 A 
ATOM      6  C   UNL     1      48.476   7.994  18.163  0.00  0.00    +0.000 A 
ATOM      7  S   UNL     1      48.173   7.725  19.819  0.00  0.00    +0.000 S 
ATOM      8  C   UNL     1      48.393   6.047  19.643  0.00  0.00    +0.000 A 
ATOM      9  N   UNL     1      48.253   5.209  20.705  0.00  0.00    +0.000 NA
ATOM     10  C   UNL     1      48.408   3.959  20.424  0.00  0.00    +0.000 A 
ATOM     11  N   UNL     1      48.699   3.470  19.176  0.00  0.00    +0.000 N 
ATOM     12  C   UNL     1      48.928   4.284  18.092  0.00  0.00    +0.000 A 
ATOM     13  O   UNL     1      49.313   3.819  17.024  0.00  0.00    +0.000 OA
ATOM     14  C   UNL     1      48.723   5.697  18.347  0.00  0.00    +0.000 A 
ATOM     15  H   UNL     1      48.832   2.481  19.025  0.00  0.00    +0.000 HD
ENDBRANCH   2   5
BRANCH   3  16
ATOM     16  C   UNL     1      48.280   7.593  13.801  0.00  0.00    +0.000 C 
BRANCH  16  17
ATOM     17  C   UNL     1      47.292   6.783  13.003  0.00  0.00    +0.000 A 
ATOM     18  C   UNL     1      46.847   5.546  13.484  0.00  0.00    +0.000 A 
ATOM     19  C   UNL     1      45.929   4.787  12.754  0.00  0.00    +0.000 A 
ATOM     20  C   UNL     1      45.449   5.242  11.519  0.00  0.00    +0.000 A 
ATOM     21  C   UNL     1      45.911   6.471  11.027  0.00  0.00    +0.000 A 
ATOM     22  C   UNL     1      46.832   7.229  11.757  0.00  0.00    +0.000 A 
BRANCH  20  23
ATOM     23  C   UNL     1      44.472   4.411  10.724  0.00  0.00    +0.000 C 
BRANCH  23  24
ATOM     24  C   UNL     1      45.053   3.709   9.526  0.00  0.00    +0.000 A 
ATOM     25  C   UNL     1      45.204   2.320   9.488  0.00  0.00    +0.000 A 
ATOM     26  C   UNL     1      45.814   1.718   8.391  0.00  0.00    +0.000 A 
ATOM     27  C   UNL     1      46.247   2.527   7.355  0.00  0.00    +0.000 A 
ATOM     28  N   UNL     1      46.096   3.868   7.339  0.00  0.00    +0.000 NA
ATOM     29  C   UNL     1      45.498   4.425   8.418  0.00  0.00    +0.000 A 
ENDBRANCH  23  24
ENDBRANCH  20  23
ENDBRANCH  16  17
ENDBRANCH   3  16
TORSDOF 5
ENDMDL
MODEL 6
REMARK VINA RESULT:    -6.980      3.987      9.030
REMARK INTER + INTRA:          -9.760
REMARK INTER:                  -8.897
REMARK INTRA:                  -0.863
REMARK UNBOUND:                -0.740
REMARK  Name = 
REMARK  5 active torsions:
REMARK  status: ('A' for Active; 'I' for Inactive)
REMARK    1  A    between atoms: C_2  and  C_18
REMARK    2  A    between atoms: N_3  and  C_4
REMARK    3  A    between atoms: C_4  and  C_5
REMARK    4  A    between atoms: C_8  and  C_9
REMARK    5  A    between atoms: C_9  and  C_10
REMARK                            x       y       z     vdW  Elec       q    Type
REMARK                         _______ _______ _______ _____ _____    ______ ____
ROOT
ATOM      1  O   UNL     1      47.316   3.044  14.138  0.00  0.00    +0.000 OA
ATOM      2  C   UNL     1      46.907   4.109  14.595  0.00  0.00    +0.000 C 
ATOM      3  N   UNL     1      46.859   4.362  15.941  0.00  0.00    +0.000 N 
ATOM      4  H   UNL     1      46.343   5.168  16.271  0.00  0.00    +0.000 HD
ENDROOT
BRANCH   2   5
ATOM      5  C   UNL     1      46.494   5.208  13.715  0.00  0.00    +0.000 A 
ATOM      6  C   UNL     1      47.353   6.274  13.488  0.00  0.00    +0.000 A 
ATOM      7  S   UNL     1      46.699   7.474  12.470  0.00  0.00    +0.000 S 
ATOM      8  C   UNL     1      45.265   6.585  12.250  0.00  0.00    +0.000 A 
ATOM      9  N   UNL     1      44.267   7.054  11.453  0.00  0.00    +0.000 NA
ATOM     10  C   UNL     1      43.253   6.262  11.344  0.00  0.00    +0.000 A 
ATOM     11  N   UNL     1      43.143   5.046  11.968  0.00  0.00    +0.000 N 
ATOM     12  C   UNL     1      44.089   4.569  12.844  0.00  0.00    +0.000 A 
ATOM     13  O   UNL     1      43.896   3.539  13.482  0.00  0.00    +0.000 OA
ATOM     14  C   UNL     1      45.269   5.403  12.968  0.00  0.00    +0.000 A 
ATOM     15  H   UNL     1      42.312   4.482  11.861  0.00  0.00    +0.000 HD
ENDBRANCH   2   5
BRANCH   3  16
ATOM     16  C   UNL     1      47.157   3.362  16.934  0.00  0.00    +0.000 C 
BRANCH  16  17
ATOM     17  C   UNL     1      48.622   3.360  17.283  0.00  0.00    +0.000 A 
ATOM     18  C   UNL     1      49.436   2.291  16.892  0.00  0.00    +0.000 A 
ATOM     19  C   UNL     1      50.796   2.280  17.207  0.00  0.00    +0.000 A 
ATOM     20  C   UNL     1      51.369   3.331  17.934  0.00  0.00    +0.000 A 
ATOM     21  C   UNL     1      50.550   4.392  18.345  0.00  0.00    +0.000 A 
ATOM     22  C   UNL     1      49.187   4.402  18.031  0.00  0.00    +0.000 A 
BRANCH  20  23
ATOM     23  C   UNL     1      52.836   3.307  18.289  0.00  0.00    +0.000 C 
BRANCH  23  24
ATOM     24  C   UNL     1      53.527   4.643  18.250  0.00  0.00    +0.000 A 
ATOM     25  C   UNL     1      53.915   5.306  19.419  0.00  0.00    +0.000 A 
ATOM     26  C   UNL     1      54.485   6.574  19.342  0.00  0.00    +0.000 A 
ATOM     27  C   UNL     1      54.660   7.139  18.090  0.00  0.00    +0.000 A 
ATOM     28  N   UNL     1      54.326   6.523  16.937  0.00  0.00    +0.000 NA
ATOM     29  C   UNL     1      53.775   5.291  17.043  0.00  0.00    +0.000 A 
ENDBRANCH  23  24
ENDBRANCH  20  23
ENDBRANCH  16  17
ENDBRANCH   3  16
TORSDOF 5
ENDMDL
MODEL 7
REMARK VINA RESULT:    -6.875      3.367      8.195
REMARK INTER + INTRA:          -9.624
REMARK INTER:                  -8.676
REMARK INTRA:                  -0.948
REMARK UNBOUND:                -0.740
REMARK  Name = 
REMARK  5 active torsions:
REMARK  status: ('A' for Active; 'I' for Inactive)
REMARK    1  A    between atoms: C_2  and  C_18
REMARK    2  A    between atoms: N_3  and  C_4
REMARK    3  A    between atoms: C_4  and  C_5
REMARK    4  A    between atoms: C_8  and  C_9
REMARK    5  A    between atoms: C_9  and  C_10
REMARK                            x       y       z     vdW  Elec       q    Type
REMARK                         _______ _______ _______ _____ _____    ______ ____
ROOT
ATOM      1  O   UNL     1      45.799   7.898  11.788  0.00  0.00    +0.000 OA
ATOM      2  C   UNL     1      46.352   6.809  11.654  0.00  0.00    +0.000 C 
ATOM      3  N   UNL     1      47.576   6.531  12.204  0.00  0.00    +0.000 N 
ATOM      4  H   UNL     1      48.069   5.697  11.909  0.00  0.00    +0.000 HD
ENDROOT
BRANCH   2   5
ATOM      5  C   UNL     1      45.700   5.707  10.935  0.00  0.00    +0.000 A 
ATOM      6  C   UNL     1      45.864   5.582   9.564  0.00  0.00    +0.000 A 
ATOM      7  S   UNL     1      45.010   4.269   8.890  0.00  0.00    +0.000 S 
ATOM      8  C   UNL     1      44.436   3.788  10.417  0.00  0.00    +0.000 A 
ATOM      9  N   UNL     1      43.643   2.691  10.552  0.00  0.00    +0.000 NA
ATOM     10  C   UNL     1      43.311   2.416  11.768  0.00  0.00    +0.000 A 
ATOM     11  N   UNL     1      43.694   3.146  12.865  0.00  0.00    +0.000 N 
ATOM     12  C   UNL     1      44.427   4.305  12.770  0.00  0.00    +0.000 A 
ATOM     13  O   UNL     1      44.640   5.000  13.758  0.00  0.00    +0.000 OA
ATOM     14  C   UNL     1      44.862   4.633  11.425  0.00  0.00    +0.000 A 
ATOM     15  H   UNL     1      43.381   2.892  13.791  0.00  0.00    +0.000 HD
ENDBRANCH   2   5
BRANCH   3  16
ATOM     16  C   UNL     1      48.375   7.526  12.871  0.00  0.00    +0.000 C 
BRANCH  16  17
ATOM     17  C   UNL     1      48.883   7.019  14.195  0.00  0.00    +0.000 A 
ATOM     18  C   UNL     1      48.084   6.178  14.979  0.00  0.00    +0.000 A 
ATOM     19  C   UNL     1      48.546   5.699  16.207  0.00  0.00    +0.000 A 
ATOM     20  C   UNL     1      49.812   6.063  16.685  0.00  0.00    +0.000 A 
ATOM     21  C   UNL     1      50.604   6.922  15.910  0.00  0.00    +0.000 A 
ATOM     22  C   UNL     1      50.140   7.403  14.681  0.00  0.00    +0.000 A 
BRANCH  20  23
ATOM     23  C   UNL     1      50.300   5.559  18.021  0.00  0.00    +0.000 C 
BRANCH  23  24
ATOM     24  C   UNL     1      51.128   4.303  17.969  0.00  0.00    +0.000 A 
ATOM     25  C   UNL     1      50.629   3.115  17.424  0.00  0.00    +0.000 A 
ATOM     26  C   UNL     1      51.402   1.957  17.463  0.00  0.00    +0.000 A 
ATOM     27  C   UNL     1      52.659   2.026  18.037  0.00  0.00    +0.000 A 
ATOM     28  N   UNL     1      53.189   3.157  18.548  0.00  0.00    +0.000 NA
ATOM     29  C   UNL     1      52.416   4.267  18.496  0.00  0.00    +0.000 A 
ENDBRANCH  23  24
ENDBRANCH  20  23
ENDBRANCH  16  17
ENDBRANCH   3  16
TORSDOF 5
ENDMDL
MODEL 8
REMARK VINA RESULT:    -6.799      2.880      4.067
REMARK INTER + INTRA:          -9.526
REMARK INTER:                  -8.130
REMARK INTRA:                  -1.396
REMARK UNBOUND:                -0.740
REMARK  Name = 
REMARK  5 active torsions:
REMARK  status: ('A' for Active; 'I' for Inactive)
REMARK    1  A    between atoms: C_2  and  C_18
REMARK    2  A    between atoms: N_3  and  C_4
REMARK    3  A    between atoms: C_4  and  C_5
REMARK    4  A    between atoms: C_8  and  C_9
REMARK    5  A    between atoms: C_9  and  C_10
REMARK                            x       y       z     vdW  Elec       q    Type
REMARK                         _______ _______ _______ _____ _____    ______ ____
ROOT
ATOM      1  O   UNL     1      48.069   9.148  16.653  0.00  0.00    +0.000 OA
ATOM      2  C   UNL     1      48.740   8.129  16.501  0.00  0.00    +0.000 C 
ATOM      3  N   UNL     1      49.377   7.835  15.324  0.00  0.00    +0.000 N 
ATOM      4  H   UNL     1      49.753   6.904  15.189  0.00  0.00    +0.000 HD
ENDROOT
BRANCH   2   5
ATOM      5  C   UNL     1      48.950   7.184  17.604  0.00  0.00    +0.000 A 
ATOM      6  C   UNL     1      49.438   7.637  18.821  0.00  0.00    +0.000 A 
ATOM      7  S   UNL     1      49.652   6.400  19.975  0.00  0.00    +0.000 S 
ATOM      8  C   UNL     1      49.046   5.223  18.907  0.00  0.00    +0.000 A 
ATOM      9  N   UNL     1      48.940   3.922  19.289  0.00  0.00    +0.000 NA
ATOM     10  C   UNL     1      48.429   3.142  18.396  0.00  0.00    +0.000 A 
ATOM     11  N   UNL     1      48.021   3.545  17.150  0.00  0.00    +0.000 N 
ATOM     12  C   UNL     1      48.182   4.831  16.693  0.00  0.00    +0.000 A 
ATOM     13  O   UNL     1      47.925   5.125  15.530  0.00  0.00    +0.000 OA
ATOM     14  C   UNL     1      48.713   5.757  17.676  0.00  0.00    +0.000 A 
ATOM     15  H   UNL     1      47.649   2.881  16.487  0.00  0.00    +0.000 HD
ENDBRANCH   2   5
BRANCH   3  16
ATOM     16  C   UNL     1      49.208   8.620  14.128  0.00  0.00    +0.000 C 
BRANCH  16  17
ATOM     17  C   UNL     1      48.013   8.156  13.337  0.00  0.00    +0.000 A 
ATOM     18  C   UNL     1      48.114   7.034  12.505  0.00  0.00    +0.000 A 
ATOM     19  C   UNL     1      47.012   6.593  11.769  0.00  0.00    +0.000 A 
ATOM     20  C   UNL     1      45.790   7.274  11.837  0.00  0.00    +0.000 A 
ATOM     21  C   UNL     1      45.694   8.409  12.653  0.00  0.00    +0.000 A 
ATOM     22  C   UNL     1      46.799   8.852  13.388  0.00  0.00    +0.000 A 
BRANCH  20  23
ATOM     23  C   UNL     1      44.607   6.805  11.025  0.00  0.00    +0.000 C 
BRANCH  23  24
ATOM     24  C   UNL     1      44.112   5.422  11.353  0.00  0.00    +0.000 A 
ATOM     25  C   UNL     1      43.895   5.011  12.672  0.00  0.00    +0.000 A 
ATOM     26  C   UNL     1      43.509   3.700  12.935  0.00  0.00    +0.000 A 
ATOM     27  C   UNL     1      43.339   2.838  11.865  0.00  0.00    +0.000 A 
ATOM     28  N   UNL     1      43.511   3.201  10.576  0.00  0.00    +0.000 NA
ATOM     29  C   UNL     1      43.885   4.482  10.351  0.00  0.00    +0.000 A 
ENDBRANCH  23  24
ENDBRANCH  20  23
ENDBRANCH  16  17
ENDBRANCH   3  16
TORSDOF 5
ENDMDL
