MODEL 1
REMARK VINA RESULT:    -7.745      0.000      0.000
REMARK INTER + INTRA:          -9.914
REMARK INTER:                  -9.556
REMARK INTRA:                  -0.358
REMARK UNBOUND:                -0.358
REMARK  Name = 
REMARK  6 active torsions:
REMARK  status: ('A' for Active; 'I' for Inactive)
REMARK    1  A    between atoms: C_1  and  C_2
REMARK    2  A    between atoms: C_2  and  C_3
REMARK    3  A    between atoms: C_2  and  C_4
REMARK    4  A    between atoms: C_7  and  C_8
REMARK    5  A    between atoms: C_8  and  N_9
REMARK    6  A    between atoms: C_13  and  C_14
REMARK                            x       y       z     vdW  Elec       q    Type
REMARK                         _______ _______ _______ _____ _____    ______ ____
ROOT
ATOM      1  N   UNL     1      44.216   6.194  10.974  0.00  0.00    +0.000 N 
ATOM      2  C   UNL     1      45.270   6.285  11.902  0.00  0.00    +0.000 A 
ATOM      3  C   UNL     1      45.861   7.528  12.117  0.00  0.00    +0.000 A 
ATOM      4  C   UNL     1      46.918   7.645  13.023  0.00  0.00    +0.000 A 
ATOM      5  C   UNL     1      47.359   6.510  13.702  0.00  0.00    +0.000 A 
ATOM      6  C   UNL     1      46.716   5.313  13.437  0.00  0.00    +0.000 A 
ATOM      7  N   UNL     1      45.702   5.182  12.546  0.00  0.00    +0.000 NA
ATOM      8  H   UNL     1      43.473   6.829  11.253  0.00  0.00    +0.000 HD
ENDROOT
BRANCH   5   9
ATOM      9  C   UNL     1      48.448   6.522  14.698  0.00  0.00    +0.000 C 
ATOM     10  N   UNL     1      48.131   6.184  15.983  0.00  0.00    +0.000 N 
ATOM     11  O   UNL     1      49.586   6.851  14.394  0.00  0.00    +0.000 OA
ATOM     12  H   UNL     1      47.180   6.142  16.321  0.00  0.00    +0.000 HD
ATOM     13  H   UNL     1      48.867   6.297  16.671  0.00  0.00    +0.000 HD
ENDBRANCH   5   9
BRANCH   1  14
ATOM     14  C   UNL     1      43.714   4.830  10.830  0.00  0.00    +0.000 C 
BRANCH  14  18
ATOM     15  C   UNL     1      45.965   2.499   7.940  0.00  0.00    +0.000 A 
ATOM     16  C   UNL     1      46.067   3.897   7.947  0.00  0.00    +0.000 A 
ATOM     17  C   UNL     1      45.332   4.666   8.857  0.00  0.00    +0.000 A 
ATOM     18  C   UNL     1      44.464   4.054   9.769  0.00  0.00    +0.000 A 
ATOM     19  C   UNL     1      44.364   2.654   9.762  0.00  0.00    +0.000 A 
ATOM     20  C   UNL     1      45.102   1.888   8.859  0.00  0.00    +0.000 A 
BRANCH  15  22
ATOM     21  C   UNL     1      48.122   2.354   6.639  0.00  0.00    +0.000 C 
ATOM     22  C   UNL     1      46.786   1.679   6.962  0.00  0.00    +0.000 C 
ATOM     23  C   UNL     1      47.005   0.256   7.479  0.00  0.00    +0.000 C 
ENDBRANCH  15  22
ENDBRANCH  14  18
ENDBRANCH   1  14
TORSDOF 4
ENDMDL
MODEL 2
REMARK VINA RESULT:    -7.659      3.047      6.952
REMARK INTER + INTRA:          -9.808
REMARK INTER:                  -9.418
REMARK INTRA:                  -0.390
REMARK UNBOUND:                -0.358
REMARK  Name = 
REMARK  6 active torsions:
REMARK  status: ('A' for Active; 'I' for Inactive)
REMARK    1  A    between atoms: C_1  and  C_2
REMARK    2  A    between atoms: C_2  and  C_3
REMARK    3  A    between atoms: C_2  and  C_4
REMARK    4  A    between atoms: C_7  and  C_8
REMARK    5  A    between atoms: C_8  and  N_9
REMARK    6  A    between atoms: C_13  and  C_14
REMARK                            x       y       z     vdW  Elec       q    Type
REMARK                         _______ _______ _______ _____ _____    ______ ____
ROOT
ATOM      1  N   UNL     1      43.880   3.326  10.446  0.00  0.00    +0.000 N 
ATOM      2  C   UNL     1      44.789   3.073   9.402  0.00  0.00    +0.000 A 
ATOM      3  C   UNL     1      45.142   1.753   9.132  0.00  0.00    +0.000 A 
ATOM      4  C   UNL     1      46.052   1.474   8.109  0.00  0.00    +0.000 A 
ATOM      5  C   UNL     1      46.589   2.529   7.372  0.00  0.00    +0.000 A 
ATOM      6  C   UNL     1      46.184   3.812   7.698  0.00  0.00    +0.000 A 
ATOM      7  N   UNL     1      45.316   4.097   8.700  0.00  0.00    +0.000 NA
ATOM      8  H   UNL     1      43.017   2.822  10.263  0.00  0.00    +0.000 HD
ENDROOT
BRANCH   5   9
ATOM      9  C   UNL     1      47.537   2.349   6.256  0.00  0.00    +0.000 C 
ATOM     10  N   UNL     1      47.338   3.101   5.133  0.00  0.00    +0.000 N 
ATOM     11  O   UNL     1      48.450   1.537   6.318  0.00  0.00    +0.000 OA
ATOM     12  H   UNL     1      46.477   3.595   4.948  0.00  0.00    +0.000 HD
ATOM     13  H   UNL     1      47.936   2.891   4.341  0.00  0.00    +0.000 HD
ENDBRANCH   5   9
BRANCH   1  14
ATOM     14  C   UNL     1      43.627   4.752  10.634  0.00  0.00    +0.000 C 
BRANCH  14  18
ATOM     15  C   UNL     1      46.720   6.643  13.024  0.00  0.00    +0.000 A 
ATOM     16  C   UNL     1      46.282   5.349  13.338  0.00  0.00    +0.000 A 
ATOM     17  C   UNL     1      45.271   4.732  12.591  0.00  0.00    +0.000 A 
ATOM     18  C   UNL     1      44.661   5.404  11.526  0.00  0.00    +0.000 A 
ATOM     19  C   UNL     1      45.101   6.699  11.212  0.00  0.00    +0.000 A 
ATOM     20  C   UNL     1      46.113   7.311  11.951  0.00  0.00    +0.000 A 
BRANCH  15  22
ATOM     21  C   UNL     1      49.196   7.111  13.154  0.00  0.00    +0.000 C 
ATOM     22  C   UNL     1      47.833   7.289  13.829  0.00  0.00    +0.000 C 
ATOM     23  C   UNL     1      47.541   8.768  14.089  0.00  0.00    +0.000 C 
ENDBRANCH  15  22
ENDBRANCH  14  18
ENDBRANCH   1  14
TORSDOF 4
ENDMDL
MODEL 3
REMARK VINA RESULT:    -7.262      1.261      1.546
REMARK INTER + INTRA:          -9.318
REMARK INTER:                  -8.917
REMARK INTRA:                  -0.401
REMARK UNBOUND:                -0.358
REMARK  Name = 
REMARK  6 active torsions:
REMARK  status: ('A' for Active; 'I' for Inactive)
REMARK    1  A    between atoms: C_1  and  C_2
REMARK    2  A    between atoms: C_2  and  C_3
REMARK    3  A    between atoms: C_2  and  C_4
REMARK    4  A    between atoms: C_7  and  C_8
REMARK    5  A    between atoms: C_8  and  N_9
REMARK    6  A    between atoms: C_13  and  C_14
REMARK                            x       y       z     vdW  Elec       q    Type
REMARK                         _______ _______ _______ _____ _____    ______ ____
ROOT
ATOM      1  N   UNL     1      44.523   4.367  12.254  0.00  0.00    +0.000 N 
ATOM      2  C   UNL     1      45.663   5.089  12.653  0.00  0.00    +0.000 A 
ATOM      3  C   UNL     1      46.218   4.820  13.902  0.00  0.00    +0.000 A 
ATOM      4  C   UNL     1      47.343   5.530  14.328  0.00  0.00    +0.000 A 
ATOM      5  C   UNL     1      47.894   6.497  13.487  0.00  0.00    +0.000 A 
ATOM      6  C   UNL     1      47.288   6.701  12.260  0.00  0.00    +0.000 A 
ATOM      7  N   UNL     1      46.185   6.033  11.842  0.00  0.00    +0.000 NA
ATOM      8  H   UNL     1      44.736   3.374  12.274  0.00  0.00    +0.000 HD
ENDROOT
BRANCH   5   9
ATOM      9  C   UNL     1      49.094   7.288  13.824  0.00  0.00    +0.000 C 
ATOM     10  N   UNL     1      50.146   7.237  12.955  0.00  0.00    +0.000 N 
ATOM     11  O   UNL     1      49.158   7.941  14.856  0.00  0.00    +0.000 OA
ATOM     12  H   UNL     1      50.228   6.537  12.232  0.00  0.00    +0.000 HD
ATOM     13  H   UNL     1      50.996   7.703  13.253  0.00  0.00    +0.000 HD
ENDBRANCH   5   9
BRANCH   1  14
ATOM     14  C   UNL     1      44.035   4.775  10.939  0.00  0.00    +0.000 C 
BRANCH  14  18
ATOM     15  C   UNL     1      46.028   2.441   7.869  0.00  0.00    +0.000 A 
ATOM     16  C   UNL     1      46.062   3.841   7.819  0.00  0.00    +0.000 A 
ATOM     17  C   UNL     1      45.406   4.610   8.789  0.00  0.00    +0.000 A 
ATOM     18  C   UNL     1      44.686   3.994   9.819  0.00  0.00    +0.000 A 
ATOM     19  C   UNL     1      44.655   2.592   9.868  0.00  0.00    +0.000 A 
ATOM     20  C   UNL     1      45.313   1.826   8.906  0.00  0.00    +0.000 A 
BRANCH  15  22
ATOM     21  C   UNL     1      48.086   2.278   6.417  0.00  0.00    +0.000 C 
ATOM     22  C   UNL     1      46.763   1.623   6.822  0.00  0.00    +0.000 C 
ATOM     23  C   UNL     1      46.989   0.187   7.301  0.00  0.00    +0.000 C 
ENDBRANCH  15  22
ENDBRANCH  14  18
ENDBRANCH   1  14
TORSDOF 4
ENDMDL
MODEL 4
REMARK VINA RESULT:    -7.166      2.685      3.407
REMARK INTER + INTRA:          -9.200
REMARK INTER:                  -8.672
REMARK INTRA:                  -0.528
REMARK UNBOUND:                -0.358
REMARK  Name = 
REMARK  6 active torsions:
REMARK  status: ('A' for Active; 'I' for Inactive)
REMARK    1  A    between atoms: C_1  and  C_2
REMARK    2  A    between atoms: C_2  and  C_3
REMARK    3  A    between atoms: C_2  and  C_4
REMARK    4  A    between atoms: C_7  and  C_8
REMARK    5  A    between atoms: C_8  and  N_9
REMARK    6  A    between atoms: C_13  and  C_14
REMARK                            x       y       z     vdW  Elec       q    Type
REMARK                         _______ _______ _______ _____ _____    ______ ____
ROOT
ATOM      1  N   UNL     1      45.088   5.715  11.956  0.00  0.00    +0.000 N 
ATOM      2  C   UNL     1      45.057   7.119  11.879  0.00  0.00    +0.000 A 
ATOM      3  C   UNL     1      45.950   7.849  12.660  0.00  0.00    +0.000 A 
ATOM      4  C   UNL     1      45.932   9.245  12.613  0.00  0.00    +0.000 A 
ATOM      5  C   UNL     1      45.018   9.884  11.775  0.00  0.00    +0.000 A 
ATOM      6  C   UNL     1      44.169   9.089  11.026  0.00  0.00    +0.000 A 
ATOM      7  N   UNL     1      44.162   7.733  11.078  0.00  0.00    +0.000 NA
ATOM      8  H   UNL     1      46.021   5.390  11.717  0.00  0.00    +0.000 HD
ENDROOT
BRANCH   5   9
ATOM      9  C   UNL     1      44.929  11.350  11.627  0.00  0.00    +0.000 C 
ATOM     10  N   UNL     1      45.769  12.112  12.388  0.00  0.00    +0.000 N 
ATOM     11  O   UNL     1      44.113  11.866  10.877  0.00  0.00    +0.000 OA
ATOM     12  H   UNL     1      46.278  11.746  13.179  0.00  0.00    +0.000 HD
ATOM     13  H   UNL     1      45.624  13.115  12.349  0.00  0.00    +0.000 HD
ENDBRANCH   5   9
BRANCH   1  14
ATOM     14  C   UNL     1      44.079   5.085  11.108  0.00  0.00    +0.000 C 
BRANCH  14  18
ATOM     15  C   UNL     1      45.957   2.654   8.040  0.00  0.00    +0.000 A 
ATOM     16  C   UNL     1      46.134   4.045   8.040  0.00  0.00    +0.000 A 
ATOM     17  C   UNL     1      45.519   4.846   9.009  0.00  0.00    +0.000 A 
ATOM     18  C   UNL     1      44.696   4.276   9.988  0.00  0.00    +0.000 A 
ATOM     19  C   UNL     1      44.521   2.884   9.987  0.00  0.00    +0.000 A 
ATOM     20  C   UNL     1      45.140   2.085   9.025  0.00  0.00    +0.000 A 
BRANCH  15  22
ATOM     21  C   UNL     1      47.964   2.428   6.526  0.00  0.00    +0.000 C 
ATOM     22  C   UNL     1      46.650   1.797   6.995  0.00  0.00    +0.000 C 
ATOM     23  C   UNL     1      46.880   0.375   7.511  0.00  0.00    +0.000 C 
ENDBRANCH  15  22
ENDBRANCH  14  18
ENDBRANCH   1  14
TORSDOF 4
ENDMDL
MODEL 5
REMARK VINA RESULT:    -6.758      4.239      8.073
REMARK INTER + INTRA:          -8.696
REMARK INTER:                  -8.226
REMARK INTRA:                  -0.470
REMARK UNBOUND:                -0.358
REMARK  Name = 
REMARK  6 active torsions:
REMARK  status: ('A' for Active; 'I' for Inactive)
REMARK    1  A    between atoms: C_1  and  C_2
REMARK    2  A    between atoms: C_2  and  C_3
REMARK    3  A    between atoms: C_2  and  C_4
REMARK    4  A    between atoms: C_7  and  C_8
REMARK    5  A    between atoms: C_8  and  N_9
REMARK    6  A    between atoms: C_13  and  C_14
REMARK                            x       y       z     vdW  Elec       q    Type
REMARK                         _______ _______ _______ _____ _____    ______ ____
ROOT
ATOM      1  N   UNL     1      47.340   5.240  15.210  0.00  0.00    +0.000 N 
ATOM      2  C   UNL     1      46.652   5.004  14.007  0.00  0.00    +0.000 A 
ATOM      3  C   UNL     1      46.698   5.978  13.011  0.00  0.00    +0.000 A 
ATOM      4  C   UNL     1      46.013   5.775  11.810  0.00  0.00    +0.000 A 
ATOM      5  C   UNL     1      45.297   4.592  11.629  0.00  0.00    +0.000 A 
ATOM      6  C   UNL     1      45.306   3.671  12.662  0.00  0.00    +0.000 A 
ATOM      7  N   UNL     1      45.950   3.864  13.840  0.00  0.00    +0.000 NA
ATOM      8  H   UNL     1      48.322   5.405  15.005  0.00  0.00    +0.000 HD
ENDROOT
BRANCH   5   9
ATOM      9  C   UNL     1      44.560   4.262  10.394  0.00  0.00    +0.000 C 
ATOM     10  N   UNL     1      44.965   4.867   9.238  0.00  0.00    +0.000 N 
ATOM     11  O   UNL     1      43.603   3.501  10.407  0.00  0.00    +0.000 OA
ATOM     12  H   UNL     1      45.580   5.668   9.223  0.00  0.00    +0.000 HD
ATOM     13  H   UNL     1      44.385   4.708   8.422  0.00  0.00    +0.000 HD
ENDBRANCH   5   9
BRANCH   1  14
ATOM     14  C   UNL     1      47.180   4.150  16.170  0.00  0.00    +0.000 C 
BRANCH  14  18
ATOM     15  C   UNL     1      51.073   2.975  17.689  0.00  0.00    +0.000 A 
ATOM     16  C   UNL     1      50.213   2.013  17.142  0.00  0.00    +0.000 A 
ATOM     17  C   UNL     1      48.946   2.371  16.667  0.00  0.00    +0.000 A 
ATOM     18  C   UNL     1      48.503   3.696  16.747  0.00  0.00    +0.000 A 
ATOM     19  C   UNL     1      49.365   4.658  17.293  0.00  0.00    +0.000 A 
ATOM     20  C   UNL     1      50.631   4.303  17.761  0.00  0.00    +0.000 A 
BRANCH  15  22
ATOM     21  C   UNL     1      52.818   1.153  17.744  0.00  0.00    +0.000 C 
ATOM     22  C   UNL     1      52.453   2.575  18.179  0.00  0.00    +0.000 C 
ATOM     23  C   UNL     1      53.515   3.576  17.720  0.00  0.00    +0.000 C 
ENDBRANCH  15  22
ENDBRANCH  14  18
ENDBRANCH   1  14
TORSDOF 4
ENDMDL
MODEL 6
REMARK VINA RESULT:    -6.472      2.979      4.420
REMARK INTER + INTRA:          -8.344
REMARK INTER:                  -7.892
REMARK INTRA:                  -0.452
REMARK UNBOUND:                -0.358
REMARK  Name = 
REMARK  6 active torsions:
REMARK  status: ('A' for Active; 'I' for Inactive)
REMARK    1  A    between atoms: C_1  and  C_2
REMARK    2  A    between atoms: C_2  and  C_3
REMARK    3  A    between atoms: C_2  and  C_4
REMARK    4  A    between atoms: C_7  and  C_8
REMARK    5  A    between atoms: C_8  and  N_9
REMARK    6  A    between atoms: C_13  and  C_14
REMARK                            x       y       z     vdW  Elec       q    Type
REMARK                         _______ _______ _______ _____ _____    ______ ____
ROOT
ATOM      1  N   UNL     1      46.331   4.309  15.063  0.00  0.00    +0.000 N 
ATOM      2  C   UNL     1      47.363   4.331  16.019  0.00  0.00    +0.000 A 
ATOM      3  C   UNL     1      47.332   3.398  17.053  0.00  0.00    +0.000 A 
ATOM      4  C   UNL     1      48.338   3.404  18.023  0.00  0.00    +0.000 A 
ATOM      5  C   UNL     1      49.362   4.346  17.932  0.00  0.00    +0.000 A 
ATOM      6  C   UNL     1      49.325   5.235  16.871  0.00  0.00    +0.000 A 
ATOM      7  N   UNL     1      48.344   5.252  15.935  0.00  0.00    +0.000 NA
ATOM      8  H   UNL     1      46.298   3.390  14.631  0.00  0.00    +0.000 HD
ENDROOT
BRANCH   5   9
ATOM      9  C   UNL     1      50.487   4.428  18.884  0.00  0.00    +0.000 C 
ATOM     10  N   UNL     1      51.530   3.565  18.702  0.00  0.00    +0.000 N 
ATOM     11  O   UNL     1      50.475   5.216  19.819  0.00  0.00    +0.000 OA
ATOM     12  H   UNL     1      51.474   2.754  18.104  0.00  0.00    +0.000 HD
ATOM     13  H   UNL     1      52.243   3.566  19.423  0.00  0.00    +0.000 HD
ENDBRANCH   5   9
BRANCH   1  14
ATOM     14  C   UNL     1      46.476   5.359  14.059  0.00  0.00    +0.000 C 
BRANCH  14  18
ATOM     15  C   UNL     1      45.128   3.986  10.167  0.00  0.00    +0.000 A 
ATOM     16  C   UNL     1      45.551   5.312  10.336  0.00  0.00    +0.000 A 
ATOM     17  C   UNL     1      45.969   5.777  11.589  0.00  0.00    +0.000 A 
ATOM     18  C   UNL     1      45.954   4.932  12.704  0.00  0.00    +0.000 A 
ATOM     19  C   UNL     1      45.532   3.605  12.533  0.00  0.00    +0.000 A 
ATOM     20  C   UNL     1      45.121   3.139  11.284  0.00  0.00    +0.000 A 
BRANCH  15  22
ATOM     21  C   UNL     1      45.718   3.864   7.717  0.00  0.00    +0.000 C 
ATOM     22  C   UNL     1      44.699   3.491   8.798  0.00  0.00    +0.000 C 
ATOM     23  C   UNL     1      44.444   1.982   8.810  0.00  0.00    +0.000 C 
ENDBRANCH  15  22
ENDBRANCH  14  18
ENDBRANCH   1  14
TORSDOF 4
ENDMDL
MODEL 7
REMARK VINA RESULT:    -6.176      4.184      8.941
REMARK INTER + INTRA:          -7.978
REMARK INTER:                  -7.561
REMARK INTRA:                  -0.417
REMARK UNBOUND:                -0.358
REMARK  Name = 
REMARK  6 active torsions:
REMARK  status: ('A' for Active; 'I' for Inactive)
REMARK    1  A    between atoms: C_1  and  C_2
REMARK    2  A    between atoms: C_2  and  C_3
REMARK    3  A    between atoms: C_2  and  C_4
REMARK    4  A    between atoms: C_7  and  C_8
REMARK    5  A    between atoms: C_8  and  N_9
REMARK    6  A    between atoms: C_13  and  C_14
REMARK                            x       y       z     vdW  Elec       q    Type
REMARK                         _______ _______ _______ _____ _____    ______ ____
ROOT
ATOM      1  N   UNL     1      46.971   5.048  14.848  0.00  0.00    +0.000 N 
ATOM      2  C   UNL     1      46.301   4.719  13.656  0.00  0.00    +0.000 A 
ATOM      3  C   UNL     1      45.837   5.753  12.846  0.00  0.00    +0.000 A 
ATOM      4  C   UNL     1      45.157   5.454  11.662  0.00  0.00    +0.000 A 
ATOM      5  C   UNL     1      44.960   4.119  11.311  0.00  0.00    +0.000 A 
ATOM      6  C   UNL     1      45.457   3.150  12.165  0.00  0.00    +0.000 A 
ATOM      7  N   UNL     1      46.101   3.426  13.326  0.00  0.00    +0.000 NA
ATOM      8  H   UNL     1      47.773   5.632  14.628  0.00  0.00    +0.000 HD
ENDROOT
BRANCH   5   9
ATOM      9  C   UNL     1      44.279   3.690  10.074  0.00  0.00    +0.000 C 
ATOM     10  N   UNL     1      43.975   4.654   9.155  0.00  0.00    +0.000 N 
ATOM     11  O   UNL     1      43.971   2.521   9.889  0.00  0.00    +0.000 OA
ATOM     12  H   UNL     1      43.992   5.641   9.368  0.00  0.00    +0.000 HD
ATOM     13  H   UNL     1      43.418   4.357   8.361  0.00  0.00    +0.000 HD
ENDBRANCH   5   9
BRANCH   1  14
ATOM     14  C   UNL     1      47.373   3.867  15.609  0.00  0.00    +0.000 C 
BRANCH  14  18
ATOM     15  C   UNL     1      49.030   5.096  19.429  0.00  0.00    +0.000 A 
ATOM     16  C   UNL     1      49.693   4.136  18.652  0.00  0.00    +0.000 A 
ATOM     17  C   UNL     1      49.162   3.712  17.428  0.00  0.00    +0.000 A 
ATOM     18  C   UNL     1      47.946   4.226  16.962  0.00  0.00    +0.000 A 
ATOM     19  C   UNL     1      47.285   5.188  17.740  0.00  0.00    +0.000 A 
ATOM     20  C   UNL     1      47.816   5.615  18.957  0.00  0.00    +0.000 A 
BRANCH  15  22
ATOM     21  C   UNL     1      48.842   5.032  21.944  0.00  0.00    +0.000 C 
ATOM     22  C   UNL     1      49.630   5.561  20.743  0.00  0.00    +0.000 C 
ATOM     23  C   UNL     1      51.107   5.173  20.845  0.00  0.00    +0.000 C 
ENDBRANCH  15  22
ENDBRANCH  14  18
ENDBRANCH   1  14
TORSDOF 4
ENDMDL
MODEL 8
REMARK VINA RESULT:    -5.881      3.884      6.866
REMARK INTER + INTRA:          -7.614
REMARK INTER:                  -7.155
REMARK INTRA:                  -0.459
REMARK UNBOUND:                -0.358
REMARK  Name = 
REMARK  6 active torsions:
REMARK  status: ('A' for Active; 'I' for Inactive)
REMARK    1  A    between atoms: C_1  and  C_2
REMARK    2  A    between atoms: C_2  and  C_3
REMARK    3  A    between atoms: C_2  and  C_4
REMARK    4  A    between atoms: C_7  and  C_8
REMARK    5  A    between atoms: C_8  and  N_9
REMARK    6  A    between atoms: C_13  and  C_14
REMARK                            x       y       z     vdW  Elec       q    Type
REMARK                         _______ _______ _______ _____ _____    ______ ____
ROOT
ATOM      1  N   UNL     1      46.612   7.216  13.430  0.00  0.00    +0.000 N 
ATOM      2  C   UNL     1      45.959   6.118  12.842  0.00  0.00    +0.000 A 
ATOM      3  C   UNL     1      45.917   4.915  13.544  0.00  0.00    +0.000 A 
ATOM      4  C   UNL     1      45.285   3.804  12.979  0.00  0.00    +0.000 A 
ATOM      5  C   UNL     1      44.702   3.924  11.718  0.00  0.00    +0.000 A 
ATOM      6  C   UNL     1      44.781   5.154  11.088  0.00  0.00    +0.000 A 
ATOM      7  N   UNL     1      45.408   6.234  11.617  0.00  0.00    +0.000 NA
ATOM      8  H   UNL     1      46.183   7.415  14.329  0.00  0.00    +0.000 HD
ENDROOT
BRANCH   5   9
ATOM      9  C   UNL     1      43.988   2.826  11.038  0.00  0.00    +0.000 C 
ATOM     10  N   UNL     1      44.549   2.319   9.900  0.00  0.00    +0.000 N 
ATOM     11  O   UNL     1      42.919   2.403  11.457  0.00  0.00    +0.000 OA
ATOM     12  H   UNL     1      45.288   2.788   9.396  0.00  0.00    +0.000 HD
ATOM     13  H   UNL     1      43.996   1.638   9.393  0.00  0.00    +0.000 HD
ENDBRANCH   5   9
BRANCH   1  14
ATOM     14  C   UNL     1      46.605   8.397  12.571  0.00  0.00    +0.000 C 
BRANCH  14  18
ATOM     15  C   UNL     1      50.639   9.257  11.217  0.00  0.00    +0.000 A 
ATOM     16  C   UNL     1      49.724  10.302  11.407  0.00  0.00    +0.000 A 
ATOM     17  C   UNL     1      48.413  10.041  11.822  0.00  0.00    +0.000 A 
ATOM     18  C   UNL     1      47.982   8.727  12.038  0.00  0.00    +0.000 A 
ATOM     19  C   UNL     1      48.899   7.682  11.849  0.00  0.00    +0.000 A 
ATOM     20  C   UNL     1      50.207   7.942  11.441  0.00  0.00    +0.000 A 
BRANCH  15  22
ATOM     21  C   UNL     1      52.796   8.294  10.329  0.00  0.00    +0.000 C 
ATOM     22  C   UNL     1      52.063   9.558  10.788  0.00  0.00    +0.000 C 
ATOM     23  C   UNL     1      52.098  10.634   9.700  0.00  0.00    +0.000 C 
ENDBRANCH  15  22
ENDBRANCH  14  18
ENDBRANCH   1  14
TORSDOF 4
ENDMDL
MODEL 9
REMARK VINA RESULT:    -5.815      3.734      5.618
REMARK INTER + INTRA:          -7.533
REMARK INTER:                  -7.035
REMARK INTRA:                  -0.498
REMARK UNBOUND:                -0.358
REMARK  Name = 
REMARK  6 active torsions:
REMARK  status: ('A' for Active; 'I' for Inactive)
REMARK    1  A    between atoms: C_1  and  C_2
REMARK    2  A    between atoms: C_2  and  C_3
REMARK    3  A    between atoms: C_2  and  C_4
REMARK    4  A    between atoms: C_7  and  C_8
REMARK    5  A    between atoms: C_8  and  N_9
REMARK    6  A    between atoms: C_13  and  C_14
REMARK                            x       y       z     vdW  Elec       q    Type
REMARK                         _______ _______ _______ _____ _____    ______ ____
ROOT
ATOM      1  N   UNL     1      48.337   7.394  15.031  0.00  0.00    +0.000 N 
ATOM      2  C   UNL     1      48.671   6.727  16.224  0.00  0.00    +0.000 A 
ATOM      3  C   UNL     1      48.550   7.417  17.428  0.00  0.00    +0.000 A 
ATOM      4  C   UNL     1      48.887   6.783  18.627  0.00  0.00    +0.000 A 
ATOM      5  C   UNL     1      49.334   5.463  18.594  0.00  0.00    +0.000 A 
ATOM      6  C   UNL     1      49.420   4.845  17.359  0.00  0.00    +0.000 A 
ATOM      7  N   UNL     1      49.116   5.454  16.187  0.00  0.00    +0.000 NA
ATOM      8  H   UNL     1      47.376   7.718  15.090  0.00  0.00    +0.000 HD
ENDROOT
BRANCH   5   9
ATOM      9  C   UNL     1      49.692   4.689  19.799  0.00  0.00    +0.000 C 
ATOM     10  N   UNL     1      48.726   3.892  20.346  0.00  0.00    +0.000 N 
ATOM     11  O   UNL     1      50.800   4.779  20.309  0.00  0.00    +0.000 OA
ATOM     12  H   UNL     1      47.748   3.971  20.107  0.00  0.00    +0.000 HD
ATOM     13  H   UNL     1      48.957   3.449  21.228  0.00  0.00    +0.000 HD
ENDBRANCH   5   9
BRANCH   1  14
ATOM     14  C   UNL     1      48.540   6.561  13.849  0.00  0.00    +0.000 C 
BRANCH  14  18
ATOM     15  C   UNL     1      44.868   5.203  11.972  0.00  0.00    +0.000 A 
ATOM     16  C   UNL     1      45.606   6.247  11.397  0.00  0.00    +0.000 A 
ATOM     17  C   UNL     1      46.781   6.712  12.000  0.00  0.00    +0.000 A 
ATOM     18  C   UNL     1      47.233   6.156  13.203  0.00  0.00    +0.000 A 
ATOM     19  C   UNL     1      46.494   5.110  13.776  0.00  0.00    +0.000 A 
ATOM     20  C   UNL     1      45.327   4.643  13.172  0.00  0.00    +0.000 A 
BRANCH  15  22
ATOM     21  C   UNL     1      43.459   3.179  11.439  0.00  0.00    +0.000 C 
ATOM     22  C   UNL     1      43.608   4.696  11.294  0.00  0.00    +0.000 C 
ATOM     23  C   UNL     1      42.367   5.420  11.820  0.00  0.00    +0.000 C 
ENDBRANCH  15  22
ENDBRANCH  14  18
ENDBRANCH   1  14
TORSDOF 4
ENDMDL
