MODEL 1
REMARK VINA RESULT:    -7.028      0.000      0.000
REMARK INTER + INTRA:          -8.099
REMARK INTER:                  -8.260
REMARK INTRA:                   0.161
REMARK UNBOUND:                 0.161
REMARK  Name = 
REMARK  5 active torsions:
REMARK  status: ('A' for Active; 'I' for Inactive)
REMARK    1  A    between atoms: C_1  and  C_2
REMARK    2  A    between atoms: C_2  and  C_3
REMARK    3  A    between atoms: C_2  and  N_9
REMARK    4  A    between atoms: N_9  and  C_10
REMARK    5  A    between atoms: C_11  and  C_13
REMARK                            x       y       z     vdW  Elec       q    Type
REMARK                         _______ _______ _______ _____ _____    ______ ____
ROOT
ATOM      1  N   UNL     1      44.797   4.738  12.633  0.00  0.00    +0.000 N 
ATOM      2  C   UNL     1      44.398   6.098  12.973  0.00  0.00    +0.000 C 
ATOM      3  C   UNL     1      45.951   4.101  13.127  0.00  0.00    +0.000 C 
ATOM      4  O   UNL     1      46.241   2.956  12.785  0.00  0.00    +0.000 OA
ENDROOT
BRANCH   3   5
ATOM      5  C   UNL     1      46.823   4.801  14.089  0.00  0.00    +0.000 A 
ATOM      6  C   UNL     1      46.995   4.440  15.414  0.00  0.00    +0.000 A 
ATOM      7  S   UNL     1      48.108   5.421  16.259  0.00  0.00    +0.000 S 
ATOM      8  C   UNL     1      48.507   6.277  14.846  0.00  0.00    +0.000 A 
ATOM      9  N   UNL     1      49.486   7.224  14.858  0.00  0.00    +0.000 NA
ATOM     10  C   UNL     1      49.728   7.743  13.699  0.00  0.00    +0.000 A 
ATOM     11  N   UNL     1      49.058   7.428  12.545  0.00  0.00    +0.000 N 
ATOM     12  C   UNL     1      47.971   6.580  12.513  0.00  0.00    +0.000 A 
ATOM     13  O   UNL     1      47.263   6.504  11.517  0.00  0.00    +0.000 OA
ATOM     14  C   UNL     1      47.737   5.880  13.766  0.00  0.00    +0.000 A 
ATOM     15  H   UNL     1      49.256   7.919  11.688  0.00  0.00    +0.000 HD
ENDBRANCH   3   5
BRANCH   1  17
ATOM     16  C   UNL     1      43.425   2.714  12.212  0.00  0.00    +0.000 C 
ATOM     17  C   UNL     1      43.986   4.019  11.624  0.00  0.00    +0.000 C 
BRANCH  17  18
ATOM     18  C   UNL     1      44.715   3.850  10.292  0.00  0.00    +0.000 A 
ATOM     19  C   UNL     1      45.263   4.928   9.578  0.00  0.00    +0.000 A 
ATOM     20  C   UNL     1      45.919   4.723   8.360  0.00  0.00    +0.000 A 
ATOM     21  C   UNL     1      46.043   3.439   7.838  0.00  0.00    +0.000 A 
ATOM     22  C   UNL     1      45.511   2.357   8.533  0.00  0.00    +0.000 A 
ATOM     23  C   UNL     1      44.846   2.561   9.745  0.00  0.00    +0.000 A 
ENDBRANCH  17  18
ENDBRANCH   1  17
TORSDOF 3
ENDMDL
MODEL 2
REMARK VINA RESULT:    -6.944      1.585      2.817
REMARK INTER + INTRA:          -8.001
REMARK INTER:                  -8.172
REMARK INTRA:                   0.172
REMARK UNBOUND:                 0.161
REMARK  Name = 
REMARK  5 active torsions:
REMARK  status: ('A' for Active; 'I' for Inactive)
REMARK    1  A    between atoms: C_1  and  C_2
REMARK    2  A    between atoms: C_2  and  C_3
REMARK    3  A    between atoms: C_2  and  N_9
REMARK    4  A    between atoms: N_9  and  C_10
REMARK    5  A    between atoms: C_11  and  C_13
REMARK                            x       y       z     vdW  Elec       q    Type
REMARK                         _______ _______ _______ _____ _____    ______ ____
ROOT
ATOM      1  N   UNL     1      45.115   5.787  12.085  0.00  0.00    +0.000 N 
ATOM      2  C   UNL     1      44.384   5.541  13.322  0.00  0.00    +0.000 C 
ATOM      3  C   UNL     1      46.466   6.180  12.024  0.00  0.00    +0.000 C 
ATOM      4  O   UNL     1      47.018   6.390  10.946  0.00  0.00    +0.000 OA
ENDROOT
BRANCH   3   5
ATOM      5  C   UNL     1      47.247   6.323  13.267  0.00  0.00    +0.000 A 
ATOM      6  C   UNL     1      47.768   7.512  13.746  0.00  0.00    +0.000 A 
ATOM      7  S   UNL     1      48.586   7.358  15.236  0.00  0.00    +0.000 S 
ATOM      8  C   UNL     1      48.151   5.721  15.367  0.00  0.00    +0.000 A 
ATOM      9  N   UNL     1      48.469   5.001  16.478  0.00  0.00    +0.000 NA
ATOM     10  C   UNL     1      48.016   3.790  16.467  0.00  0.00    +0.000 A 
ATOM     11  N   UNL     1      47.309   3.229  15.435  0.00  0.00    +0.000 N 
ATOM     12  C   UNL     1      47.086   3.873  14.237  0.00  0.00    +0.000 A 
ATOM     13  O   UNL     1      46.658   3.263  13.266  0.00  0.00    +0.000 OA
ATOM     14  C   UNL     1      47.470   5.276  14.246  0.00  0.00    +0.000 A 
ATOM     15  H   UNL     1      47.042   2.258  15.467  0.00  0.00    +0.000 HD
ENDBRANCH   3   5
BRANCH   1  17
ATOM     16  C   UNL     1      42.851   5.896  11.077  0.00  0.00    +0.000 C 
ATOM     17  C   UNL     1      44.355   5.715  10.816  0.00  0.00    +0.000 C 
BRANCH  17  18
ATOM     18  C   UNL     1      44.708   4.483   9.985  0.00  0.00    +0.000 A 
ATOM     19  C   UNL     1      44.335   3.180  10.353  0.00  0.00    +0.000 A 
ATOM     20  C   UNL     1      44.684   2.081   9.561  0.00  0.00    +0.000 A 
ATOM     21  C   UNL     1      45.406   2.266   8.386  0.00  0.00    +0.000 A 
ATOM     22  C   UNL     1      45.781   3.551   8.001  0.00  0.00    +0.000 A 
ATOM     23  C   UNL     1      45.442   4.648   8.797  0.00  0.00    +0.000 A 
ENDBRANCH  17  18
ENDBRANCH   1  17
TORSDOF 3
ENDMDL
MODEL 3
REMARK VINA RESULT:    -6.914      1.607      2.442
REMARK INTER + INTRA:          -7.966
REMARK INTER:                  -8.301
REMARK INTRA:                   0.335
REMARK UNBOUND:                 0.161
REMARK  Name = 
REMARK  5 active torsions:
REMARK  status: ('A' for Active; 'I' for Inactive)
REMARK    1  A    between atoms: C_1  and  C_2
REMARK    2  A    between atoms: C_2  and  C_3
REMARK    3  A    between atoms: C_2  and  N_9
REMARK    4  A    between atoms: N_9  and  C_10
REMARK    5  A    between atoms: C_11  and  C_13
REMARK                            x       y       z     vdW  Elec       q    Type
REMARK                         _______ _______ _______ _____ _____    ______ ____
ROOT
ATOM      1  N   UNL     1      45.216   5.551  12.564  0.00  0.00    +0.000 N 
ATOM      2  C   UNL     1      45.048   6.999  12.563  0.00  0.00    +0.000 C 
ATOM      3  C   UNL     1      46.352   4.882  13.059  0.00  0.00    +0.000 C 
ATOM      4  O   UNL     1      46.439   3.656  13.011  0.00  0.00    +0.000 OA
ENDROOT
BRANCH   3   5
ATOM      5  C   UNL     1      47.451   5.653  13.668  0.00  0.00    +0.000 A 
ATOM      6  C   UNL     1      48.202   6.616  13.018  0.00  0.00    +0.000 A 
ATOM      7  S   UNL     1      49.374   7.365  14.009  0.00  0.00    +0.000 S 
ATOM      8  C   UNL     1      48.824   6.529  15.382  0.00  0.00    +0.000 A 
ATOM      9  N   UNL     1      49.356   6.780  16.610  0.00  0.00    +0.000 NA
ATOM     10  C   UNL     1      48.794   6.122  17.571  0.00  0.00    +0.000 A 
ATOM     11  N   UNL     1      47.780   5.213  17.408  0.00  0.00    +0.000 N 
ATOM     12  C   UNL     1      47.307   4.826  16.171  0.00  0.00    +0.000 A 
ATOM     13  O   UNL     1      46.572   3.855  16.056  0.00  0.00    +0.000 OA
ATOM     14  C   UNL     1      47.822   5.626  15.070  0.00  0.00    +0.000 A 
ATOM     15  H   UNL     1      47.432   4.688  18.194  0.00  0.00    +0.000 HD
ENDBRANCH   3   5
BRANCH   1  17
ATOM     16  C   UNL     1      43.581   3.713  12.891  0.00  0.00    +0.000 C 
ATOM     17  C   UNL     1      44.165   4.740  11.906  0.00  0.00    +0.000 C 
BRANCH  17  18
ATOM     18  C   UNL     1      44.622   4.148  10.574  0.00  0.00    +0.000 A 
ATOM     19  C   UNL     1      45.301   4.896   9.598  0.00  0.00    +0.000 A 
ATOM     20  C   UNL     1      45.697   4.312   8.391  0.00  0.00    +0.000 A 
ATOM     21  C   UNL     1      45.427   2.969   8.141  0.00  0.00    +0.000 A 
ATOM     22  C   UNL     1      44.760   2.209   9.098  0.00  0.00    +0.000 A 
ATOM     23  C   UNL     1      44.354   2.796  10.300  0.00  0.00    +0.000 A 
ENDBRANCH  17  18
ENDBRANCH   1  17
TORSDOF 3
ENDMDL
MODEL 4
REMARK VINA RESULT:    -6.501      3.122      6.538
REMARK INTER + INTRA:          -7.480
REMARK INTER:                  -7.682
REMARK INTRA:                   0.202
REMARK UNBOUND:                 0.161
REMARK  Name = 
REMARK  5 active torsions:
REMARK  status: ('A' for Active; 'I' for Inactive)
REMARK    1  A    between atoms: C_1  and  C_2
REMARK    2  A    between atoms: C_2  and  C_3
REMARK    3  A    between atoms: C_2  and  N_9
REMARK    4  A    between atoms: N_9  and  C_10
REMARK    5  A    between atoms: C_11  and  C_13
REMARK                            x       y       z     vdW  Elec       q    Type
REMARK                         _______ _______ _______ _____ _____    ______ ____
ROOT
ATOM      1  N   UNL     1      47.726   4.330  15.916  0.00  0.00    +0.000 N 
ATOM      2  C   UNL     1      47.735   5.566  16.688  0.00  0.00    +0.000 C 
ATOM      3  C   UNL     1      47.365   4.243  14.558  0.00  0.00    +0.000 C 
ATOM      4  O   UNL     1      47.360   3.163  13.969  0.00  0.00    +0.000 OA
ENDROOT
BRANCH   3   5
ATOM      5  C   UNL     1      47.007   5.464  13.813  0.00  0.00    +0.000 A 
ATOM      6  C   UNL     1      47.855   6.533  13.583  0.00  0.00    +0.000 A 
ATOM      7  S   UNL     1      47.159   7.779  12.647  0.00  0.00    +0.000 S 
ATOM      8  C   UNL     1      45.745   6.872  12.393  0.00  0.00    +0.000 A 
ATOM      9  N   UNL     1      44.755   7.337  11.583  0.00  0.00    +0.000 NA
ATOM     10  C   UNL     1      43.771   6.512  11.428  0.00  0.00    +0.000 A 
ATOM     11  N   UNL     1      43.675   5.287  12.037  0.00  0.00    +0.000 N 
ATOM     12  C   UNL     1      44.584   4.837  12.971  0.00  0.00    +0.000 A 
ATOM     13  O   UNL     1      44.345   3.852  13.657  0.00  0.00    +0.000 OA
ATOM     14  C   UNL     1      45.768   5.675  13.088  0.00  0.00    +0.000 A 
ATOM     15  H   UNL     1      42.849   4.722  11.923  0.00  0.00    +0.000 HD
ENDBRANCH   3   5
BRANCH   1  17
ATOM     16  C   UNL     1      47.023   2.865  17.790  0.00  0.00    +0.000 C 
ATOM     17  C   UNL     1      48.020   3.071  16.638  0.00  0.00    +0.000 C 
BRANCH  17  18
ATOM     18  C   UNL     1      49.488   2.951  17.044  0.00  0.00    +0.000 A 
ATOM     19  C   UNL     1      50.252   4.045  17.481  0.00  0.00    +0.000 A 
ATOM     20  C   UNL     1      51.595   3.887  17.839  0.00  0.00    +0.000 A 
ATOM     21  C   UNL     1      52.194   2.633  17.773  0.00  0.00    +0.000 A 
ATOM     22  C   UNL     1      51.452   1.534  17.348  0.00  0.00    +0.000 A 
ATOM     23  C   UNL     1      50.113   1.693  16.979  0.00  0.00    +0.000 A 
ENDBRANCH  17  18
ENDBRANCH   1  17
TORSDOF 3
ENDMDL
MODEL 5
REMARK VINA RESULT:    -6.392      1.478      1.840
REMARK INTER + INTRA:          -7.352
REMARK INTER:                  -7.544
REMARK INTRA:                   0.192
REMARK UNBOUND:                 0.161
REMARK  Name = 
REMARK  5 active torsions:
REMARK  status: ('A' for Active; 'I' for Inactive)
REMARK    1  A    between atoms: C_1  and  C_2
REMARK    2  A    between atoms: C_2  and  C_3
REMARK    3  A    between atoms: C_2  and  N_9
REMARK    4  A    between atoms: N_9  and  C_10
REMARK    5  A    between atoms: C_11  and  C_13
REMARK                            x       y       z     vdW  Elec       q    Type
REMARK                         _______ _______ _______ _____ _____    ______ ____
ROOT
ATOM      1  N   UNL     1      45.140   5.171  12.332  0.00  0.00    +0.000 N 
ATOM      2  C   UNL     1      44.238   4.548  13.292  0.00  0.00    +0.000 C 
ATOM      3  C   UNL     1      46.458   5.571  12.622  0.00  0.00    +0.000 C 
ATOM      4  O   UNL     1      47.162   6.109  11.770  0.00  0.00    +0.000 OA
ENDROOT
BRANCH   3   5
ATOM      5  C   UNL     1      47.023   5.324  13.962  0.00  0.00    +0.000 A 
ATOM      6  C   UNL     1      46.996   4.109  14.625  0.00  0.00    +0.000 A 
ATOM      7  S   UNL     1      47.775   4.132  16.143  0.00  0.00    +0.000 S 
ATOM      8  C   UNL     1      48.302   5.730  15.908  0.00  0.00    +0.000 A 
ATOM      9  N   UNL     1      49.112   6.338  16.818  0.00  0.00    +0.000 NA
ATOM     10  C   UNL     1      49.489   7.526  16.476  0.00  0.00    +0.000 A 
ATOM     11  N   UNL     1      49.100   8.170  15.329  0.00  0.00    +0.000 N 
ATOM     12  C   UNL     1      48.173   7.649  14.450  0.00  0.00    +0.000 A 
ATOM     13  O   UNL     1      47.682   8.344  13.570  0.00  0.00    +0.000 OA
ATOM     14  C   UNL     1      47.813   6.267  14.729  0.00  0.00    +0.000 A 
ATOM     15  H   UNL     1      49.380   9.122  15.156  0.00  0.00    +0.000 HD
ENDBRANCH   3   5
BRANCH   1  17
ATOM     16  C   UNL     1      43.081   5.743  11.071  0.00  0.00    +0.000 C 
ATOM     17  C   UNL     1      44.596   5.494  10.993  0.00  0.00    +0.000 C 
BRANCH  17  18
ATOM     18  C   UNL     1      45.015   4.484   9.925  0.00  0.00    +0.000 A 
ATOM     19  C   UNL     1      45.760   4.838   8.788  0.00  0.00    +0.000 A 
ATOM     20  C   UNL     1      46.118   3.879   7.836  0.00  0.00    +0.000 A 
ATOM     21  C   UNL     1      45.743   2.549   8.006  0.00  0.00    +0.000 A 
ATOM     22  C   UNL     1      45.009   2.177   9.129  0.00  0.00    +0.000 A 
ATOM     23  C   UNL     1      44.642   3.137  10.076  0.00  0.00    +0.000 A 
ENDBRANCH  17  18
ENDBRANCH   1  17
TORSDOF 3
ENDMDL
MODEL 6
REMARK VINA RESULT:    -6.100      2.500      6.709
REMARK INTER + INTRA:          -7.009
REMARK INTER:                  -6.401
REMARK INTRA:                  -0.608
REMARK UNBOUND:                 0.161
REMARK  Name = 
REMARK  5 active torsions:
REMARK  status: ('A' for Active; 'I' for Inactive)
REMARK    1  A    between atoms: C_1  and  C_2
REMARK    2  A    between atoms: C_2  and  C_3
REMARK    3  A    between atoms: C_2  and  N_9
REMARK    4  A    between atoms: N_9  and  C_10
REMARK    5  A    between atoms: C_11  and  C_13
REMARK                            x       y       z     vdW  Elec       q    Type
REMARK                         _______ _______ _______ _____ _____    ______ ____
ROOT
ATOM      1  N   UNL     1      47.104   6.938  12.621  0.00  0.00    +0.000 N 
ATOM      2  C   UNL     1      47.870   5.804  13.123  0.00  0.00    +0.000 C 
ATOM      3  C   UNL     1      45.832   6.838  12.027  0.00  0.00    +0.000 C 
ATOM      4  O   UNL     1      45.247   7.834  11.606  0.00  0.00    +0.000 OA
ENDROOT
BRANCH   3   5
ATOM      5  C   UNL     1      45.169   5.525  11.925  0.00  0.00    +0.000 A 
ATOM      6  C   UNL     1      44.439   4.922  12.934  0.00  0.00    +0.000 A 
ATOM      7  S   UNL     1      43.756   3.421  12.492  0.00  0.00    +0.000 S 
ATOM      8  C   UNL     1      44.293   3.588  10.888  0.00  0.00    +0.000 A 
ATOM      9  N   UNL     1      43.961   2.668   9.942  0.00  0.00    +0.000 NA
ATOM     10  C   UNL     1      44.381   2.959   8.755  0.00  0.00    +0.000 A 
ATOM     11  N   UNL     1      45.128   4.065   8.439  0.00  0.00    +0.000 N 
ATOM     12  C   UNL     1      45.604   4.948   9.386  0.00  0.00    +0.000 A 
ATOM     13  O   UNL     1      46.452   5.782   9.097  0.00  0.00    +0.000 OA
ATOM     14  C   UNL     1      45.059   4.729  10.717  0.00  0.00    +0.000 A 
ATOM     15  H   UNL     1      45.477   4.197   7.503  0.00  0.00    +0.000 HD
ENDBRANCH   3   5
BRANCH   1  17
ATOM     16  C   UNL     1      48.662   8.449  11.418  0.00  0.00    +0.000 C 
ATOM     17  C   UNL     1      47.755   8.268  12.647  0.00  0.00    +0.000 C 
BRANCH  17  18
ATOM     18  C   UNL     1      48.434   8.567  13.982  0.00  0.00    +0.000 A 
ATOM     19  C   UNL     1      47.719   8.871  15.153  0.00  0.00    +0.000 A 
ATOM     20  C   UNL     1      48.385   9.142  16.352  0.00  0.00    +0.000 A 
ATOM     21  C   UNL     1      49.775   9.108  16.405  0.00  0.00    +0.000 A 
ATOM     22  C   UNL     1      50.502   8.804  15.257  0.00  0.00    +0.000 A 
ATOM     23  C   UNL     1      49.838   8.544  14.055  0.00  0.00    +0.000 A 
ENDBRANCH  17  18
ENDBRANCH   1  17
TORSDOF 3
ENDMDL
MODEL 7
REMARK VINA RESULT:    -6.074      1.855      2.517
REMARK INTER + INTRA:          -6.978
REMARK INTER:                  -7.397
REMARK INTRA:                   0.419
REMARK UNBOUND:                 0.161
REMARK  Name = 
REMARK  5 active torsions:
REMARK  status: ('A' for Active; 'I' for Inactive)
REMARK    1  A    between atoms: C_1  and  C_2
REMARK    2  A    between atoms: C_2  and  C_3
REMARK    3  A    between atoms: C_2  and  N_9
REMARK    4  A    between atoms: N_9  and  C_10
REMARK    5  A    between atoms: C_11  and  C_13
REMARK                            x       y       z     vdW  Elec       q    Type
REMARK                         _______ _______ _______ _____ _____    ______ ____
ROOT
ATOM      1  N   UNL     1      45.090   5.578  12.082  0.00  0.00    +0.000 N 
ATOM      2  C   UNL     1      44.935   4.797  13.303  0.00  0.00    +0.000 C 
ATOM      3  C   UNL     1      46.026   6.616  11.915  0.00  0.00    +0.000 C 
ATOM      4  O   UNL     1      46.093   7.249  10.863  0.00  0.00    +0.000 OA
ENDROOT
BRANCH   3   5
ATOM      5  C   UNL     1      46.964   6.942  13.006  0.00  0.00    +0.000 A 
ATOM      6  C   UNL     1      47.649   6.014  13.770  0.00  0.00    +0.000 A 
ATOM      7  S   UNL     1      48.696   6.707  14.926  0.00  0.00    +0.000 S 
ATOM      8  C   UNL     1      48.381   8.275  14.350  0.00  0.00    +0.000 A 
ATOM      9  N   UNL     1      49.040   9.351  14.861  0.00  0.00    +0.000 NA
ATOM     10  C   UNL     1      48.749  10.469  14.281  0.00  0.00    +0.000 A 
ATOM     11  N   UNL     1      47.836  10.610  13.267  0.00  0.00    +0.000 N 
ATOM     12  C   UNL     1      47.046   9.574  12.816  0.00  0.00    +0.000 A 
ATOM     13  O   UNL     1      46.092   9.787  12.080  0.00  0.00    +0.000 OA
ATOM     14  C   UNL     1      47.421   8.275  13.352  0.00  0.00    +0.000 A 
ATOM     15  H   UNL     1      47.611  11.523  12.905  0.00  0.00    +0.000 HD
ENDBRANCH   3   5
BRANCH   1  17
ATOM     16  C   UNL     1      42.725   5.056  11.545  0.00  0.00    +0.000 C 
ATOM     17  C   UNL     1      44.130   5.326  10.983  0.00  0.00    +0.000 C 
BRANCH  17  18
ATOM     18  C   UNL     1      44.628   4.274   9.993  0.00  0.00    +0.000 A 
ATOM     19  C   UNL     1      44.350   2.903  10.130  0.00  0.00    +0.000 A 
ATOM     20  C   UNL     1      44.831   1.976   9.200  0.00  0.00    +0.000 A 
ATOM     21  C   UNL     1      45.590   2.403   8.114  0.00  0.00    +0.000 A 
ATOM     22  C   UNL     1      45.872   3.757   7.958  0.00  0.00    +0.000 A 
ATOM     23  C   UNL     1      45.401   4.683   8.893  0.00  0.00    +0.000 A 
ENDBRANCH  17  18
ENDBRANCH   1  17
TORSDOF 3
ENDMDL
MODEL 8
REMARK VINA RESULT:    -6.001      2.788      7.137
REMARK INTER + INTRA:          -6.892
REMARK INTER:                  -6.063
REMARK INTRA:                  -0.830
REMARK UNBOUND:                 0.161
REMARK  Name = 
REMARK  5 active torsions:
REMARK  status: ('A' for Active; 'I' for Inactive)
REMARK    1  A    between atoms: C_1  and  C_2
REMARK    2  A    between atoms: C_2  and  C_3
REMARK    3  A    between atoms: C_2  and  N_9
REMARK    4  A    between atoms: N_9  and  C_10
REMARK    5  A    between atoms: C_11  and  C_13
REMARK                            x       y       z     vdW  Elec       q    Type
REMARK                         _______ _______ _______ _____ _____    ______ ____
ROOT
ATOM      1  N   UNL     1      49.195   7.967  13.431  0.00  0.00    +0.000 N 
ATOM      2  C   UNL     1      49.589   7.285  12.205  0.00  0.00    +0.000 C 
ATOM      3  C   UNL     1      47.867   8.087  13.883  0.00  0.00    +0.000 C 
ATOM      4  O   UNL     1      47.600   8.694  14.919  0.00  0.00    +0.000 OA
ENDROOT
BRANCH   3   5
ATOM      5  C   UNL     1      46.771   7.459  13.121  0.00  0.00    +0.000 A 
ATOM      6  C   UNL     1      45.991   8.101  12.176  0.00  0.00    +0.000 A 
ATOM      7  S   UNL     1      44.833   7.090  11.432  0.00  0.00    +0.000 S 
ATOM      8  C   UNL     1      45.428   5.721  12.245  0.00  0.00    +0.000 A 
ATOM      9  N   UNL     1      44.924   4.483  11.988  0.00  0.00    +0.000 NA
ATOM     10  C   UNL     1      45.518   3.530  12.629  0.00  0.00    +0.000 A 
ATOM     11  N   UNL     1      46.541   3.708  13.524  0.00  0.00    +0.000 N 
ATOM     12  C   UNL     1      46.989   4.952  13.918  0.00  0.00    +0.000 A 
ATOM     13  O   UNL     1      47.735   5.075  14.880  0.00  0.00    +0.000 OA
ATOM     14  C   UNL     1      46.435   6.048  13.138  0.00  0.00    +0.000 A 
ATOM     15  H   UNL     1      46.915   2.926  14.036  0.00  0.00    +0.000 HD
ENDBRANCH   3   5
BRANCH   1  17
ATOM     16  C   UNL     1      51.123   9.519  13.259  0.00  0.00    +0.000 C 
ATOM     17  C   UNL     1      50.253   8.665  14.196  0.00  0.00    +0.000 C 
BRANCH  17  18
ATOM     18  C   UNL     1      51.042   7.725  15.107  0.00  0.00    +0.000 A 
ATOM     19  C   UNL     1      50.428   6.856  16.024  0.00  0.00    +0.000 A 
ATOM     20  C   UNL     1      51.192   6.016  16.840  0.00  0.00    +0.000 A 
ATOM     21  C   UNL     1      52.581   6.025  16.749  0.00  0.00    +0.000 A 
ATOM     22  C   UNL     1      53.208   6.875  15.842  0.00  0.00    +0.000 A 
ATOM     23  C   UNL     1      52.446   7.723  15.034  0.00  0.00    +0.000 A 
ENDBRANCH  17  18
ENDBRANCH   1  17
TORSDOF 3
ENDMDL
MODEL 9
REMARK VINA RESULT:    -5.909      2.362      4.305
REMARK INTER + INTRA:          -6.785
REMARK INTER:                  -6.334
REMARK INTRA:                  -0.451
REMARK UNBOUND:                 0.161
REMARK  Name = 
REMARK  5 active torsions:
REMARK  status: ('A' for Active; 'I' for Inactive)
REMARK    1  A    between atoms: C_1  and  C_2
REMARK    2  A    between atoms: C_2  and  C_3
REMARK    3  A    between atoms: C_2  and  N_9
REMARK    4  A    between atoms: N_9  and  C_10
REMARK    5  A    between atoms: C_11  and  C_13
REMARK                            x       y       z     vdW  Elec       q    Type
REMARK                         _______ _______ _______ _____ _____    ______ ____
ROOT
ATOM      1  N   UNL     1      47.466   7.672  13.571  0.00  0.00    +0.000 N 
ATOM      2  C   UNL     1      47.192   8.761  14.500  0.00  0.00    +0.000 C 
ATOM      3  C   UNL     1      48.330   6.593  13.842  0.00  0.00    +0.000 C 
ATOM      4  O   UNL     1      48.532   5.715  13.005  0.00  0.00    +0.000 OA
ENDROOT
BRANCH   3   5
ATOM      5  C   UNL     1      48.990   6.492  15.157  0.00  0.00    +0.000 A 
ATOM      6  C   UNL     1      50.033   7.294  15.586  0.00  0.00    +0.000 A 
ATOM      7  S   UNL     1      50.551   6.961  17.178  0.00  0.00    +0.000 S 
ATOM      8  C   UNL     1      49.305   5.828  17.404  0.00  0.00    +0.000 A 
ATOM      9  N   UNL     1      49.124   5.222  18.609  0.00  0.00    +0.000 NA
ATOM     10  C   UNL     1      48.098   4.437  18.653  0.00  0.00    +0.000 A 
ATOM     11  N   UNL     1      47.265   4.177  17.596  0.00  0.00    +0.000 N 
ATOM     12  C   UNL     1      47.492   4.658  16.323  0.00  0.00    +0.000 A 
ATOM     13  O   UNL     1      46.866   4.223  15.366  0.00  0.00    +0.000 OA
ATOM     14  C   UNL     1      48.562   5.641  16.250  0.00  0.00    +0.000 A 
ATOM     15  H   UNL     1      46.521   3.504  17.683  0.00  0.00    +0.000 HD
ENDBRANCH   3   5
BRANCH   1  17
ATOM     16  C   UNL     1      46.397   9.197  11.931  0.00  0.00    +0.000 C 
ATOM     17  C   UNL     1      46.874   7.763  12.217  0.00  0.00    +0.000 C 
BRANCH  17  18
ATOM     18  C   UNL     1      45.822   6.685  11.958  0.00  0.00    +0.000 A 
ATOM     19  C   UNL     1      44.820   6.356  12.885  0.00  0.00    +0.000 A 
ATOM     20  C   UNL     1      43.881   5.358  12.605  0.00  0.00    +0.000 A 
ATOM     21  C   UNL     1      43.923   4.677  11.392  0.00  0.00    +0.000 A 
ATOM     22  C   UNL     1      44.906   4.992  10.457  0.00  0.00    +0.000 A 
ATOM     23  C   UNL     1      45.851   5.981  10.741  0.00  0.00    +0.000 A 
ENDBRANCH  17  18
ENDBRANCH   1  17
TORSDOF 3
ENDMDL
