MODEL 1
REMARK VINA RESULT:    -8.412      0.000      0.000
REMARK INTER + INTRA:         -11.491
REMARK INTER:                 -10.870
REMARK INTRA:                  -0.621
REMARK UNBOUND:                -0.621
REMARK  Name = 
REMARK  6 active torsions:
REMARK  status: ('A' for Active; 'I' for Inactive)
REMARK    1  A    between atoms: C_1  and  C_2
REMARK    2  A    between atoms: C_6  and  C_7
REMARK    3  A    between atoms: C_7  and  C_8
REMARK    4  A    between atoms: C_11  and  C_12
REMARK    5  A    between atoms: C_12  and  N_13
REMARK    6  A    between atoms: C_14  and  C_16
REMARK                            x       y       z     vdW  Elec       q    Type
REMARK                         _______ _______ _______ _____ _____    ______ ____
ROOT
ATOM      1  C   UNL     1      46.357   7.502  12.931  0.00  0.00    +0.000 C 
ENDROOT
BRANCH   1   5
ATOM      2  C   UNL     1      45.060   4.330  10.288  0.00  0.00    +0.000 A 
ATOM      3  C   UNL     1      44.819   4.249  11.667  0.00  0.00    +0.000 A 
ATOM      4  C   UNL     1      45.253   5.263  12.527  0.00  0.00    +0.000 A 
ATOM      5  C   UNL     1      45.943   6.373  12.025  0.00  0.00    +0.000 A 
ATOM      6  C   UNL     1      46.249   6.415  10.658  0.00  0.00    +0.000 A 
ATOM      7  C   UNL     1      45.801   5.411   9.796  0.00  0.00    +0.000 A 
BRANCH   2   8
ATOM      8  C   UNL     1      44.491   3.293   9.344  0.00  0.00    +0.000 C 
BRANCH   8  14
ATOM      9  C   UNL     1      46.924  -0.630   7.761  0.00  0.00    +0.000 C 
ATOM     10  C   UNL     1      46.622   0.828   7.583  0.00  0.00    +0.000 A 
ATOM     11  C   UNL     1      47.201   1.552   6.547  0.00  0.00    +0.000 A 
ATOM     12  C   UNL     1      46.913   2.906   6.439  0.00  0.00    +0.000 A 
ATOM     13  C   UNL     1      46.049   3.495   7.356  0.00  0.00    +0.000 A 
ATOM     14  C   UNL     1      45.492   2.711   8.364  0.00  0.00    +0.000 A 
ATOM     15  N   UNL     1      45.772   1.387   8.481  0.00  0.00    +0.000 NA
ENDBRANCH   8  14
ENDBRANCH   2   8
ENDBRANCH   1   5
BRANCH   1  16
ATOM     16  N   UNL     1      46.958   7.016  14.145  0.00  0.00    +0.000 N 
ATOM     17  C   UNL     1      48.303   6.755  14.208  0.00  0.00    +0.000 C 
ATOM     18  O   UNL     1      49.055   6.974  13.263  0.00  0.00    +0.000 OA
ATOM     19  H   UNL     1      46.336   6.613  14.839  0.00  0.00    +0.000 HD
BRANCH  17  20
ATOM     20  C   UNL     1      48.814   6.253  15.490  0.00  0.00    +0.000 A 
ATOM     21  C   UNL     1      49.887   6.892  16.098  0.00  0.00    +0.000 A 
ATOM     22  S   UNL     1      50.338   6.201  17.591  0.00  0.00    +0.000 S 
ATOM     23  C   UNL     1      49.144   4.996  17.456  0.00  0.00    +0.000 A 
ATOM     24  N   UNL     1      49.008   4.035  18.408  0.00  0.00    +0.000 NA
ATOM     25  C   UNL     1      48.082   3.169  18.165  0.00  0.00    +0.000 A 
ATOM     26  N   UNL     1      47.271   3.183  17.059  0.00  0.00    +0.000 N 
ATOM     27  C   UNL     1      47.354   4.148  16.086  0.00  0.00    +0.000 A 
ATOM     28  O   UNL     1      46.581   4.157  15.130  0.00  0.00    +0.000 OA
ATOM     29  C   UNL     1      48.394   5.134  16.299  0.00  0.00    +0.000 A 
ATOM     30  H   UNL     1      46.553   2.485  16.936  0.00  0.00    +0.000 HD
ENDBRANCH  17  20
ENDBRANCH   1  16
TORSDOF 5
ENDMDL
MODEL 2
REMARK VINA RESULT:    -8.327      1.260      1.968
REMARK INTER + INTRA:         -11.381
REMARK INTER:                 -10.442
REMARK INTRA:                  -0.940
REMARK UNBOUND:                -0.621
REMARK  Name = 
REMARK  6 active torsions:
REMARK  status: ('A' for Active; 'I' for Inactive)
REMARK    1  A    between atoms: C_1  and  C_2
REMARK    2  A    between atoms: C_6  and  C_7
REMARK    3  A    between atoms: C_7  and  C_8
REMARK    4  A    between atoms: C_11  and  C_12
REMARK    5  A    between atoms: C_12  and  N_13
REMARK    6  A    between atoms: C_14  and  C_16
REMARK                            x       y       z     vdW  Elec       q    Type
REMARK                         _______ _______ _______ _____ _____    ______ ____
ROOT
ATOM      1  C   UNL     1      47.326   8.352  13.564  0.00  0.00    +0.000 C 
ENDROOT
BRANCH   1   5
ATOM      2  C   UNL     1      44.744   5.997  11.011  0.00  0.00    +0.000 A 
ATOM      3  C   UNL     1      46.019   5.528  11.358  0.00  0.00    +0.000 A 
ATOM      4  C   UNL     1      46.863   6.295  12.168  0.00  0.00    +0.000 A 
ATOM      5  C   UNL     1      46.451   7.548  12.638  0.00  0.00    +0.000 A 
ATOM      6  C   UNL     1      45.208   8.047  12.228  0.00  0.00    +0.000 A 
ATOM      7  C   UNL     1      44.357   7.274  11.434  0.00  0.00    +0.000 A 
BRANCH   2   8
ATOM      8  C   UNL     1      43.786   5.120  10.233  0.00  0.00    +0.000 C 
BRANCH   8  14
ATOM      9  C   UNL     1      46.706   3.787   6.558  0.00  0.00    +0.000 C 
ATOM     10  C   UNL     1      45.872   3.361   7.729  0.00  0.00    +0.000 A 
ATOM     11  C   UNL     1      45.774   2.020   8.081  0.00  0.00    +0.000 A 
ATOM     12  C   UNL     1      44.969   1.671   9.157  0.00  0.00    +0.000 A 
ATOM     13  C   UNL     1      44.294   2.666   9.855  0.00  0.00    +0.000 A 
ATOM     14  C   UNL     1      44.444   3.994   9.459  0.00  0.00    +0.000 A 
ATOM     15  N   UNL     1      45.226   4.344   8.406  0.00  0.00    +0.000 NA
ENDBRANCH   8  14
ENDBRANCH   2   8
ENDBRANCH   1   5
BRANCH   1  16
ATOM     16  N   UNL     1      47.653   7.618  14.758  0.00  0.00    +0.000 N 
ATOM     17  C   UNL     1      48.846   6.952  14.869  0.00  0.00    +0.000 C 
ATOM     18  O   UNL     1      49.703   6.997  13.991  0.00  0.00    +0.000 OA
ATOM     19  H   UNL     1      46.883   7.377  15.375  0.00  0.00    +0.000 HD
BRANCH  17  20
ATOM     20  C   UNL     1      49.077   6.226  16.125  0.00  0.00    +0.000 A 
ATOM     21  C   UNL     1      50.075   6.653  16.991  0.00  0.00    +0.000 A 
ATOM     22  S   UNL     1      50.192   5.718  18.413  0.00  0.00    +0.000 S 
ATOM     23  C   UNL     1      48.943   4.682  17.901  0.00  0.00    +0.000 A 
ATOM     24  N   UNL     1      48.560   3.621  18.658  0.00  0.00    +0.000 NA
ATOM     25  C   UNL     1      47.622   2.904  18.137  0.00  0.00    +0.000 A 
ATOM     26  N   UNL     1      47.025   3.158  16.929  0.00  0.00    +0.000 N 
ATOM     27  C   UNL     1      47.361   4.233  16.142  0.00  0.00    +0.000 A 
ATOM     28  O   UNL     1      46.774   4.458  15.086  0.00  0.00    +0.000 OA
ATOM     29  C   UNL     1      48.426   5.059  16.672  0.00  0.00    +0.000 A 
ATOM     30  H   UNL     1      46.283   2.567  16.584  0.00  0.00    +0.000 HD
ENDBRANCH  17  20
ENDBRANCH   1  16
TORSDOF 5
ENDMDL
MODEL 3
REMARK VINA RESULT:    -7.909      2.138      3.755
REMARK INTER + INTRA:         -10.842
REMARK INTER:                  -9.802
REMARK INTRA:                  -1.040
REMARK UNBOUND:                -0.621
REMARK  Name = 
REMARK  6 active torsions:
REMARK  status: ('A' for Active; 'I' for Inactive)
REMARK    1  A    between atoms: C_1  and  C_2
REMARK    2  A    between atoms: C_6  and  C_7
REMARK    3  A    between atoms: C_7  and  C_8
REMARK    4  A    between atoms: C_11  and  C_12
REMARK    5  A    between atoms: C_12  and  N_13
REMARK    6  A    between atoms: C_14  and  C_16
REMARK                            x       y       z     vdW  Elec       q    Type
REMARK                         _______ _______ _______ _____ _____    ______ ____
ROOT
ATOM      1  C   UNL     1      46.565   4.980  14.351  0.00  0.00    +0.000 C 
ENDROOT
BRANCH   1   5
ATOM      2  C   UNL     1      45.068   4.238  10.359  0.00  0.00    +0.000 A 
ATOM      3  C   UNL     1      45.546   5.508  10.714  0.00  0.00    +0.000 A 
ATOM      4  C   UNL     1      46.013   5.756  12.009  0.00  0.00    +0.000 A 
ATOM      5  C   UNL     1      46.003   4.742  12.974  0.00  0.00    +0.000 A 
ATOM      6  C   UNL     1      45.456   3.497  12.639  0.00  0.00    +0.000 A 
ATOM      7  C   UNL     1      45.005   3.243  11.341  0.00  0.00    +0.000 A 
BRANCH   2   8
ATOM      8  C   UNL     1      44.672   3.936   8.930  0.00  0.00    +0.000 C 
BRANCH   8  14
ATOM      9  C   UNL     1      46.728  -0.321   7.723  0.00  0.00    +0.000 C 
ATOM     10  C   UNL     1      46.678   1.162   7.516  0.00  0.00    +0.000 A 
ATOM     11  C   UNL     1      47.522   1.781   6.600  0.00  0.00    +0.000 A 
ATOM     12  C   UNL     1      47.458   3.161   6.462  0.00  0.00    +0.000 A 
ATOM     13  C   UNL     1      46.551   3.882   7.231  0.00  0.00    +0.000 A 
ATOM     14  C   UNL     1      45.725   3.201   8.122  0.00  0.00    +0.000 A 
ATOM     15  N   UNL     1      45.783   1.852   8.267  0.00  0.00    +0.000 NA
ENDBRANCH   8  14
ENDBRANCH   2   8
ENDBRANCH   1   5
BRANCH   1  16
ATOM     16  N   UNL     1      47.359   6.179  14.402  0.00  0.00    +0.000 N 
ATOM     17  C   UNL     1      48.423   6.282  15.262  0.00  0.00    +0.000 C 
ATOM     18  O   UNL     1      48.776   5.349  15.977  0.00  0.00    +0.000 OA
ATOM     19  H   UNL     1      46.950   7.020  14.007  0.00  0.00    +0.000 HD
BRANCH  17  20
ATOM     20  C   UNL     1      49.161   7.551  15.241  0.00  0.00    +0.000 A 
ATOM     21  C   UNL     1      49.367   8.245  16.426  0.00  0.00    +0.000 A 
ATOM     22  S   UNL     1      50.264   9.682  16.231  0.00  0.00    +0.000 S 
ATOM     23  C   UNL     1      50.371   9.452  14.548  0.00  0.00    +0.000 A 
ATOM     24  N   UNL     1      50.997  10.362  13.756  0.00  0.00    +0.000 NA
ATOM     25  C   UNL     1      50.979  10.075  12.497  0.00  0.00    +0.000 A 
ATOM     26  N   UNL     1      50.399   8.955  11.959  0.00  0.00    +0.000 N 
ATOM     27  C   UNL     1      49.778   7.997  12.724  0.00  0.00    +0.000 A 
ATOM     28  O   UNL     1      49.309   6.981  12.214  0.00  0.00    +0.000 OA
ATOM     29  C   UNL     1      49.752   8.280  14.143  0.00  0.00    +0.000 A 
ATOM     30  H   UNL     1      50.433   8.780  10.966  0.00  0.00    +0.000 HD
ENDBRANCH  17  20
ENDBRANCH   1  16
TORSDOF 5
ENDMDL
MODEL 4
REMARK VINA RESULT:    -7.726      2.211      3.100
REMARK INTER + INTRA:         -10.605
REMARK INTER:                  -9.883
REMARK INTRA:                  -0.721
REMARK UNBOUND:                -0.621
REMARK  Name = 
REMARK  6 active torsions:
REMARK  status: ('A' for Active; 'I' for Inactive)
REMARK    1  A    between atoms: C_1  and  C_2
REMARK    2  A    between atoms: C_6  and  C_7
REMARK    3  A    between atoms: C_7  and  C_8
REMARK    4  A    between atoms: C_11  and  C_12
REMARK    5  A    between atoms: C_12  and  N_13
REMARK    6  A    between atoms: C_14  and  C_16
REMARK                            x       y       z     vdW  Elec       q    Type
REMARK                         _______ _______ _______ _____ _____    ______ ____
ROOT
ATOM      1  C   UNL     1      48.774   6.693  14.115  0.00  0.00    +0.000 C 
ENDROOT
BRANCH   1   5
ATOM      2  C   UNL     1      45.436   5.633  11.573  0.00  0.00    +0.000 A 
ATOM      3  C   UNL     1      46.247   6.733  11.259  0.00  0.00    +0.000 A 
ATOM      4  C   UNL     1      47.315   7.090  12.088  0.00  0.00    +0.000 A 
ATOM      5  C   UNL     1      47.587   6.359  13.251  0.00  0.00    +0.000 A 
ATOM      6  C   UNL     1      46.730   5.308  13.602  0.00  0.00    +0.000 A 
ATOM      7  C   UNL     1      45.673   4.940  12.766  0.00  0.00    +0.000 A 
BRANCH   2   8
ATOM      8  C   UNL     1      44.354   5.176  10.619  0.00  0.00    +0.000 C 
BRANCH   8  14
ATOM      9  C   UNL     1      46.780   3.835   6.603  0.00  0.00    +0.000 C 
ATOM     10  C   UNL     1      45.962   3.413   7.786  0.00  0.00    +0.000 A 
ATOM     11  C   UNL     1      45.666   2.073   8.003  0.00  0.00    +0.000 A 
ATOM     12  C   UNL     1      44.882   1.732   9.097  0.00  0.00    +0.000 A 
ATOM     13  C   UNL     1      44.426   2.733   9.947  0.00  0.00    +0.000 A 
ATOM     14  C   UNL     1      44.768   4.058   9.681  0.00  0.00    +0.000 A 
ATOM     15  N   UNL     1      45.531   4.400   8.611  0.00  0.00    +0.000 NA
ENDBRANCH   8  14
ENDBRANCH   2   8
ENDBRANCH   1   5
BRANCH   1  16
ATOM     16  N   UNL     1      48.387   6.932  15.481  0.00  0.00    +0.000 N 
ATOM     17  C   UNL     1      49.196   6.546  16.519  0.00  0.00    +0.000 C 
ATOM     18  O   UNL     1      50.298   6.038  16.333  0.00  0.00    +0.000 OA
ATOM     19  H   UNL     1      47.406   7.125  15.654  0.00  0.00    +0.000 HD
BRANCH  17  20
ATOM     20  C   UNL     1      48.703   6.828  17.873  0.00  0.00    +0.000 A 
ATOM     21  C   UNL     1      48.288   8.112  18.199  0.00  0.00    +0.000 A 
ATOM     22  S   UNL     1      47.721   8.262  19.801  0.00  0.00    +0.000 S 
ATOM     23  C   UNL     1      48.051   6.625  20.129  0.00  0.00    +0.000 A 
ATOM     24  N   UNL     1      47.823   6.099  21.362  0.00  0.00    +0.000 NA
ATOM     25  C   UNL     1      48.145   4.854  21.478  0.00  0.00    +0.000 A 
ATOM     26  N   UNL     1      48.666   4.084  20.470  0.00  0.00    +0.000 N 
ATOM     27  C   UNL     1      48.889   4.567  19.203  0.00  0.00    +0.000 A 
ATOM     28  O   UNL     1      49.315   3.837  18.310  0.00  0.00    +0.000 OA
ATOM     29  C   UNL     1      48.565   5.966  19.024  0.00  0.00    +0.000 A 
ATOM     30  H   UNL     1      48.882   3.110  20.622  0.00  0.00    +0.000 HD
ENDBRANCH  17  20
ENDBRANCH   1  16
TORSDOF 5
ENDMDL
MODEL 5
REMARK VINA RESULT:    -7.545      2.772      3.784
REMARK INTER + INTRA:         -10.372
REMARK INTER:                  -9.382
REMARK INTRA:                  -0.990
REMARK UNBOUND:                -0.621
REMARK  Name = 
REMARK  6 active torsions:
REMARK  status: ('A' for Active; 'I' for Inactive)
REMARK    1  A    between atoms: C_1  and  C_2
REMARK    2  A    between atoms: C_6  and  C_7
REMARK    3  A    between atoms: C_7  and  C_8
REMARK    4  A    between atoms: C_11  and  C_12
REMARK    5  A    between atoms: C_12  and  N_13
REMARK    6  A    between atoms: C_14  and  C_16
REMARK                            x       y       z     vdW  Elec       q    Type
REMARK                         _______ _______ _______ _____ _____    ______ ____
ROOT
ATOM      1  C   UNL     1      48.681   6.593  14.163  0.00  0.00    +0.000 C 
ENDROOT
BRANCH   1   5
ATOM      2  C   UNL     1      45.409   5.545  11.531  0.00  0.00    +0.000 A 
ATOM      3  C   UNL     1      46.205   6.669  11.263  0.00  0.00    +0.000 A 
ATOM      4  C   UNL     1      47.251   7.021  12.121  0.00  0.00    +0.000 A 
ATOM      5  C   UNL     1      47.516   6.262  13.268  0.00  0.00    +0.000 A 
ATOM      6  C   UNL     1      46.673   5.185  13.573  0.00  0.00    +0.000 A 
ATOM      7  C   UNL     1      45.639   4.822  12.707  0.00  0.00    +0.000 A 
BRANCH   2   8
ATOM      8  C   UNL     1      44.353   5.095  10.544  0.00  0.00    +0.000 C 
BRANCH   8  14
ATOM      9  C   UNL     1      46.783   3.747   6.534  0.00  0.00    +0.000 C 
ATOM     10  C   UNL     1      45.983   3.326   7.728  0.00  0.00    +0.000 A 
ATOM     11  C   UNL     1      45.718   1.982   7.968  0.00  0.00    +0.000 A 
ATOM     12  C   UNL     1      44.949   1.641   9.073  0.00  0.00    +0.000 A 
ATOM     13  C   UNL     1      44.476   2.645   9.910  0.00  0.00    +0.000 A 
ATOM     14  C   UNL     1      44.786   3.972   9.622  0.00  0.00    +0.000 A 
ATOM     15  N   UNL     1      45.534   4.315   8.541  0.00  0.00    +0.000 NA
ENDBRANCH   8  14
ENDBRANCH   2   8
ENDBRANCH   1   5
BRANCH   1  16
ATOM     16  N   UNL     1      48.259   6.839  15.516  0.00  0.00    +0.000 N 
ATOM     17  C   UNL     1      48.957   6.322  16.577  0.00  0.00    +0.000 C 
ATOM     18  O   UNL     1      49.993   5.681  16.425  0.00  0.00    +0.000 OA
ATOM     19  H   UNL     1      47.302   7.152  15.651  0.00  0.00    +0.000 HD
BRANCH  17  20
ATOM     20  C   UNL     1      48.436   6.624  17.916  0.00  0.00    +0.000 A 
ATOM     21  C   UNL     1      48.234   5.592  18.823  0.00  0.00    +0.000 A 
ATOM     22  S   UNL     1      47.651   6.117  20.337  0.00  0.00    +0.000 S 
ATOM     23  C   UNL     1      47.606   7.738  19.820  0.00  0.00    +0.000 A 
ATOM     24  N   UNL     1      47.159   8.723  20.643  0.00  0.00    +0.000 NA
ATOM     25  C   UNL     1      47.152   9.900  20.112  0.00  0.00    +0.000 A 
ATOM     26  N   UNL     1      47.561  10.183  18.835  0.00  0.00    +0.000 N 
ATOM     27  C   UNL     1      48.045   9.224  17.977  0.00  0.00    +0.000 A 
ATOM     28  O   UNL     1      48.446   9.519  16.854  0.00  0.00    +0.000 OA
ATOM     29  C   UNL     1      48.053   7.880  18.517  0.00  0.00    +0.000 A 
ATOM     30  H   UNL     1      47.547  11.129  18.484  0.00  0.00    +0.000 HD
ENDBRANCH  17  20
ENDBRANCH   1  16
TORSDOF 5
ENDMDL
MODEL 6
REMARK VINA RESULT:    -7.516      2.745      4.762
REMARK INTER + INTRA:         -10.334
REMARK INTER:                  -9.541
REMARK INTRA:                  -0.793
REMARK UNBOUND:                -0.621
REMARK  Name = 
REMARK  6 active torsions:
REMARK  status: ('A' for Active; 'I' for Inactive)
REMARK    1  A    between atoms: C_1  and  C_2
REMARK    2  A    between atoms: C_6  and  C_7
REMARK    3  A    between atoms: C_7  and  C_8
REMARK    4  A    between atoms: C_11  and  C_12
REMARK    5  A    between atoms: C_12  and  N_13
REMARK    6  A    between atoms: C_14  and  C_16
REMARK                            x       y       z     vdW  Elec       q    Type
REMARK                         _______ _______ _______ _____ _____    ______ ____
ROOT
ATOM      1  C   UNL     1      46.989   5.809  13.923  0.00  0.00    +0.000 C 
ENDROOT
BRANCH   1   5
ATOM      2  C   UNL     1      44.947   4.509  10.335  0.00  0.00    +0.000 A 
ATOM      3  C   UNL     1      45.745   5.662  10.320  0.00  0.00    +0.000 A 
ATOM      4  C   UNL     1      46.392   6.095  11.482  0.00  0.00    +0.000 A 
ATOM      5  C   UNL     1      46.245   5.389  12.682  0.00  0.00    +0.000 A 
ATOM      6  C   UNL     1      45.387   4.281  12.712  0.00  0.00    +0.000 A 
ATOM      7  C   UNL     1      44.755   3.837  11.548  0.00  0.00    +0.000 A 
BRANCH   2   8
ATOM      8  C   UNL     1      44.342   3.973   9.055  0.00  0.00    +0.000 C 
BRANCH   8  14
ATOM      9  C   UNL     1      47.234   3.190   5.204  0.00  0.00    +0.000 C 
ATOM     10  C   UNL     1      46.644   2.651   6.472  0.00  0.00    +0.000 A 
ATOM     11  C   UNL     1      46.952   1.369   6.910  0.00  0.00    +0.000 A 
ATOM     12  C   UNL     1      46.360   0.903   8.077  0.00  0.00    +0.000 A 
ATOM     13  C   UNL     1      45.488   1.730   8.776  0.00  0.00    +0.000 A 
ATOM     14  C   UNL     1      45.229   3.010   8.290  0.00  0.00    +0.000 A 
ATOM     15  N   UNL     1      45.801   3.472   7.147  0.00  0.00    +0.000 NA
ENDBRANCH   8  14
ENDBRANCH   2   8
ENDBRANCH   1   5
BRANCH   1  16
ATOM     16  N   UNL     1      47.370   7.195  13.870  0.00  0.00    +0.000 N 
ATOM     17  C   UNL     1      48.648   7.561  13.530  0.00  0.00    +0.000 C 
ATOM     18  O   UNL     1      49.497   6.737  13.204  0.00  0.00    +0.000 OA
ATOM     19  H   UNL     1      46.771   7.857  14.354  0.00  0.00    +0.000 HD
BRANCH  17  20
ATOM     20  C   UNL     1      48.935   9.001  13.515  0.00  0.00    +0.000 A 
ATOM     21  C   UNL     1      50.126   9.469  14.055  0.00  0.00    +0.000 A 
ATOM     22  S   UNL     1      50.315  11.160  13.933  0.00  0.00    +0.000 S 
ATOM     23  C   UNL     1      48.791  11.332  13.195  0.00  0.00    +0.000 A 
ATOM     24  N   UNL     1      48.313  12.558  12.855  0.00  0.00    +0.000 NA
ATOM     25  C   UNL     1      47.134  12.544  12.329  0.00  0.00    +0.000 A 
ATOM     26  N   UNL     1      46.393  11.413  12.105  0.00  0.00    +0.000 N 
ATOM     27  C   UNL     1      46.846  10.152  12.408  0.00  0.00    +0.000 A 
ATOM     28  O   UNL     1      46.174   9.156  12.151  0.00  0.00    +0.000 OA
ATOM     29  C   UNL     1      48.157  10.113  13.021  0.00  0.00    +0.000 A 
ATOM     30  H   UNL     1      45.482  11.469  11.674  0.00  0.00    +0.000 HD
ENDBRANCH  17  20
ENDBRANCH   1  16
TORSDOF 5
ENDMDL
MODEL 7
REMARK VINA RESULT:    -7.396      2.641      3.756
REMARK INTER + INTRA:         -10.179
REMARK INTER:                  -9.373
REMARK INTRA:                  -0.806
REMARK UNBOUND:                -0.621
REMARK  Name = 
REMARK  6 active torsions:
REMARK  status: ('A' for Active; 'I' for Inactive)
REMARK    1  A    between atoms: C_1  and  C_2
REMARK    2  A    between atoms: C_6  and  C_7
REMARK    3  A    between atoms: C_7  and  C_8
REMARK    4  A    between atoms: C_11  and  C_12
REMARK    5  A    between atoms: C_12  and  N_13
REMARK    6  A    between atoms: C_14  and  C_16
REMARK                            x       y       z     vdW  Elec       q    Type
REMARK                         _______ _______ _______ _____ _____    ______ ____
ROOT
ATOM      1  C   UNL     1      47.032   5.083  14.544  0.00  0.00    +0.000 C 
ENDROOT
BRANCH   1   5
ATOM      2  C   UNL     1      44.981   4.060  10.872  0.00  0.00    +0.000 A 
ATOM      3  C   UNL     1      45.432   5.369  11.093  0.00  0.00    +0.000 A 
ATOM      4  C   UNL     1      46.079   5.708  12.286  0.00  0.00    +0.000 A 
ATOM      5  C   UNL     1      46.279   4.746  13.284  0.00  0.00    +0.000 A 
ATOM      6  C   UNL     1      45.761   3.458  13.092  0.00  0.00    +0.000 A 
ATOM      7  C   UNL     1      45.130   3.115  11.894  0.00  0.00    +0.000 A 
BRANCH   2   8
ATOM      8  C   UNL     1      44.387   3.664   9.538  0.00  0.00    +0.000 C 
BRANCH   8  14
ATOM      9  C   UNL     1      46.785  -0.189   7.745  0.00  0.00    +0.000 C 
ATOM     10  C   UNL     1      46.501   1.280   7.651  0.00  0.00    +0.000 A 
ATOM     11  C   UNL     1      47.097   2.056   6.663  0.00  0.00    +0.000 A 
ATOM     12  C   UNL     1      46.825   3.417   6.632  0.00  0.00    +0.000 A 
ATOM     13  C   UNL     1      45.962   3.963   7.575  0.00  0.00    +0.000 A 
ATOM     14  C   UNL     1      45.388   3.128   8.533  0.00  0.00    +0.000 A 
ATOM     15  N   UNL     1      45.652   1.796   8.574  0.00  0.00    +0.000 NA
ENDBRANCH   8  14
ENDBRANCH   2   8
ENDBRANCH   1   5
BRANCH   1  16
ATOM     16  N   UNL     1      47.695   6.357  14.442  0.00  0.00    +0.000 N 
ATOM     17  C   UNL     1      48.798   6.639  15.206  0.00  0.00    +0.000 C 
ATOM     18  O   UNL     1      49.299   5.809  15.960  0.00  0.00    +0.000 OA
ATOM     19  H   UNL     1      47.170   7.116  14.018  0.00  0.00    +0.000 HD
BRANCH  17  20
ATOM     20  C   UNL     1      49.392   7.970  15.033  0.00  0.00    +0.000 A 
ATOM     21  C   UNL     1      50.154   8.241  13.904  0.00  0.00    +0.000 A 
ATOM     22  S   UNL     1      50.747   9.839  13.845  0.00  0.00    +0.000 S 
ATOM     23  C   UNL     1      50.044  10.214  15.348  0.00  0.00    +0.000 A 
ATOM     24  N   UNL     1      50.204  11.442  15.909  0.00  0.00    +0.000 NA
ATOM     25  C   UNL     1      49.641  11.579  17.063  0.00  0.00    +0.000 A 
ATOM     26  N   UNL     1      48.925  10.601  17.704  0.00  0.00    +0.000 N 
ATOM     27  C   UNL     1      48.716   9.355  17.164  0.00  0.00    +0.000 A 
ATOM     28  O   UNL     1      48.030   8.517  17.745  0.00  0.00    +0.000 OA
ATOM     29  C   UNL     1      49.345   9.141  15.877  0.00  0.00    +0.000 A 
ATOM     30  H   UNL     1      48.495  10.778  18.599  0.00  0.00    +0.000 HD
ENDBRANCH  17  20
ENDBRANCH   1  16
TORSDOF 5
ENDMDL
MODEL 8
REMARK VINA RESULT:    -7.293      4.078      8.801
REMARK INTER + INTRA:         -10.046
REMARK INTER:                  -9.476
REMARK INTRA:                  -0.570
REMARK UNBOUND:                -0.621
REMARK  Name = 
REMARK  6 active torsions:
REMARK  status: ('A' for Active; 'I' for Inactive)
REMARK    1  A    between atoms: C_1  and  C_2
REMARK    2  A    between atoms: C_6  and  C_7
REMARK    3  A    between atoms: C_7  and  C_8
REMARK    4  A    between atoms: C_11  and  C_12
REMARK    5  A    between atoms: C_12  and  N_13
REMARK    6  A    between atoms: C_14  and  C_16
REMARK                            x       y       z     vdW  Elec       q    Type
REMARK                         _______ _______ _______ _____ _____    ______ ____
ROOT
ATOM      1  C   UNL     1      47.074   3.416  16.885  0.00  0.00    +0.000 C 
ENDROOT
BRANCH   1   5
ATOM      2  C   UNL     1      51.248   3.584  18.018  0.00  0.00    +0.000 A 
ATOM      3  C   UNL     1      50.430   4.716  18.147  0.00  0.00    +0.000 A 
ATOM      4  C   UNL     1      49.086   4.671  17.765  0.00  0.00    +0.000 A 
ATOM      5  C   UNL     1      48.536   3.495  17.239  0.00  0.00    +0.000 A 
ATOM      6  C   UNL     1      49.373   2.389  17.041  0.00  0.00    +0.000 A 
ATOM      7  C   UNL     1      50.712   2.428  17.439  0.00  0.00    +0.000 A 
BRANCH   2   8
ATOM      8  C   UNL     1      52.669   3.595  18.539  0.00  0.00    +0.000 C 
BRANCH   8  14
ATOM      9  C   UNL     1      53.721  -1.166  18.712  0.00  0.00    +0.000 C 
ATOM     10  C   UNL     1      54.007   0.170  18.097  0.00  0.00    +0.000 A 
ATOM     11  C   UNL     1      54.974   0.304  17.107  0.00  0.00    +0.000 A 
ATOM     12  C   UNL     1      55.223   1.567  16.586  0.00  0.00    +0.000 A 
ATOM     13  C   UNL     1      54.497   2.655  17.058  0.00  0.00    +0.000 A 
ATOM     14  C   UNL     1      53.534   2.452  18.044  0.00  0.00    +0.000 A 
ATOM     15  N   UNL     1      53.286   1.221  18.563  0.00  0.00    +0.000 NA
ENDBRANCH   8  14
ENDBRANCH   2   8
ENDBRANCH   1   5
BRANCH   1  16
ATOM     16  N   UNL     1      46.709   4.407  15.908  0.00  0.00    +0.000 N 
ATOM     17  C   UNL     1      46.921   4.188  14.571  0.00  0.00    +0.000 C 
ATOM     18  O   UNL     1      47.374   3.129  14.147  0.00  0.00    +0.000 OA
ATOM     19  H   UNL     1      46.562   5.354  16.244  0.00  0.00    +0.000 HD
BRANCH  17  20
ATOM     20  C   UNL     1      46.521   5.267  13.659  0.00  0.00    +0.000 A 
ATOM     21  C   UNL     1      47.404   6.307  13.396  0.00  0.00    +0.000 A 
ATOM     22  S   UNL     1      46.796   7.460  12.297  0.00  0.00    +0.000 S 
ATOM     23  C   UNL     1      45.313   6.636  12.167  0.00  0.00    +0.000 A 
ATOM     24  N   UNL     1      44.308   7.121  11.391  0.00  0.00    +0.000 NA
ATOM     25  C   UNL     1      43.230   6.410  11.407  0.00  0.00    +0.000 A 
ATOM     26  N   UNL     1      43.070   5.251  12.123  0.00  0.00    +0.000 N 
ATOM     27  C   UNL     1      44.066   4.710  12.899  0.00  0.00    +0.000 A 
ATOM     28  O   UNL     1      43.904   3.645  13.491  0.00  0.00    +0.000 OA
ATOM     29  C   UNL     1      45.291   5.481  12.933  0.00  0.00    +0.000 A 
ATOM     30  H   UNL     1      42.205   4.732  12.080  0.00  0.00    +0.000 HD
ENDBRANCH  17  20
ENDBRANCH   1  16
TORSDOF 5
ENDMDL
MODEL 9
REMARK VINA RESULT:    -7.283      3.982      9.844
REMARK INTER + INTRA:         -10.033
REMARK INTER:                  -9.158
REMARK INTRA:                  -0.875
REMARK UNBOUND:                -0.621
REMARK  Name = 
REMARK  6 active torsions:
REMARK  status: ('A' for Active; 'I' for Inactive)
REMARK    1  A    between atoms: C_1  and  C_2
REMARK    2  A    between atoms: C_6  and  C_7
REMARK    3  A    between atoms: C_7  and  C_8
REMARK    4  A    between atoms: C_11  and  C_12
REMARK    5  A    between atoms: C_12  and  N_13
REMARK    6  A    between atoms: C_14  and  C_16
REMARK                            x       y       z     vdW  Elec       q    Type
REMARK                         _______ _______ _______ _____ _____    ______ ____
ROOT
ATOM      1  C   UNL     1      47.243   3.412  16.798  0.00  0.00    +0.000 C 
ENDROOT
BRANCH   1   5
ATOM      2  C   UNL     1      51.444   4.026  17.639  0.00  0.00    +0.000 A 
ATOM      3  C   UNL     1      50.938   2.732  17.452  0.00  0.00    +0.000 A 
ATOM      4  C   UNL     1      49.578   2.528  17.199  0.00  0.00    +0.000 A 
ATOM      5  C   UNL     1      48.697   3.614  17.136  0.00  0.00    +0.000 A 
ATOM      6  C   UNL     1      49.190   4.899  17.397  0.00  0.00    +0.000 A 
ATOM      7  C   UNL     1      50.552   5.105  17.634  0.00  0.00    +0.000 A 
BRANCH   2   8
ATOM      8  C   UNL     1      52.931   4.258  17.797  0.00  0.00    +0.000 C 
BRANCH   8  14
ATOM      9  C   UNL     1      53.420   6.336  22.185  0.00  0.00    +0.000 C 
ATOM     10  C   UNL     1      53.637   5.125  21.328  0.00  0.00    +0.000 A 
ATOM     11  C   UNL     1      54.224   3.979  21.853  0.00  0.00    +0.000 A 
ATOM     12  C   UNL     1      54.428   2.892  21.014  0.00  0.00    +0.000 A 
ATOM     13  C   UNL     1      54.034   2.974  19.683  0.00  0.00    +0.000 A 
ATOM     14  C   UNL     1      53.441   4.147  19.222  0.00  0.00    +0.000 A 
ATOM     15  N   UNL     1      53.241   5.217  20.034  0.00  0.00    +0.000 NA
ENDBRANCH   8  14
ENDBRANCH   2   8
ENDBRANCH   1   5
BRANCH   1  16
ATOM     16  N   UNL     1      46.775   4.392  15.853  0.00  0.00    +0.000 N 
ATOM     17  C   UNL     1      46.847   4.159  14.504  0.00  0.00    +0.000 C 
ATOM     18  O   UNL     1      47.255   3.095  14.047  0.00  0.00    +0.000 OA
ATOM     19  H   UNL     1      46.663   5.342  16.193  0.00  0.00    +0.000 HD
BRANCH  17  20
ATOM     20  C   UNL     1      46.352   5.227  13.626  0.00  0.00    +0.000 A 
ATOM     21  C   UNL     1      47.113   6.375  13.446  0.00  0.00    +0.000 A 
ATOM     22  S   UNL     1      46.408   7.502  12.378  0.00  0.00    +0.000 S 
ATOM     23  C   UNL     1      45.040   6.516  12.152  0.00  0.00    +0.000 A 
ATOM     24  N   UNL     1      44.011   6.917  11.360  0.00  0.00    +0.000 NA
ATOM     25  C   UNL     1      43.026   6.084  11.301  0.00  0.00    +0.000 A 
ATOM     26  N   UNL     1      42.981   4.880  11.957  0.00  0.00    +0.000 N 
ATOM     27  C   UNL     1      44.008   4.422  12.746  0.00  0.00    +0.000 A 
ATOM     28  O   UNL     1      43.956   3.318  13.282  0.00  0.00    +0.000 OA
ATOM     29  C   UNL     1      45.131   5.330  12.863  0.00  0.00    +0.000 A 
ATOM     30  H   UNL     1      42.188   4.265  11.856  0.00  0.00    +0.000 HD
ENDBRANCH  17  20
ENDBRANCH   1  16
TORSDOF 5
ENDMDL
