MODEL 1
REMARK VINA RESULT:    -7.328      0.000      0.000
REMARK INTER + INTRA:          -9.614
REMARK INTER:                  -9.042
REMARK INTRA:                  -0.573
REMARK UNBOUND:                -0.573
REMARK  Name = 
REMARK  5 active torsions:
REMARK  status: ('A' for Active; 'I' for Inactive)
REMARK    1  A    between atoms: C_1  and  O_2
REMARK    2  A    between atoms: O_2  and  C_3
REMARK    3  A    between atoms: C_7  and  C_8
REMARK    4  A    between atoms: C_8  and  N_9
REMARK    5  A    between atoms: C_10  and  C_12
REMARK                            x       y       z     vdW  Elec       q    Type
REMARK                         _______ _______ _______ _____ _____    ______ ____
ROOT
ATOM      1  N   UNL     1      46.973   4.524  15.988  0.00  0.00    +0.000 N 
ATOM      2  C   UNL     1      47.040   4.232  14.653  0.00  0.00    +0.000 C 
ATOM      3  O   UNL     1      47.329   3.113  14.239  0.00  0.00    +0.000 OA
ATOM      4  H   UNL     1      46.928   5.493  16.285  0.00  0.00    +0.000 HD
ENDROOT
BRANCH   2   5
ATOM      5  C   UNL     1      46.671   5.318  13.733  0.00  0.00    +0.000 A 
ATOM      6  C   UNL     1      47.566   6.354  13.499  0.00  0.00    +0.000 A 
ATOM      7  S   UNL     1      47.012   7.490  12.355  0.00  0.00    +0.000 S 
ATOM      8  C   UNL     1      45.535   6.666  12.169  0.00  0.00    +0.000 A 
ATOM      9  N   UNL     1      44.576   7.131  11.323  0.00  0.00    +0.000 NA
ATOM     10  C   UNL     1      43.492   6.428  11.308  0.00  0.00    +0.000 A 
ATOM     11  N   UNL     1      43.282   5.302  12.060  0.00  0.00    +0.000 N 
ATOM     12  C   UNL     1      44.232   4.778  12.904  0.00  0.00    +0.000 A 
ATOM     13  O   UNL     1      44.027   3.742  13.529  0.00  0.00    +0.000 OA
ATOM     14  C   UNL     1      45.469   5.535  12.964  0.00  0.00    +0.000 A 
ATOM     15  H   UNL     1      42.412   4.794  11.998  0.00  0.00    +0.000 HD
ENDBRANCH   2   5
BRANCH   1  16
ATOM     16  C   UNL     1      47.264   3.558  17.017  0.00  0.00    +0.000 C 
BRANCH  16  21
ATOM     17  C   UNL     1      50.847   2.265  17.322  0.00  0.00    +0.000 A 
ATOM     18  C   UNL     1      51.535   3.444  17.615  0.00  0.00    +0.000 A 
ATOM     19  C   UNL     1      50.839   4.649  17.730  0.00  0.00    +0.000 A 
ATOM     20  C   UNL     1      49.457   4.686  17.553  0.00  0.00    +0.000 A 
ATOM     21  C   UNL     1      48.748   3.512  17.271  0.00  0.00    +0.000 A 
ATOM     22  C   UNL     1      49.458   2.305  17.153  0.00  0.00    +0.000 A 
BRANCH  17  24
ATOM     23  C   UNL     1      52.753   0.873  17.604  0.00  0.00    +0.000 C 
ATOM     24  O   UNL     1      51.408   1.027  17.168  0.00  0.00    +0.000 OA
ENDBRANCH  17  24
ENDBRANCH  16  21
ENDBRANCH   1  16
TORSDOF 4
ENDMDL
MODEL 2
REMARK VINA RESULT:    -6.944      1.255      2.101
REMARK INTER + INTRA:          -9.141
REMARK INTER:                  -8.541
REMARK INTRA:                  -0.600
REMARK UNBOUND:                -0.573
REMARK  Name = 
REMARK  5 active torsions:
REMARK  status: ('A' for Active; 'I' for Inactive)
REMARK    1  A    between atoms: C_1  and  O_2
REMARK    2  A    between atoms: O_2  and  C_3
REMARK    3  A    between atoms: C_7  and  C_8
REMARK    4  A    between atoms: C_8  and  N_9
REMARK    5  A    between atoms: C_10  and  C_12
REMARK                            x       y       z     vdW  Elec       q    Type
REMARK                         _______ _______ _______ _____ _____    ______ ____
ROOT
ATOM      1  N   UNL     1      46.887   4.409  15.872  0.00  0.00    +0.000 N 
ATOM      2  C   UNL     1      46.938   4.185  14.522  0.00  0.00    +0.000 C 
ATOM      3  O   UNL     1      47.304   3.115  14.047  0.00  0.00    +0.000 OA
ATOM      4  H   UNL     1      46.773   5.356  16.217  0.00  0.00    +0.000 HD
ENDROOT
BRANCH   2   5
ATOM      5  C   UNL     1      46.455   5.279  13.666  0.00  0.00    +0.000 A 
ATOM      6  C   UNL     1      47.266   6.384  13.441  0.00  0.00    +0.000 A 
ATOM      7  S   UNL     1      46.585   7.523  12.371  0.00  0.00    +0.000 S 
ATOM      8  C   UNL     1      45.161   6.605  12.211  0.00  0.00    +0.000 A 
ATOM      9  N   UNL     1      44.136   7.035  11.426  0.00  0.00    +0.000 NA
ATOM     10  C   UNL     1      43.104   6.259  11.424  0.00  0.00    +0.000 A 
ATOM     11  N   UNL     1      43.004   5.092  12.136  0.00  0.00    +0.000 N 
ATOM     12  C   UNL     1      44.025   4.602  12.916  0.00  0.00    +0.000 A 
ATOM     13  O   UNL     1      43.919   3.530  13.504  0.00  0.00    +0.000 OA
ATOM     14  C   UNL     1      45.208   5.441  12.958  0.00  0.00    +0.000 A 
ATOM     15  H   UNL     1      42.169   4.526  12.087  0.00  0.00    +0.000 HD
ENDBRANCH   2   5
BRANCH   1  16
ATOM     16  C   UNL     1      47.286   3.423  16.845  0.00  0.00    +0.000 C 
BRANCH  16  21
ATOM     17  C   UNL     1      50.730   4.830  17.722  0.00  0.00    +0.000 A 
ATOM     18  C   UNL     1      51.512   3.675  17.675  0.00  0.00    +0.000 A 
ATOM     19  C   UNL     1      50.931   2.449  17.346  0.00  0.00    +0.000 A 
ATOM     20  C   UNL     1      49.568   2.368  17.061  0.00  0.00    +0.000 A 
ATOM     21  C   UNL     1      48.769   3.518  17.090  0.00  0.00    +0.000 A 
ATOM     22  C   UNL     1      49.363   4.745  17.428  0.00  0.00    +0.000 A 
BRANCH  17  24
ATOM     23  C   UNL     1      50.203   7.127  18.030  0.00  0.00    +0.000 C 
ATOM     24  O   UNL     1      51.170   6.084  18.045  0.00  0.00    +0.000 OA
ENDBRANCH  17  24
ENDBRANCH  16  21
ENDBRANCH   1  16
TORSDOF 4
ENDMDL
MODEL 3
REMARK VINA RESULT:    -6.943      2.902      7.109
REMARK INTER + INTRA:          -9.139
REMARK INTER:                  -8.358
REMARK INTRA:                  -0.781
REMARK UNBOUND:                -0.573
REMARK  Name = 
REMARK  5 active torsions:
REMARK  status: ('A' for Active; 'I' for Inactive)
REMARK    1  A    between atoms: C_1  and  O_2
REMARK    2  A    between atoms: O_2  and  C_3
REMARK    3  A    between atoms: C_7  and  C_8
REMARK    4  A    between atoms: C_8  and  N_9
REMARK    5  A    between atoms: C_10  and  C_12
REMARK                            x       y       z     vdW  Elec       q    Type
REMARK                         _______ _______ _______ _____ _____    ______ ____
ROOT
ATOM      1  N   UNL     1      46.720   6.722  13.621  0.00  0.00    +0.000 N 
ATOM      2  C   UNL     1      48.057   6.476  13.789  0.00  0.00    +0.000 C 
ATOM      3  O   UNL     1      48.855   6.521  12.857  0.00  0.00    +0.000 OA
ATOM      4  H   UNL     1      46.073   6.483  14.364  0.00  0.00    +0.000 HD
ENDROOT
BRANCH   2   5
ATOM      5  C   UNL     1      48.502   6.228  15.168  0.00  0.00    +0.000 A 
ATOM      6  C   UNL     1      49.389   7.110  15.772  0.00  0.00    +0.000 A 
ATOM      7  S   UNL     1      49.745   6.717  17.392  0.00  0.00    +0.000 S 
ATOM      8  C   UNL     1      48.767   5.326  17.328  0.00  0.00    +0.000 A 
ATOM      9  N   UNL     1      48.641   4.509  18.409  0.00  0.00    +0.000 NA
ATOM     10  C   UNL     1      47.897   3.472  18.210  0.00  0.00    +0.000 A 
ATOM     11  N   UNL     1      47.267   3.179  17.029  0.00  0.00    +0.000 N 
ATOM     12  C   UNL     1      47.340   3.990  15.921  0.00  0.00    +0.000 A 
ATOM     13  O   UNL     1      46.726   3.721  14.894  0.00  0.00    +0.000 OA
ATOM     14  C   UNL     1      48.170   5.168  16.090  0.00  0.00    +0.000 A 
ATOM     15  H   UNL     1      46.694   2.353  16.940  0.00  0.00    +0.000 HD
ENDBRANCH   2   5
BRANCH   1  16
ATOM     16  C   UNL     1      46.134   7.021  12.339  0.00  0.00    +0.000 C 
BRANCH  16  21
ATOM     17  C   UNL     1      44.140   4.339  10.486  0.00  0.00    +0.000 A 
ATOM     18  C   UNL     1      43.178   4.009  11.443  0.00  0.00    +0.000 A 
ATOM     19  C   UNL     1      43.165   4.665  12.676  0.00  0.00    +0.000 A 
ATOM     20  C   UNL     1      44.110   5.650  12.962  0.00  0.00    +0.000 A 
ATOM     21  C   UNL     1      45.074   6.002  12.010  0.00  0.00    +0.000 A 
ATOM     22  C   UNL     1      45.082   5.334  10.775  0.00  0.00    +0.000 A 
BRANCH  17  24
ATOM     23  C   UNL     1      44.612   2.385   9.218  0.00  0.00    +0.000 C 
ATOM     24  O   UNL     1      44.271   3.765   9.251  0.00  0.00    +0.000 OA
ENDBRANCH  17  24
ENDBRANCH  16  21
ENDBRANCH   1  16
TORSDOF 4
ENDMDL
MODEL 4
REMARK VINA RESULT:    -6.869      2.356      3.120
REMARK INTER + INTRA:          -9.049
REMARK INTER:                  -8.408
REMARK INTRA:                  -0.640
REMARK UNBOUND:                -0.573
REMARK  Name = 
REMARK  5 active torsions:
REMARK  status: ('A' for Active; 'I' for Inactive)
REMARK    1  A    between atoms: C_1  and  O_2
REMARK    2  A    between atoms: O_2  and  C_3
REMARK    3  A    between atoms: C_7  and  C_8
REMARK    4  A    between atoms: C_8  and  N_9
REMARK    5  A    between atoms: C_10  and  C_12
REMARK                            x       y       z     vdW  Elec       q    Type
REMARK                         _______ _______ _______ _____ _____    ______ ____
ROOT
ATOM      1  N   UNL     1      47.677   6.328  14.897  0.00  0.00    +0.000 N 
ATOM      2  C   UNL     1      47.780   6.206  13.537  0.00  0.00    +0.000 C 
ATOM      3  O   UNL     1      48.863   6.136  12.964  0.00  0.00    +0.000 OA
ATOM      4  H   UNL     1      46.785   6.579  15.309  0.00  0.00    +0.000 HD
ENDROOT
BRANCH   2   5
ATOM      5  C   UNL     1      46.513   6.084  12.801  0.00  0.00    +0.000 A 
ATOM      6  C   UNL     1      45.919   7.219  12.264  0.00  0.00    +0.000 A 
ATOM      7  S   UNL     1      44.497   6.893  11.383  0.00  0.00    +0.000 S 
ATOM      8  C   UNL     1      44.596   5.230  11.730  0.00  0.00    +0.000 A 
ATOM      9  N   UNL     1      43.653   4.362  11.271  0.00  0.00    +0.000 NA
ATOM     10  C   UNL     1      43.833   3.137  11.639  0.00  0.00    +0.000 A 
ATOM     11  N   UNL     1      44.869   2.701  12.422  0.00  0.00    +0.000 N 
ATOM     12  C   UNL     1      45.861   3.535  12.881  0.00  0.00    +0.000 A 
ATOM     13  O   UNL     1      46.800   3.104  13.543  0.00  0.00    +0.000 OA
ATOM     14  C   UNL     1      45.703   4.927  12.501  0.00  0.00    +0.000 A 
ATOM     15  H   UNL     1      44.956   1.727  12.670  0.00  0.00    +0.000 HD
ENDBRANCH   2   5
BRANCH   1  16
ATOM     16  C   UNL     1      48.825   6.417  15.764  0.00  0.00    +0.000 C 
BRANCH  16  21
ATOM     17  C   UNL     1      49.306   4.550  19.064  0.00  0.00    +0.000 A 
ATOM     18  C   UNL     1      48.511   3.422  18.853  0.00  0.00    +0.000 A 
ATOM     19  C   UNL     1      47.834   3.259  17.642  0.00  0.00    +0.000 A 
ATOM     20  C   UNL     1      47.947   4.218  16.636  0.00  0.00    +0.000 A 
ATOM     21  C   UNL     1      48.750   5.349  16.824  0.00  0.00    +0.000 A 
ATOM     22  C   UNL     1      49.423   5.506  18.048  0.00  0.00    +0.000 A 
BRANCH  17  24
ATOM     23  C   UNL     1      49.257   4.933  21.409  0.00  0.00    +0.000 C 
ATOM     24  O   UNL     1      50.006   4.836  20.204  0.00  0.00    +0.000 OA
ENDBRANCH  17  24
ENDBRANCH  16  21
ENDBRANCH   1  16
TORSDOF 4
ENDMDL
MODEL 5
REMARK VINA RESULT:    -6.557      3.071      4.004
REMARK INTER + INTRA:          -8.663
REMARK INTER:                  -7.944
REMARK INTRA:                  -0.719
REMARK UNBOUND:                -0.573
REMARK  Name = 
REMARK  5 active torsions:
REMARK  status: ('A' for Active; 'I' for Inactive)
REMARK    1  A    between atoms: C_1  and  O_2
REMARK    2  A    between atoms: O_2  and  C_3
REMARK    3  A    between atoms: C_7  and  C_8
REMARK    4  A    between atoms: C_8  and  N_9
REMARK    5  A    between atoms: C_10  and  C_12
REMARK                            x       y       z     vdW  Elec       q    Type
REMARK                         _______ _______ _______ _____ _____    ______ ____
ROOT
ATOM      1  N   UNL     1      47.885   5.840  15.621  0.00  0.00    +0.000 N 
ATOM      2  C   UNL     1      48.122   6.282  14.347  0.00  0.00    +0.000 C 
ATOM      3  O   UNL     1      49.222   6.692  13.988  0.00  0.00    +0.000 OA
ATOM      4  H   UNL     1      46.930   5.699  15.930  0.00  0.00    +0.000 HD
ENDROOT
BRANCH   2   5
ATOM      5  C   UNL     1      47.001   6.170  13.404  0.00  0.00    +0.000 A 
ATOM      6  C   UNL     1      46.479   7.315  12.817  0.00  0.00    +0.000 A 
ATOM      7  S   UNL     1      45.234   7.002  11.696  0.00  0.00    +0.000 S 
ATOM      8  C   UNL     1      45.311   5.328  11.992  0.00  0.00    +0.000 A 
ATOM      9  N   UNL     1      44.480   4.464  11.350  0.00  0.00    +0.000 NA
ATOM     10  C   UNL     1      44.623   3.228  11.697  0.00  0.00    +0.000 A 
ATOM     11  N   UNL     1      45.523   2.778  12.627  0.00  0.00    +0.000 N 
ATOM     12  C   UNL     1      46.404   3.609  13.278  0.00  0.00    +0.000 A 
ATOM     13  O   UNL     1      47.228   3.167  14.072  0.00  0.00    +0.000 OA
ATOM     14  C   UNL     1      46.280   5.012  12.928  0.00  0.00    +0.000 A 
ATOM     15  H   UNL     1      45.589   1.796  12.850  0.00  0.00    +0.000 HD
ENDBRANCH   2   5
BRANCH   1  16
ATOM     16  C   UNL     1      48.892   5.846  16.652  0.00  0.00    +0.000 C 
BRANCH  16  21
ATOM     17  C   UNL     1      47.634   6.726  20.152  0.00  0.00    +0.000 A 
ATOM     18  C   UNL     1      47.624   8.120  20.092  0.00  0.00    +0.000 A 
ATOM     19  C   UNL     1      48.008   8.772  18.918  0.00  0.00    +0.000 A 
ATOM     20  C   UNL     1      48.403   8.039  17.799  0.00  0.00    +0.000 A 
ATOM     21  C   UNL     1      48.407   6.639  17.837  0.00  0.00    +0.000 A 
ATOM     22  C   UNL     1      48.024   5.993  19.024  0.00  0.00    +0.000 A 
BRANCH  17  24
ATOM     23  C   UNL     1      48.289   5.074  21.730  0.00  0.00    +0.000 C 
ATOM     24  O   UNL     1      47.298   5.968  21.240  0.00  0.00    +0.000 OA
ENDBRANCH  17  24
ENDBRANCH  16  21
ENDBRANCH   1  16
TORSDOF 4
ENDMDL
MODEL 6
REMARK VINA RESULT:    -6.414      5.911      9.441
REMARK INTER + INTRA:          -8.487
REMARK INTER:                  -7.951
REMARK INTRA:                  -0.537
REMARK UNBOUND:                -0.573
REMARK  Name = 
REMARK  5 active torsions:
REMARK  status: ('A' for Active; 'I' for Inactive)
REMARK    1  A    between atoms: C_1  and  O_2
REMARK    2  A    between atoms: O_2  and  C_3
REMARK    3  A    between atoms: C_7  and  C_8
REMARK    4  A    between atoms: C_8  and  N_9
REMARK    5  A    between atoms: C_10  and  C_12
REMARK                            x       y       z     vdW  Elec       q    Type
REMARK                         _______ _______ _______ _____ _____    ______ ____
ROOT
ATOM      1  N   UNL     1      44.396   7.992  11.574  0.00  0.00    +0.000 N 
ATOM      2  C   UNL     1      45.319   6.983  11.649  0.00  0.00    +0.000 C 
ATOM      3  O   UNL     1      46.518   7.200  11.793  0.00  0.00    +0.000 OA
ATOM      4  H   UNL     1      43.455   7.784  11.260  0.00  0.00    +0.000 HD
ENDROOT
BRANCH   2   5
ATOM      5  C   UNL     1      44.785   5.614  11.624  0.00  0.00    +0.000 A 
ATOM      6  C   UNL     1      44.134   5.110  12.743  0.00  0.00    +0.000 A 
ATOM      7  S   UNL     1      43.515   3.537  12.522  0.00  0.00    +0.000 S 
ATOM      8  C   UNL     1      44.139   3.453  10.942  0.00  0.00    +0.000 A 
ATOM      9  N   UNL     1      43.969   2.338  10.181  0.00  0.00    +0.000 NA
ATOM     10  C   UNL     1      44.526   2.396   9.016  0.00  0.00    +0.000 A 
ATOM     11  N   UNL     1      45.235   3.470   8.544  0.00  0.00    +0.000 N 
ATOM     12  C   UNL     1      45.406   4.628   9.264  0.00  0.00    +0.000 A 
ATOM     13  O   UNL     1      46.008   5.588   8.792  0.00  0.00    +0.000 OA
ATOM     14  C   UNL     1      44.805   4.612  10.584  0.00  0.00    +0.000 A 
ATOM     15  H   UNL     1      45.642   3.455   7.620  0.00  0.00    +0.000 HD
ENDBRANCH   2   5
BRANCH   1  16
ATOM     16  C   UNL     1      44.754   9.387  11.626  0.00  0.00    +0.000 C 
BRANCH  16  21
ATOM     17  C   UNL     1      41.605  10.818  10.002  0.00  0.00    +0.000 A 
ATOM     18  C   UNL     1      42.156  11.754   9.124  0.00  0.00    +0.000 A 
ATOM     19  C   UNL     1      43.542  11.909   9.047  0.00  0.00    +0.000 A 
ATOM     20  C   UNL     1      44.384  11.134   9.843  0.00  0.00    +0.000 A 
ATOM     21  C   UNL     1      43.851  10.181  10.720  0.00  0.00    +0.000 A 
ATOM     22  C   UNL     1      42.455  10.036  10.794  0.00  0.00    +0.000 A 
BRANCH  17  24
ATOM     23  C   UNL     1      39.380  11.645   9.880  0.00  0.00    +0.000 C 
ATOM     24  O   UNL     1      40.271  10.579  10.185  0.00  0.00    +0.000 OA
ENDBRANCH  17  24
ENDBRANCH  16  21
ENDBRANCH   1  16
TORSDOF 4
ENDMDL
MODEL 7
REMARK VINA RESULT:    -6.401      2.085      3.362
REMARK INTER + INTRA:          -8.470
REMARK INTER:                  -7.603
REMARK INTRA:                  -0.867
REMARK UNBOUND:                -0.573
REMARK  Name = 
REMARK  5 active torsions:
REMARK  status: ('A' for Active; 'I' for Inactive)
REMARK    1  A    between atoms: C_1  and  O_2
REMARK    2  A    between atoms: O_2  and  C_3
REMARK    3  A    between atoms: C_7  and  C_8
REMARK    4  A    between atoms: C_8  and  N_9
REMARK    5  A    between atoms: C_10  and  C_12
REMARK                            x       y       z     vdW  Elec       q    Type
REMARK                         _______ _______ _______ _____ _____    ______ ____
ROOT
ATOM      1  N   UNL     1      47.109   4.725  15.985  0.00  0.00    +0.000 N 
ATOM      2  C   UNL     1      47.101   4.341  14.670  0.00  0.00    +0.000 C 
ATOM      3  O   UNL     1      47.228   3.169  14.327  0.00  0.00    +0.000 OA
ATOM      4  H   UNL     1      47.201   5.708  16.216  0.00  0.00    +0.000 HD
ENDROOT
BRANCH   2   5
ATOM      5  C   UNL     1      46.853   5.404  13.687  0.00  0.00    +0.000 A 
ATOM      6  C   UNL     1      45.725   5.343  12.878  0.00  0.00    +0.000 A 
ATOM      7  S   UNL     1      45.551   6.688  11.846  0.00  0.00    +0.000 S 
ATOM      8  C   UNL     1      47.003   7.376  12.405  0.00  0.00    +0.000 A 
ATOM      9  N   UNL     1      47.455   8.559  11.906  0.00  0.00    +0.000 NA
ATOM     10  C   UNL     1      48.587   8.946  12.393  0.00  0.00    +0.000 A 
ATOM     11  N   UNL     1      49.306   8.258  13.335  0.00  0.00    +0.000 N 
ATOM     12  C   UNL     1      48.875   7.077  13.891  0.00  0.00    +0.000 A 
ATOM     13  O   UNL     1      49.523   6.511  14.766  0.00  0.00    +0.000 OA
ATOM     14  C   UNL     1      47.609   6.594  13.372  0.00  0.00    +0.000 A 
ATOM     15  H   UNL     1      50.184   8.619  13.680  0.00  0.00    +0.000 HD
ENDBRANCH   2   5
BRANCH   1  16
ATOM     16  C   UNL     1      47.299   3.796  17.071  0.00  0.00    +0.000 C 
BRANCH  16  21
ATOM     17  C   UNL     1      51.008   4.214  17.889  0.00  0.00    +0.000 A 
ATOM     18  C   UNL     1      51.479   2.917  17.679  0.00  0.00    +0.000 A 
ATOM     19  C   UNL     1      50.601   1.915  17.258  0.00  0.00    +0.000 A 
ATOM     20  C   UNL     1      49.253   2.200  17.045  0.00  0.00    +0.000 A 
ATOM     21  C   UNL     1      48.766   3.499  17.239  0.00  0.00    +0.000 A 
ATOM     22  C   UNL     1      49.656   4.498  17.667  0.00  0.00    +0.000 A 
BRANCH  17  24
ATOM     23  C   UNL     1      51.914   6.356  17.400  0.00  0.00    +0.000 C 
ATOM     24  O   UNL     1      51.756   5.278  18.314  0.00  0.00    +0.000 OA
ENDBRANCH  17  24
ENDBRANCH  16  21
ENDBRANCH   1  16
TORSDOF 4
ENDMDL
MODEL 8
REMARK VINA RESULT:    -6.370      2.788      7.560
REMARK INTER + INTRA:          -8.432
REMARK INTER:                  -7.919
REMARK INTRA:                  -0.513
REMARK UNBOUND:                -0.573
REMARK  Name = 
REMARK  5 active torsions:
REMARK  status: ('A' for Active; 'I' for Inactive)
REMARK    1  A    between atoms: C_1  and  O_2
REMARK    2  A    between atoms: O_2  and  C_3
REMARK    3  A    between atoms: C_7  and  C_8
REMARK    4  A    between atoms: C_8  and  N_9
REMARK    5  A    between atoms: C_10  and  C_12
REMARK                            x       y       z     vdW  Elec       q    Type
REMARK                         _______ _______ _______ _____ _____    ______ ____
ROOT
ATOM      1  N   UNL     1      47.101   4.588  15.303  0.00  0.00    +0.000 N 
ATOM      2  C   UNL     1      47.326   4.042  16.538  0.00  0.00    +0.000 C 
ATOM      3  O   UNL     1      46.555   3.237  17.051  0.00  0.00    +0.000 OA
ATOM      4  H   UNL     1      47.649   5.387  15.004  0.00  0.00    +0.000 HD
ENDROOT
BRANCH   2   5
ATOM      5  C   UNL     1      48.590   4.414  17.190  0.00  0.00    +0.000 A 
ATOM      6  C   UNL     1      48.722   5.671  17.766  0.00  0.00    +0.000 A 
ATOM      7  S   UNL     1      50.221   5.914  18.540  0.00  0.00    +0.000 S 
ATOM      8  C   UNL     1      50.768   4.368  18.088  0.00  0.00    +0.000 A 
ATOM      9  N   UNL     1      52.013   3.938  18.432  0.00  0.00    +0.000 NA
ATOM     10  C   UNL     1      52.310   2.760  17.993  0.00  0.00    +0.000 A 
ATOM     11  N   UNL     1      51.475   1.973  17.244  0.00  0.00    +0.000 N 
ATOM     12  C   UNL     1      50.199   2.351  16.900  0.00  0.00    +0.000 A 
ATOM     13  O   UNL     1      49.462   1.603  16.267  0.00  0.00    +0.000 OA
ATOM     14  C   UNL     1      49.817   3.672  17.363  0.00  0.00    +0.000 A 
ATOM     15  H   UNL     1      51.767   1.057  16.936  0.00  0.00    +0.000 HD
ENDBRANCH   2   5
BRANCH   1  16
ATOM     16  C   UNL     1      45.929   4.292  14.517  0.00  0.00    +0.000 C 
BRANCH  16  21
ATOM     17  C   UNL     1      45.219   5.243  10.885  0.00  0.00    +0.000 A 
ATOM     18  C   UNL     1      46.155   6.259  10.685  0.00  0.00    +0.000 A 
ATOM     19  C   UNL     1      47.023   6.624  11.716  0.00  0.00    +0.000 A 
ATOM     20  C   UNL     1      46.963   5.978  12.951  0.00  0.00    +0.000 A 
ATOM     21  C   UNL     1      46.039   4.948  13.166  0.00  0.00    +0.000 A 
ATOM     22  C   UNL     1      45.167   4.592  12.124  0.00  0.00    +0.000 A 
BRANCH  17  24
ATOM     23  C   UNL     1      44.408   3.443   9.562  0.00  0.00    +0.000 C 
ATOM     24  O   UNL     1      44.305   4.803   9.967  0.00  0.00    +0.000 OA
ENDBRANCH  17  24
ENDBRANCH  16  21
ENDBRANCH   1  16
TORSDOF 4
ENDMDL
MODEL 9
REMARK VINA RESULT:    -6.102      2.381      3.337
REMARK INTER + INTRA:          -8.102
REMARK INTER:                  -7.626
REMARK INTRA:                  -0.476
REMARK UNBOUND:                -0.573
REMARK  Name = 
REMARK  5 active torsions:
REMARK  status: ('A' for Active; 'I' for Inactive)
REMARK    1  A    between atoms: C_1  and  O_2
REMARK    2  A    between atoms: O_2  and  C_3
REMARK    3  A    between atoms: C_7  and  C_8
REMARK    4  A    between atoms: C_8  and  N_9
REMARK    5  A    between atoms: C_10  and  C_12
REMARK                            x       y       z     vdW  Elec       q    Type
REMARK                         _______ _______ _______ _____ _____    ______ ____
ROOT
ATOM      1  N   UNL     1      47.022   4.772  16.121  0.00  0.00    +0.000 N 
ATOM      2  C   UNL     1      47.269   4.226  14.889  0.00  0.00    +0.000 C 
ATOM      3  O   UNL     1      47.621   3.059  14.747  0.00  0.00    +0.000 OA
ATOM      4  H   UNL     1      46.929   5.778  16.210  0.00  0.00    +0.000 HD
ENDROOT
BRANCH   2   5
ATOM      5  C   UNL     1      47.016   5.097  13.733  0.00  0.00    +0.000 A 
ATOM      6  C   UNL     1      47.660   6.325  13.643  0.00  0.00    +0.000 A 
ATOM      7  S   UNL     1      47.310   7.175  12.208  0.00  0.00    +0.000 S 
ATOM      8  C   UNL     1      46.246   5.958  11.678  0.00  0.00    +0.000 A 
ATOM      9  N   UNL     1      45.583   6.073  10.496  0.00  0.00    +0.000 NA
ATOM     10  C   UNL     1      44.782   5.094  10.236  0.00  0.00    +0.000 A 
ATOM     11  N   UNL     1      44.585   4.010  11.050  0.00  0.00    +0.000 N 
ATOM     12  C   UNL     1      45.255   3.835  12.238  0.00  0.00    +0.000 A 
ATOM     13  O   UNL     1      45.088   2.830  12.921  0.00  0.00    +0.000 OA
ATOM     14  C   UNL     1      46.165   4.912  12.581  0.00  0.00    +0.000 A 
ATOM     15  H   UNL     1      43.946   3.274  10.786  0.00  0.00    +0.000 HD
ENDBRANCH   2   5
BRANCH   1  16
ATOM     16  C   UNL     1      47.183   4.037  17.350  0.00  0.00    +0.000 C 
BRANCH  16  21
ATOM     17  C   UNL     1      48.923   6.943  19.119  0.00  0.00    +0.000 A 
ATOM     18  C   UNL     1      49.591   6.273  20.144  0.00  0.00    +0.000 A 
ATOM     19  C   UNL     1      49.492   4.884  20.253  0.00  0.00    +0.000 A 
ATOM     20  C   UNL     1      48.727   4.157  19.341  0.00  0.00    +0.000 A 
ATOM     21  C   UNL     1      48.060   4.811  18.298  0.00  0.00    +0.000 A 
ATOM     22  C   UNL     1      48.162   6.209  18.201  0.00  0.00    +0.000 A 
BRANCH  17  24
ATOM     23  C   UNL     1      48.264   8.765  17.741  0.00  0.00    +0.000 C 
ATOM     24  O   UNL     1      48.925   8.295  18.910  0.00  0.00    +0.000 OA
ENDBRANCH  17  24
ENDBRANCH  16  21
ENDBRANCH   1  16
TORSDOF 4
ENDMDL
