MODEL 1
REMARK VINA RESULT:    -8.325      0.000      0.000
REMARK INTER + INTRA:         -12.640
REMARK INTER:                 -11.732
REMARK INTRA:                  -0.908
REMARK UNBOUND:                -0.908
REMARK  Name = 
REMARK  10 active torsions:
REMARK  status: ('A' for Active; 'I' for Inactive)
REMARK    1  A    between atoms: C_1  and  C_2
REMARK    2  A    between atoms: C_5  and  C_6
REMARK    3  A    between atoms: N_8  and  C_9
REMARK    4  A    between atoms: C_9  and  C_10
REMARK    5  A    between atoms: C_13  and  C_14
REMARK    6  A    between atoms: C_14  and  N_15
REMARK    7  A    between atoms: N_15  and  C_16
REMARK    8  A    between atoms: C_16  and  C_17
REMARK    9  A    between atoms: C_16  and  C_18
REMARK   10  A    between atoms: C_30  and  C_31
REMARK                            x       y       z     vdW  Elec       q    Type
REMARK                         _______ _______ _______ _____ _____    ______ ____
ROOT
ATOM      1  C   UNL     1      48.312   6.722  14.391  0.00  0.00    +0.000 C 
ENDROOT
BRANCH   1   2
ATOM      2  C   UNL     1      47.256   5.930  13.661  0.00  0.00    +0.000 A 
ATOM      3  C   UNL     1      46.976   4.606  14.027  0.00  0.00    +0.000 A 
ATOM      4  C   UNL     1      46.010   3.864  13.338  0.00  0.00    +0.000 A 
ATOM      5  C   UNL     1      45.304   4.426  12.265  0.00  0.00    +0.000 A 
ATOM      6  C   UNL     1      45.595   5.745  11.891  0.00  0.00    +0.000 A 
ATOM      7  C   UNL     1      46.563   6.487  12.578  0.00  0.00    +0.000 A 
BRANCH   5   8
ATOM      8  C   UNL     1      44.286   3.612  11.490  0.00  0.00    +0.000 C 
BRANCH   8   9
ATOM      9  N   UNL     1      44.928   2.637  10.608  0.00  0.00    +0.000 NA
ATOM     10  H   UNL     1      44.597   1.708  10.877  0.00  0.00    +0.000 HD
BRANCH   9  11
ATOM     11  C   UNL     1      44.576   2.824   9.182  0.00  0.00    +0.000 C 
ATOM     12  C   UNL     1      44.169   4.264   8.844  0.00  0.00    +0.000 C 
BRANCH  11  13
ATOM     13  C   UNL     1      45.735   2.401   8.277  0.00  0.00    +0.000 A 
ATOM     14  C   UNL     1      46.398   3.336   7.479  0.00  0.00    +0.000 A 
ATOM     15  C   UNL     1      47.444   2.916   6.663  0.00  0.00    +0.000 A 
ATOM     16  C   UNL     1      47.808   1.577   6.663  0.00  0.00    +0.000 A 
ATOM     17  C   UNL     1      47.106   0.710   7.484  0.00  0.00    +0.000 A 
ATOM     18  N   UNL     1      46.085   1.087   8.286  0.00  0.00    +0.000 NA
ENDBRANCH  11  13
ENDBRANCH   9  11
ENDBRANCH   8   9
ENDBRANCH   5   8
ENDBRANCH   1   2
BRANCH   1  21
ATOM     19  C   UNL     1      49.062   6.226  16.680  0.00  0.00    +0.000 C 
ATOM     20  O   UNL     1      50.151   5.811  16.295  0.00  0.00    +0.000 OA
ATOM     21  N   UNL     1      48.093   6.685  15.818  0.00  0.00    +0.000 N 
ATOM     22  H   UNL     1      47.335   7.233  16.197  0.00  0.00    +0.000 HD
BRANCH  19  27
ATOM     23  C   UNL     1      46.911  10.963  19.357  0.00  0.00    +0.000 C 
ATOM     24  C   UNL     1      47.317   9.543  19.631  0.00  0.00    +0.000 A 
ATOM     25  C   UNL     1      47.801   8.750  18.579  0.00  0.00    +0.000 A 
ATOM     26  C   UNL     1      48.188   7.425  18.850  0.00  0.00    +0.000 A 
ATOM     27  C   UNL     1      48.712   6.318  18.097  0.00  0.00    +0.000 A 
ATOM     28  C   UNL     1      48.812   5.258  18.990  0.00  0.00    +0.000 A 
ATOM     29  N   UNL     1      48.411   5.685  20.231  0.00  0.00    +0.000 N 
ATOM     30  C   UNL     1      48.029   6.995  20.162  0.00  0.00    +0.000 A 
ATOM     31  N   UNL     1      47.570   7.699  21.210  0.00  0.00    +0.000 NA
ATOM     32  C   UNL     1      47.221   8.976  20.912  0.00  0.00    +0.000 A 
ATOM     33  C   UNL     1      46.695   9.785  22.068  0.00  0.00    +0.000 C 
ATOM     34  H   UNL     1      48.379   5.134  21.076  0.00  0.00    +0.000 HD
ENDBRANCH  19  27
ENDBRANCH   1  21
TORSDOF 7
ENDMDL
MODEL 2
REMARK VINA RESULT:    -7.879      3.743      5.229
REMARK INTER + INTRA:         -12.011
REMARK INTER:                 -10.831
REMARK INTRA:                  -1.180
REMARK UNBOUND:                -0.908
REMARK  Name = 
REMARK  10 active torsions:
REMARK  status: ('A' for Active; 'I' for Inactive)
REMARK    1  A    between atoms: C_1  and  C_2
REMARK    2  A    between atoms: C_5  and  C_6
REMARK    3  A    between atoms: N_8  and  C_9
REMARK    4  A    between atoms: C_9  and  C_10
REMARK    5  A    between atoms: C_13  and  C_14
REMARK    6  A    between atoms: C_14  and  N_15
REMARK    7  A    between atoms: N_15  and  C_16
REMARK    8  A    between atoms: C_16  and  C_17
REMARK    9  A    between atoms: C_16  and  C_18
REMARK   10  A    between atoms: C_30  and  C_31
REMARK                            x       y       z     vdW  Elec       q    Type
REMARK                         _______ _______ _______ _____ _____    ______ ____
ROOT
ATOM      1  C   UNL     1      47.355   5.510  14.802  0.00  0.00    +0.000 C 
ENDROOT
BRANCH   1   2
ATOM      2  C   UNL     1      46.373   4.815  13.893  0.00  0.00    +0.000 A 
ATOM      3  C   UNL     1      46.599   3.497  13.474  0.00  0.00    +0.000 A 
ATOM      4  C   UNL     1      45.698   2.857  12.614  0.00  0.00    +0.000 A 
ATOM      5  C   UNL     1      44.554   3.522  12.149  0.00  0.00    +0.000 A 
ATOM      6  C   UNL     1      44.339   4.845  12.557  0.00  0.00    +0.000 A 
ATOM      7  C   UNL     1      45.240   5.486  13.415  0.00  0.00    +0.000 A 
BRANCH   5   8
ATOM      8  C   UNL     1      43.598   2.848  11.185  0.00  0.00    +0.000 C 
BRANCH   8   9
ATOM      9  N   UNL     1      44.308   2.052  10.184  0.00  0.00    +0.000 NA
ATOM     10  H   UNL     1      43.797   1.174  10.064  0.00  0.00    +0.000 HD
BRANCH   9  11
ATOM     11  C   UNL     1      44.361   2.704   8.855  0.00  0.00    +0.000 C 
ATOM     12  C   UNL     1      44.224   4.231   8.926  0.00  0.00    +0.000 C 
BRANCH  11  13
ATOM     13  C   UNL     1      45.660   2.347   8.127  0.00  0.00    +0.000 A 
ATOM     14  C   UNL     1      46.395   3.326   7.455  0.00  0.00    +0.000 A 
ATOM     15  C   UNL     1      47.568   2.965   6.798  0.00  0.00    +0.000 A 
ATOM     16  C   UNL     1      47.983   1.641   6.829  0.00  0.00    +0.000 A 
ATOM     17  C   UNL     1      47.203   0.729   7.519  0.00  0.00    +0.000 A 
ATOM     18  N   UNL     1      46.058   1.048   8.166  0.00  0.00    +0.000 NA
ENDBRANCH  11  13
ENDBRANCH   9  11
ENDBRANCH   8   9
ENDBRANCH   5   8
ENDBRANCH   1   2
BRANCH   1  21
ATOM     19  C   UNL     1      48.427   7.241  13.423  0.00  0.00    +0.000 C 
ATOM     20  O   UNL     1      49.121   6.421  12.831  0.00  0.00    +0.000 OA
ATOM     21  N   UNL     1      47.538   6.888  14.412  0.00  0.00    +0.000 N 
ATOM     22  H   UNL     1      46.831   7.556  14.683  0.00  0.00    +0.000 HD
BRANCH  19  27
ATOM     23  C   UNL     1      43.953  10.280  11.189  0.00  0.00    +0.000 C 
ATOM     24  C   UNL     1      45.378  10.445  11.635  0.00  0.00    +0.000 A 
ATOM     25  C   UNL     1      46.075   9.337  12.142  0.00  0.00    +0.000 A 
ATOM     26  C   UNL     1      47.412   9.501  12.544  0.00  0.00    +0.000 A 
ATOM     27  C   UNL     1      48.443   8.667  13.098  0.00  0.00    +0.000 A 
ATOM     28  C   UNL     1      49.533   9.500  13.322  0.00  0.00    +0.000 A 
ATOM     29  N   UNL     1      49.217  10.767  12.902  0.00  0.00    +0.000 N 
ATOM     30  C   UNL     1      47.935  10.784  12.429  0.00  0.00    +0.000 A 
ATOM     31  N   UNL     1      47.324  11.884  11.957  0.00  0.00    +0.000 NA
ATOM     32  C   UNL     1      46.040  11.681  11.566  0.00  0.00    +0.000 A 
ATOM     33  C   UNL     1      45.329  12.901  11.041  0.00  0.00    +0.000 C 
ATOM     34  H   UNL     1      49.813  11.580  12.938  0.00  0.00    +0.000 HD
ENDBRANCH  19  27
ENDBRANCH   1  21
TORSDOF 7
ENDMDL
MODEL 3
REMARK VINA RESULT:    -7.649      1.280      2.261
REMARK INTER + INTRA:         -11.687
REMARK INTER:                 -11.029
REMARK INTRA:                  -0.658
REMARK UNBOUND:                -0.908
REMARK  Name = 
REMARK  10 active torsions:
REMARK  status: ('A' for Active; 'I' for Inactive)
REMARK    1  A    between atoms: C_1  and  C_2
REMARK    2  A    between atoms: C_5  and  C_6
REMARK    3  A    between atoms: N_8  and  C_9
REMARK    4  A    between atoms: C_9  and  C_10
REMARK    5  A    between atoms: C_13  and  C_14
REMARK    6  A    between atoms: C_14  and  N_15
REMARK    7  A    between atoms: N_15  and  C_16
REMARK    8  A    between atoms: C_16  and  C_17
REMARK    9  A    between atoms: C_16  and  C_18
REMARK   10  A    between atoms: C_30  and  C_31
REMARK                            x       y       z     vdW  Elec       q    Type
REMARK                         _______ _______ _______ _____ _____    ______ ____
ROOT
ATOM      1  C   UNL     1      48.511   7.234  13.457  0.00  0.00    +0.000 C 
ENDROOT
BRANCH   1   2
ATOM      2  C   UNL     1      47.431   6.303  12.966  0.00  0.00    +0.000 A 
ATOM      3  C   UNL     1      46.599   6.676  11.901  0.00  0.00    +0.000 A 
ATOM      4  C   UNL     1      45.584   5.821  11.456  0.00  0.00    +0.000 A 
ATOM      5  C   UNL     1      45.374   4.576  12.067  0.00  0.00    +0.000 A 
ATOM      6  C   UNL     1      46.198   4.212  13.141  0.00  0.00    +0.000 A 
ATOM      7  C   UNL     1      47.212   5.068  13.588  0.00  0.00    +0.000 A 
BRANCH   5   8
ATOM      8  C   UNL     1      44.250   3.665  11.616  0.00  0.00    +0.000 C 
BRANCH   8   9
ATOM      9  N   UNL     1      44.732   2.600  10.737  0.00  0.00    +0.000 NA
ATOM     10  H   UNL     1      44.269   1.733  11.015  0.00  0.00    +0.000 HD
BRANCH   9  11
ATOM     11  C   UNL     1      44.401   2.829   9.312  0.00  0.00    +0.000 C 
ATOM     12  C   UNL     1      43.988   4.276   9.013  0.00  0.00    +0.000 C 
BRANCH  11  13
ATOM     13  C   UNL     1      45.579   2.444   8.413  0.00  0.00    +0.000 A 
ATOM     14  C   UNL     1      46.233   3.406   7.640  0.00  0.00    +0.000 A 
ATOM     15  C   UNL     1      47.295   3.020   6.829  0.00  0.00    +0.000 A 
ATOM     16  C   UNL     1      47.684   1.687   6.808  0.00  0.00    +0.000 A 
ATOM     17  C   UNL     1      46.990   0.794   7.605  0.00  0.00    +0.000 A 
ATOM     18  N   UNL     1      45.953   1.137   8.403  0.00  0.00    +0.000 NA
ENDBRANCH  11  13
ENDBRANCH   9  11
ENDBRANCH   8   9
ENDBRANCH   5   8
ENDBRANCH   1   2
BRANCH   1  21
ATOM     19  C   UNL     1      49.009   8.052  15.722  0.00  0.00    +0.000 C 
ATOM     20  O   UNL     1      50.171   7.662  15.670  0.00  0.00    +0.000 OA
ATOM     21  N   UNL     1      48.118   7.879  14.688  0.00  0.00    +0.000 N 
ATOM     22  H   UNL     1      47.271   8.428  14.688  0.00  0.00    +0.000 HD
BRANCH  19  27
ATOM     23  C   UNL     1      47.973   5.793  21.020  0.00  0.00    +0.000 C 
ATOM     24  C   UNL     1      47.877   7.081  20.254  0.00  0.00    +0.000 A 
ATOM     25  C   UNL     1      48.286   7.118  18.912  0.00  0.00    +0.000 A 
ATOM     26  C   UNL     1      48.180   8.327  18.202  0.00  0.00    +0.000 A 
ATOM     27  C   UNL     1      48.476   8.784  16.871  0.00  0.00    +0.000 A 
ATOM     28  C   UNL     1      48.181  10.141  16.855  0.00  0.00    +0.000 A 
ATOM     29  N   UNL     1      47.698  10.504  18.087  0.00  0.00    +0.000 N 
ATOM     30  C   UNL     1      47.692   9.417  18.914  0.00  0.00    +0.000 A 
ATOM     31  N   UNL     1      47.287   9.449  20.195  0.00  0.00    +0.000 NA
ATOM     32  C   UNL     1      47.392   8.261  20.841  0.00  0.00    +0.000 A 
ATOM     33  C   UNL     1      46.953   8.272  22.282  0.00  0.00    +0.000 C 
ATOM     34  H   UNL     1      47.400  11.426  18.370  0.00  0.00    +0.000 HD
ENDBRANCH  19  27
ENDBRANCH   1  21
TORSDOF 7
ENDMDL
MODEL 4
REMARK VINA RESULT:    -7.637      4.103      7.005
REMARK INTER + INTRA:         -11.671
REMARK INTER:                 -10.760
REMARK INTRA:                  -0.911
REMARK UNBOUND:                -0.908
REMARK  Name = 
REMARK  10 active torsions:
REMARK  status: ('A' for Active; 'I' for Inactive)
REMARK    1  A    between atoms: C_1  and  C_2
REMARK    2  A    between atoms: C_5  and  C_6
REMARK    3  A    between atoms: N_8  and  C_9
REMARK    4  A    between atoms: C_9  and  C_10
REMARK    5  A    between atoms: C_13  and  C_14
REMARK    6  A    between atoms: C_14  and  N_15
REMARK    7  A    between atoms: N_15  and  C_16
REMARK    8  A    between atoms: C_16  and  C_17
REMARK    9  A    between atoms: C_16  and  C_18
REMARK   10  A    between atoms: C_30  and  C_31
REMARK                            x       y       z     vdW  Elec       q    Type
REMARK                         _______ _______ _______ _____ _____    ______ ____
ROOT
ATOM      1  C   UNL     1      48.495   7.058  14.215  0.00  0.00    +0.000 C 
ENDROOT
BRANCH   1   2
ATOM      2  C   UNL     1      47.440   6.170  13.605  0.00  0.00    +0.000 A 
ATOM      3  C   UNL     1      47.116   4.939  14.194  0.00  0.00    +0.000 A 
ATOM      4  C   UNL     1      46.150   4.105  13.617  0.00  0.00    +0.000 A 
ATOM      5  C   UNL     1      45.491   4.479  12.438  0.00  0.00    +0.000 A 
ATOM      6  C   UNL     1      45.827   5.702  11.843  0.00  0.00    +0.000 A 
ATOM      7  C   UNL     1      46.794   6.536  12.417  0.00  0.00    +0.000 A 
BRANCH   5   8
ATOM      8  C   UNL     1      44.475   3.560  11.788  0.00  0.00    +0.000 C 
BRANCH   8   9
ATOM      9  N   UNL     1      45.096   2.674  10.803  0.00  0.00    +0.000 NA
ATOM     10  H   UNL     1      44.895   1.710  11.080  0.00  0.00    +0.000 HD
BRANCH   9  11
ATOM     11  C   UNL     1      44.551   2.852   9.438  0.00  0.00    +0.000 C 
ATOM     12  C   UNL     1      44.053   4.278   9.167  0.00  0.00    +0.000 C 
BRANCH  11  13
ATOM     13  C   UNL     1      45.595   2.473   8.384  0.00  0.00    +0.000 A 
ATOM     14  C   UNL     1      46.032   3.407   7.442  0.00  0.00    +0.000 A 
ATOM     15  C   UNL     1      46.977   3.027   6.494  0.00  0.00    +0.000 A 
ATOM     16  C   UNL     1      47.467   1.729   6.507  0.00  0.00    +0.000 A 
ATOM     17  C   UNL     1      46.989   0.861   7.475  0.00  0.00    +0.000 A 
ATOM     18  N   UNL     1      46.070   1.200   8.408  0.00  0.00    +0.000 NA
ENDBRANCH  11  13
ENDBRANCH   9  11
ENDBRANCH   8   9
ENDBRANCH   5   8
ENDBRANCH   1   2
BRANCH   1  21
ATOM     19  C   UNL     1      50.452   8.244  13.316  0.00  0.00    +0.000 C 
ATOM     20  O   UNL     1      51.157   7.922  14.267  0.00  0.00    +0.000 OA
ATOM     21  N   UNL     1      49.131   7.873  13.208  0.00  0.00    +0.000 N 
ATOM     22  H   UNL     1      48.683   7.953  12.307  0.00  0.00    +0.000 HD
BRANCH  19  27
ATOM     23  C   UNL     1      53.359   6.032   8.744  0.00  0.00    +0.000 C 
ATOM     24  C   UNL     1      52.849   7.334   9.293  0.00  0.00    +0.000 A 
ATOM     25  C   UNL     1      52.154   7.344  10.511  0.00  0.00    +0.000 A 
ATOM     26  C   UNL     1      51.692   8.570  11.021  0.00  0.00    +0.000 A 
ATOM     27  C   UNL     1      50.966   9.010  12.180  0.00  0.00    +0.000 A 
ATOM     28  C   UNL     1      50.787  10.380  12.027  0.00  0.00    +0.000 A 
ATOM     29  N   UNL     1      51.394  10.778  10.863  0.00  0.00    +0.000 N 
ATOM     30  C   UNL     1      51.946   9.694  10.242  0.00  0.00    +0.000 A 
ATOM     31  N   UNL     1      52.600   9.752   9.069  0.00  0.00    +0.000 NA
ATOM     32  C   UNL     1      53.042   8.551   8.619  0.00  0.00    +0.000 A 
ATOM     33  C   UNL     1      53.772   8.588   7.302  0.00  0.00    +0.000 C 
ATOM     34  H   UNL     1      51.430  11.716  10.492  0.00  0.00    +0.000 HD
ENDBRANCH  19  27
ENDBRANCH   1  21
TORSDOF 7
ENDMDL
MODEL 5
REMARK VINA RESULT:    -7.403      4.262      6.600
REMARK INTER + INTRA:         -11.340
REMARK INTER:                 -10.336
REMARK INTRA:                  -1.004
REMARK UNBOUND:                -0.908
REMARK  Name = 
REMARK  10 active torsions:
REMARK  status: ('A' for Active; 'I' for Inactive)
REMARK    1  A    between atoms: C_1  and  C_2
REMARK    2  A    between atoms: C_5  and  C_6
REMARK    3  A    between atoms: N_8  and  C_9
REMARK    4  A    between atoms: C_9  and  C_10
REMARK    5  A    between atoms: C_13  and  C_14
REMARK    6  A    between atoms: C_14  and  N_15
REMARK    7  A    between atoms: N_15  and  C_16
REMARK    8  A    between atoms: C_16  and  C_17
REMARK    9  A    between atoms: C_16  and  C_18
REMARK   10  A    between atoms: C_30  and  C_31
REMARK                            x       y       z     vdW  Elec       q    Type
REMARK                         _______ _______ _______ _____ _____    ______ ____
ROOT
ATOM      1  C   UNL     1      48.788   6.883  14.319  0.00  0.00    +0.000 C 
ENDROOT
BRANCH   1   2
ATOM      2  C   UNL     1      47.666   6.100  13.684  0.00  0.00    +0.000 A 
ATOM      3  C   UNL     1      47.166   4.944  14.300  0.00  0.00    +0.000 A 
ATOM      4  C   UNL     1      46.139   4.205  13.702  0.00  0.00    +0.000 A 
ATOM      5  C   UNL     1      45.590   4.602  12.474  0.00  0.00    +0.000 A 
ATOM      6  C   UNL     1      46.101   5.749  11.853  0.00  0.00    +0.000 A 
ATOM      7  C   UNL     1      47.131   6.488  12.449  0.00  0.00    +0.000 A 
BRANCH   5   8
ATOM      8  C   UNL     1      44.506   3.782  11.803  0.00  0.00    +0.000 C 
BRANCH   8   9
ATOM      9  N   UNL     1      45.066   2.774  10.902  0.00  0.00    +0.000 NA
ATOM     10  H   UNL     1      44.795   1.854  11.257  0.00  0.00    +0.000 HD
BRANCH   9  11
ATOM     11  C   UNL     1      44.542   2.875   9.521  0.00  0.00    +0.000 C 
ATOM     12  C   UNL     1      44.027   4.277   9.171  0.00  0.00    +0.000 C 
BRANCH  11  13
ATOM     13  C   UNL     1      45.608   2.460   8.504  0.00  0.00    +0.000 A 
ATOM     14  C   UNL     1      46.193   3.403   7.656  0.00  0.00    +0.000 A 
ATOM     15  C   UNL     1      47.155   2.990   6.739  0.00  0.00    +0.000 A 
ATOM     16  C   UNL     1      47.515   1.651   6.690  0.00  0.00    +0.000 A 
ATOM     17  C   UNL     1      46.894   0.777   7.566  0.00  0.00    +0.000 A 
ATOM     18  N   UNL     1      45.955   1.146   8.467  0.00  0.00    +0.000 NA
ENDBRANCH  11  13
ENDBRANCH   9  11
ENDBRANCH   8   9
ENDBRANCH   5   8
ENDBRANCH   1   2
BRANCH   1  21
ATOM     19  C   UNL     1      49.784   8.846  13.223  0.00  0.00    +0.000 C 
ATOM     20  O   UNL     1      49.202   9.630  13.967  0.00  0.00    +0.000 OA
ATOM     21  N   UNL     1      49.635   7.482  13.315  0.00  0.00    +0.000 N 
ATOM     22  H   UNL     1      50.313   6.893  12.853  0.00  0.00    +0.000 HD
BRANCH  19  27
ATOM     23  C   UNL     1      48.674  12.768   9.024  0.00  0.00    +0.000 C 
ATOM     24  C   UNL     1      49.769  11.878   9.539  0.00  0.00    +0.000 A 
ATOM     25  C   UNL     1      49.530  11.071  10.662  0.00  0.00    +0.000 A 
ATOM     26  C   UNL     1      50.559  10.233  11.128  0.00  0.00    +0.000 A 
ATOM     27  C   UNL     1      50.730   9.289  12.199  0.00  0.00    +0.000 A 
ATOM     28  C   UNL     1      52.047   8.853  12.121  0.00  0.00    +0.000 A 
ATOM     29  N   UNL     1      52.652   9.458  11.048  0.00  0.00    +0.000 N 
ATOM     30  C   UNL     1      51.763  10.297  10.437  0.00  0.00    +0.000 A 
ATOM     31  N   UNL     1      52.057  11.048   9.362  0.00  0.00    +0.000 NA
ATOM     32  C   UNL     1      51.035  11.831   8.934  0.00  0.00    +0.000 A 
ATOM     33  C   UNL     1      51.342  12.689   7.735  0.00  0.00    +0.000 C 
ATOM     34  H   UNL     1      53.605   9.332  10.744  0.00  0.00    +0.000 HD
ENDBRANCH  19  27
ENDBRANCH   1  21
TORSDOF 7
ENDMDL
MODEL 6
REMARK VINA RESULT:    -7.368      3.197      9.551
REMARK INTER + INTRA:         -11.291
REMARK INTER:                  -9.787
REMARK INTRA:                  -1.504
REMARK UNBOUND:                -0.908
REMARK  Name = 
REMARK  10 active torsions:
REMARK  status: ('A' for Active; 'I' for Inactive)
REMARK    1  A    between atoms: C_1  and  C_2
REMARK    2  A    between atoms: C_5  and  C_6
REMARK    3  A    between atoms: N_8  and  C_9
REMARK    4  A    between atoms: C_9  and  C_10
REMARK    5  A    between atoms: C_13  and  C_14
REMARK    6  A    between atoms: C_14  and  N_15
REMARK    7  A    between atoms: N_15  and  C_16
REMARK    8  A    between atoms: C_16  and  C_17
REMARK    9  A    between atoms: C_16  and  C_18
REMARK   10  A    between atoms: C_30  and  C_31
REMARK                            x       y       z     vdW  Elec       q    Type
REMARK                         _______ _______ _______ _____ _____    ______ ____
ROOT
ATOM      1  C   UNL     1      46.767   8.707  13.488  0.00  0.00    +0.000 C 
ENDROOT
BRANCH   1   2
ATOM      2  C   UNL     1      47.985   8.418  14.329  0.00  0.00    +0.000 A 
ATOM      3  C   UNL     1      49.013   7.601  13.839  0.00  0.00    +0.000 A 
ATOM      4  C   UNL     1      50.135   7.317  14.625  0.00  0.00    +0.000 A 
ATOM      5  C   UNL     1      50.254   7.838  15.922  0.00  0.00    +0.000 A 
ATOM      6  C   UNL     1      49.218   8.642  16.416  0.00  0.00    +0.000 A 
ATOM      7  C   UNL     1      48.094   8.926  15.630  0.00  0.00    +0.000 A 
BRANCH   5   8
ATOM      8  C   UNL     1      51.447   7.499  16.793  0.00  0.00    +0.000 C 
BRANCH   8   9
ATOM      9  N   UNL     1      51.657   6.054  16.889  0.00  0.00    +0.000 NA
ATOM     10  H   UNL     1      52.664   5.888  16.943  0.00  0.00    +0.000 HD
BRANCH   9  11
ATOM     11  C   UNL     1      51.056   5.460  18.105  0.00  0.00    +0.000 C 
ATOM     12  C   UNL     1      50.810   6.486  19.220  0.00  0.00    +0.000 C 
BRANCH  11  13
ATOM     13  C   UNL     1      49.740   4.753  17.770  0.00  0.00    +0.000 A 
ATOM     14  C   UNL     1      48.513   5.344  18.075  0.00  0.00    +0.000 A 
ATOM     15  C   UNL     1      47.336   4.671  17.763  0.00  0.00    +0.000 A 
ATOM     16  C   UNL     1      47.408   3.427  17.152  0.00  0.00    +0.000 A 
ATOM     17  C   UNL     1      48.662   2.908  16.877  0.00  0.00    +0.000 A 
ATOM     18  N   UNL     1      49.823   3.537  17.169  0.00  0.00    +0.000 NA
ENDBRANCH  11  13
ENDBRANCH   9  11
ENDBRANCH   8   9
ENDBRANCH   5   8
ENDBRANCH   1   2
BRANCH   1  21
ATOM     19  C   UNL     1      45.084   7.450  12.209  0.00  0.00    +0.000 C 
ATOM     20  O   UNL     1      44.788   8.427  11.528  0.00  0.00    +0.000 OA
ATOM     21  N   UNL     1      46.037   7.495  13.200  0.00  0.00    +0.000 N 
ATOM     22  H   UNL     1      46.407   6.622  13.549  0.00  0.00    +0.000 HD
BRANCH  19  27
ATOM     23  C   UNL     1      46.249   3.859   7.738  0.00  0.00    +0.000 C 
ATOM     24  C   UNL     1      45.407   3.954   8.979  0.00  0.00    +0.000 A 
ATOM     25  C   UNL     1      45.495   5.099   9.785  0.00  0.00    +0.000 A 
ATOM     26  C   UNL     1      44.694   5.182  10.938  0.00  0.00    +0.000 A 
ATOM     27  C   UNL     1      44.485   6.132  11.996  0.00  0.00    +0.000 A 
ATOM     28  C   UNL     1      43.578   5.544  12.869  0.00  0.00    +0.000 A 
ATOM     29  N   UNL     1      43.215   4.318  12.370  0.00  0.00    +0.000 N 
ATOM     30  C   UNL     1      43.883   4.085  11.202  0.00  0.00    +0.000 A 
ATOM     31  N   UNL     1      43.755   2.961  10.476  0.00  0.00    +0.000 NA
ATOM     32  C   UNL     1      44.533   2.926   9.365  0.00  0.00    +0.000 A 
ATOM     33  C   UNL     1      44.414   1.673   8.537  0.00  0.00    +0.000 C 
ATOM     34  H   UNL     1      42.569   3.666  12.788  0.00  0.00    +0.000 HD
ENDBRANCH  19  27
ENDBRANCH   1  21
TORSDOF 7
ENDMDL
MODEL 7
REMARK VINA RESULT:    -7.296      5.412      9.821
REMARK INTER + INTRA:         -11.190
REMARK INTER:                 -10.132
REMARK INTRA:                  -1.058
REMARK UNBOUND:                -0.908
REMARK  Name = 
REMARK  10 active torsions:
REMARK  status: ('A' for Active; 'I' for Inactive)
REMARK    1  A    between atoms: C_1  and  C_2
REMARK    2  A    between atoms: C_5  and  C_6
REMARK    3  A    between atoms: N_8  and  C_9
REMARK    4  A    between atoms: C_9  and  C_10
REMARK    5  A    between atoms: C_13  and  C_14
REMARK    6  A    between atoms: C_14  and  N_15
REMARK    7  A    between atoms: N_15  and  C_16
REMARK    8  A    between atoms: C_16  and  C_17
REMARK    9  A    between atoms: C_16  and  C_18
REMARK   10  A    between atoms: C_30  and  C_31
REMARK                            x       y       z     vdW  Elec       q    Type
REMARK                         _______ _______ _______ _____ _____    ______ ____
ROOT
ATOM      1  C   UNL     1      44.571   7.924  11.530  0.00  0.00    +0.000 C 
ENDROOT
BRANCH   1   2
ATOM      2  C   UNL     1      45.912   8.553  11.814  0.00  0.00    +0.000 A 
ATOM      3  C   UNL     1      46.056   9.947  11.833  0.00  0.00    +0.000 A 
ATOM      4  C   UNL     1      47.304  10.532  12.077  0.00  0.00    +0.000 A 
ATOM      5  C   UNL     1      48.437   9.738  12.304  0.00  0.00    +0.000 A 
ATOM      6  C   UNL     1      48.294   8.345  12.271  0.00  0.00    +0.000 A 
ATOM      7  C   UNL     1      47.046   7.759  12.024  0.00  0.00    +0.000 A 
BRANCH   5   8
ATOM      8  C   UNL     1      49.798  10.367  12.529  0.00  0.00    +0.000 C 
BRANCH   8   9
ATOM      9  N   UNL     1      50.793   9.860  11.584  0.00  0.00    +0.000 NA
ATOM     10  H   UNL     1      51.072  10.636  10.979  0.00  0.00    +0.000 HD
BRANCH   9  11
ATOM     11  C   UNL     1      52.022   9.366  12.245  0.00  0.00    +0.000 C 
ATOM     12  C   UNL     1      51.778   8.858  13.672  0.00  0.00    +0.000 C 
BRANCH  11  13
ATOM     13  C   UNL     1      52.675   8.256  11.418  0.00  0.00    +0.000 A 
ATOM     14  C   UNL     1      52.007   7.689  10.330  0.00  0.00    +0.000 A 
ATOM     15  C   UNL     1      52.627   6.677   9.603  0.00  0.00    +0.000 A 
ATOM     16  C   UNL     1      53.897   6.255   9.973  0.00  0.00    +0.000 A 
ATOM     17  C   UNL     1      54.495   6.868  11.061  0.00  0.00    +0.000 A 
ATOM     18  N   UNL     1      53.919   7.852  11.788  0.00  0.00    +0.000 NA
ENDBRANCH  11  13
ENDBRANCH   9  11
ENDBRANCH   8   9
ENDBRANCH   5   8
ENDBRANCH   1   2
BRANCH   1  21
ATOM     19  C   UNL     1      43.610   5.716  11.031  0.00  0.00    +0.000 C 
ATOM     20  O   UNL     1      42.460   6.142  11.077  0.00  0.00    +0.000 OA
ATOM     21  N   UNL     1      44.709   6.515  11.248  0.00  0.00    +0.000 N 
ATOM     22  H   UNL     1      45.614   6.175  10.957  0.00  0.00    +0.000 HD
BRANCH  19  27
ATOM     23  C   UNL     1      47.075   3.980   6.647  0.00  0.00    +0.000 C 
ATOM     24  C   UNL     1      46.225   3.434   7.758  0.00  0.00    +0.000 A 
ATOM     25  C   UNL     1      45.549   4.321   8.609  0.00  0.00    +0.000 A 
ATOM     26  C   UNL     1      44.747   3.798   9.638  0.00  0.00    +0.000 A 
ATOM     27  C   UNL     1      43.922   4.328  10.689  0.00  0.00    +0.000 A 
ATOM     28  C   UNL     1      43.454   3.232  11.403  0.00  0.00    +0.000 A 
ATOM     29  N   UNL     1      43.928   2.086  10.816  0.00  0.00    +0.000 N 
ATOM     30  C   UNL     1      44.713   2.412   9.746  0.00  0.00    +0.000 A 
ATOM     31  N   UNL     1      45.337   1.510   8.970  0.00  0.00    +0.000 NA
ATOM     32  C   UNL     1      46.089   2.054   7.980  0.00  0.00    +0.000 A 
ATOM     33  C   UNL     1      46.806   1.064   7.101  0.00  0.00    +0.000 C 
ATOM     34  H   UNL     1      43.752   1.139  11.115  0.00  0.00    +0.000 HD
ENDBRANCH  19  27
ENDBRANCH   1  21
TORSDOF 7
ENDMDL
MODEL 8
REMARK VINA RESULT:    -7.279      3.689     10.167
REMARK INTER + INTRA:         -11.166
REMARK INTER:                  -9.849
REMARK INTRA:                  -1.317
REMARK UNBOUND:                -0.908
REMARK  Name = 
REMARK  10 active torsions:
REMARK  status: ('A' for Active; 'I' for Inactive)
REMARK    1  A    between atoms: C_1  and  C_2
REMARK    2  A    between atoms: C_5  and  C_6
REMARK    3  A    between atoms: N_8  and  C_9
REMARK    4  A    between atoms: C_9  and  C_10
REMARK    5  A    between atoms: C_13  and  C_14
REMARK    6  A    between atoms: C_14  and  N_15
REMARK    7  A    between atoms: N_15  and  C_16
REMARK    8  A    between atoms: C_16  and  C_17
REMARK    9  A    between atoms: C_16  and  C_18
REMARK   10  A    between atoms: C_30  and  C_31
REMARK                            x       y       z     vdW  Elec       q    Type
REMARK                         _______ _______ _______ _____ _____    ______ ____
ROOT
ATOM      1  C   UNL     1      44.917   7.760  11.804  0.00  0.00    +0.000 C 
ENDROOT
BRANCH   1   2
ATOM      2  C   UNL     1      46.312   8.313  11.957  0.00  0.00    +0.000 A 
ATOM      3  C   UNL     1      47.424   7.459  11.931  0.00  0.00    +0.000 A 
ATOM      4  C   UNL     1      48.718   7.968  12.092  0.00  0.00    +0.000 A 
ATOM      5  C   UNL     1      48.930   9.340  12.289  0.00  0.00    +0.000 A 
ATOM      6  C   UNL     1      47.816  10.190  12.330  0.00  0.00    +0.000 A 
ATOM      7  C   UNL     1      46.522   9.681  12.171  0.00  0.00    +0.000 A 
BRANCH   5   8
ATOM      8  C   UNL     1      50.326   9.890  12.505  0.00  0.00    +0.000 C 
BRANCH   8   9
ATOM      9  N   UNL     1      51.234   8.874  13.036  0.00  0.00    +0.000 NA
ATOM     10  H   UNL     1      52.098   8.911  12.490  0.00  0.00    +0.000 HD
BRANCH   9  11
ATOM     11  C   UNL     1      51.607   9.109  14.449  0.00  0.00    +0.000 C 
ATOM     12  C   UNL     1      51.043  10.420  15.012  0.00  0.00    +0.000 C 
BRANCH  11  13
ATOM     13  C   UNL     1      51.154   7.943  15.332  0.00  0.00    +0.000 A 
ATOM     14  C   UNL     1      49.797   7.706  15.561  0.00  0.00    +0.000 A 
ATOM     15  C   UNL     1      49.420   6.641  16.374  0.00  0.00    +0.000 A 
ATOM     16  C   UNL     1      50.401   5.836  16.936  0.00  0.00    +0.000 A 
ATOM     17  C   UNL     1      51.725   6.133  16.659  0.00  0.00    +0.000 A 
ATOM     18  N   UNL     1      52.123   7.161  15.875  0.00  0.00    +0.000 NA
ENDBRANCH  11  13
ENDBRANCH   9  11
ENDBRANCH   8   9
ENDBRANCH   5   8
ENDBRANCH   1   2
BRANCH   1  21
ATOM     19  C   UNL     1      43.812   5.686  11.078  0.00  0.00    +0.000 C 
ATOM     20  O   UNL     1      42.712   6.226  11.015  0.00  0.00    +0.000 OA
ATOM     21  N   UNL     1      44.950   6.357  11.464  0.00  0.00    +0.000 N 
ATOM     22  H   UNL     1      45.846   5.938  11.261  0.00  0.00    +0.000 HD
BRANCH  19  27
ATOM     23  C   UNL     1      47.254   3.820   6.730  0.00  0.00    +0.000 C 
ATOM     24  C   UNL     1      46.335   3.307   7.801  0.00  0.00    +0.000 A 
ATOM     25  C   UNL     1      45.705   4.219   8.663  0.00  0.00    +0.000 A 
ATOM     26  C   UNL     1      44.837   3.728   9.654  0.00  0.00    +0.000 A 
ATOM     27  C   UNL     1      44.026   4.289  10.700  0.00  0.00    +0.000 A 
ATOM     28  C   UNL     1      43.457   3.211  11.367  0.00  0.00    +0.000 A 
ATOM     29  N   UNL     1      43.857   2.050  10.755  0.00  0.00    +0.000 N 
ATOM     30  C   UNL     1      44.694   2.347   9.717  0.00  0.00    +0.000 A 
ATOM     31  N   UNL     1      45.269   1.423   8.928  0.00  0.00    +0.000 NA
ATOM     32  C   UNL     1      46.087   1.937   7.975  0.00  0.00    +0.000 A 
ATOM     33  C   UNL     1      46.750   0.921   7.082  0.00  0.00    +0.000 C 
ATOM     34  H   UNL     1      43.601   1.111  11.019  0.00  0.00    +0.000 HD
ENDBRANCH  19  27
ENDBRANCH   1  21
TORSDOF 7
ENDMDL
MODEL 9
REMARK VINA RESULT:    -7.255      4.683      6.802
REMARK INTER + INTRA:         -11.132
REMARK INTER:                 -10.195
REMARK INTRA:                  -0.937
REMARK UNBOUND:                -0.908
REMARK  Name = 
REMARK  10 active torsions:
REMARK  status: ('A' for Active; 'I' for Inactive)
REMARK    1  A    between atoms: C_1  and  C_2
REMARK    2  A    between atoms: C_5  and  C_6
REMARK    3  A    between atoms: N_8  and  C_9
REMARK    4  A    between atoms: C_9  and  C_10
REMARK    5  A    between atoms: C_13  and  C_14
REMARK    6  A    between atoms: C_14  and  N_15
REMARK    7  A    between atoms: N_15  and  C_16
REMARK    8  A    between atoms: C_16  and  C_17
REMARK    9  A    between atoms: C_16  and  C_18
REMARK   10  A    between atoms: C_30  and  C_31
REMARK                            x       y       z     vdW  Elec       q    Type
REMARK                         _______ _______ _______ _____ _____    ______ ____
ROOT
ATOM      1  C   UNL     1      46.244   5.090  13.091  0.00  0.00    +0.000 C 
ENDROOT
BRANCH   1   2
ATOM      2  C   UNL     1      45.827   6.477  12.669  0.00  0.00    +0.000 A 
ATOM      3  C   UNL     1      46.433   7.607  13.235  0.00  0.00    +0.000 A 
ATOM      4  C   UNL     1      46.034   8.894  12.859  0.00  0.00    +0.000 A 
ATOM      5  C   UNL     1      45.017   9.083  11.913  0.00  0.00    +0.000 A 
ATOM      6  C   UNL     1      44.401   7.952  11.359  0.00  0.00    +0.000 A 
ATOM      7  C   UNL     1      44.799   6.664  11.736  0.00  0.00    +0.000 A 
BRANCH   5   8
ATOM      8  C   UNL     1      44.552  10.475  11.533  0.00  0.00    +0.000 C 
BRANCH   8   9
ATOM      9  N   UNL     1      43.238  10.783  12.098  0.00  0.00    +0.000 NA
ATOM     10  H   UNL     1      43.372  11.470  12.842  0.00  0.00    +0.000 HD
BRANCH   9  11
ATOM     11  C   UNL     1      42.311  11.387  11.114  0.00  0.00    +0.000 C 
ATOM     12  C   UNL     1      42.492  10.833   9.695  0.00  0.00    +0.000 C 
BRANCH  11  13
ATOM     13  C   UNL     1      40.856  11.194  11.550  0.00  0.00    +0.000 A 
ATOM     14  C   UNL     1      40.341  11.890  12.646  0.00  0.00    +0.000 A 
ATOM     15  C   UNL     1      39.016  11.686  13.020  0.00  0.00    +0.000 A 
ATOM     16  C   UNL     1      38.234  10.799  12.292  0.00  0.00    +0.000 A 
ATOM     17  C   UNL     1      38.816  10.151  11.216  0.00  0.00    +0.000 A 
ATOM     18  N   UNL     1      40.100  10.326  10.829  0.00  0.00    +0.000 NA
ENDBRANCH  11  13
ENDBRANCH   9  11
ENDBRANCH   8   9
ENDBRANCH   5   8
ENDBRANCH   1   2
BRANCH   1  21
ATOM     19  C   UNL     1      47.231   3.969  15.044  0.00  0.00    +0.000 C 
ATOM     20  O   UNL     1      47.512   2.965  14.399  0.00  0.00    +0.000 OA
ATOM     21  N   UNL     1      46.601   5.059  14.489  0.00  0.00    +0.000 N 
ATOM     22  H   UNL     1      46.620   5.933  14.995  0.00  0.00    +0.000 HD
BRANCH  19  27
ATOM     23  C   UNL     1      50.035   8.547  17.374  0.00  0.00    +0.000 C 
ATOM     24  C   UNL     1      49.434   7.223  17.751  0.00  0.00    +0.000 A 
ATOM     25  C   UNL     1      48.824   6.436  16.761  0.00  0.00    +0.000 A 
ATOM     26  C   UNL     1      48.275   5.193  17.124  0.00  0.00    +0.000 A 
ATOM     27  C   UNL     1      47.587   4.123  16.455  0.00  0.00    +0.000 A 
ATOM     28  C   UNL     1      47.261   3.199  17.441  0.00  0.00    +0.000 A 
ATOM     29  N   UNL     1      47.745   3.646  18.644  0.00  0.00    +0.000 N 
ATOM     30  C   UNL     1      48.362   4.852  18.469  0.00  0.00    +0.000 A 
ATOM     31  N   UNL     1      48.927   5.559  19.463  0.00  0.00    +0.000 NA
ATOM     32  C   UNL     1      49.457   6.744  19.070  0.00  0.00    +0.000 A 
ATOM     33  C   UNL     1      50.090   7.559  20.168  0.00  0.00    +0.000 C 
ATOM     34  H   UNL     1      47.661   3.183  19.537  0.00  0.00    +0.000 HD
ENDBRANCH  19  27
ENDBRANCH   1  21
TORSDOF 7
ENDMDL
