MODEL 1
REMARK VINA RESULT:    -6.330      0.000      0.000
REMARK INTER + INTRA:          -8.527
REMARK INTER:                  -8.180
REMARK INTRA:                  -0.347
REMARK UNBOUND:                -0.347
REMARK  Name = 
REMARK  6 active torsions:
REMARK  status: ('A' for Active; 'I' for Inactive)
REMARK    1  A    between atoms: N_1  and  C_2
REMARK    2  A    between atoms: C_2  and  C_3
REMARK    3  A    between atoms: C_7  and  C_8
REMARK    4  A    between atoms: C_9  and  N_10
REMARK    5  A    between atoms: C_14  and  C_15
REMARK    6  A    between atoms: C_15  and  O_17
REMARK                            x       y       z     vdW  Elec       q    Type
REMARK                         _______ _______ _______ _____ _____    ______ ____
ROOT
ATOM      1  C   UNL     1      45.453   5.341   9.382  0.00  0.00    +0.000 C 
ATOM      2  C   UNL     1      45.475   5.501  10.712  0.00  0.00    +0.000 C 
ENDROOT
BRANCH   2   3
ATOM      3  N   UNL     1      45.305   6.651  11.439  0.00  0.00    +0.000 N 
ATOM      4  C   UNL     1      46.299   7.391  12.081  0.00  0.00    +0.000 A 
ATOM      5  C   UNL     1      47.630   7.372  11.661  0.00  0.00    +0.000 A 
ATOM      6  C   UNL     1      48.604   8.074  12.370  0.00  0.00    +0.000 A 
ATOM      7  C   UNL     1      48.220   8.811  13.485  0.00  0.00    +0.000 A 
ATOM      8  C   UNL     1      46.876   8.798  13.835  0.00  0.00    +0.000 A 
ATOM      9  N   UNL     1      45.916   8.126  13.148  0.00  0.00    +0.000 NA
ATOM     10  H   UNL     1      44.385   6.818  11.838  0.00  0.00    +0.000 HD
BRANCH   7  11
ATOM     11  C   UNL     1      49.169   9.547  14.341  0.00  0.00    +0.000 C 
ATOM     12  O   UNL     1      50.374   9.346  14.307  0.00  0.00    +0.000 OA
BRANCH  11  13
ATOM     13  O   UNL     1      48.597  10.442  15.175  0.00  0.00    +0.000 OA
ATOM     14  H   UNL     1      49.017  11.317  15.215  0.00  0.00    +0.000 HD
ENDBRANCH  11  13
ENDBRANCH   7  11
ENDBRANCH   2   3
BRANCH   1  19
ATOM     15  C   UNL     1      46.625   2.708   6.932  0.00  0.00    +0.000 A 
ATOM     16  C   UNL     1      46.214   1.536   7.580  0.00  0.00    +0.000 A 
ATOM     17  C   UNL     1      45.511   1.598   8.780  0.00  0.00    +0.000 A 
ATOM     18  C   UNL     1      45.234   2.835   9.359  0.00  0.00    +0.000 A 
ATOM     19  C   UNL     1      45.672   4.025   8.757  0.00  0.00    +0.000 A 
ATOM     20  C   UNL     1      46.343   3.950   7.529  0.00  0.00    +0.000 A 
BRANCH  15  21
ATOM     21  C   UNL     1      47.404   2.634   5.643  0.00  0.00    +0.000 C 
BRANCH  21  22
ATOM     22  N   UNL     1      48.514   1.692   5.735  0.00  0.00    +0.000 NA
ATOM     23  H   UNL     1      48.888   1.526   4.803  0.00  0.00    +0.000 HD
ATOM     24  H   UNL     1      48.156   0.797   6.066  0.00  0.00    +0.000 HD
ENDBRANCH  21  22
ENDBRANCH  15  21
ENDBRANCH   1  19
TORSDOF 6
ENDMDL
MODEL 2
REMARK VINA RESULT:    -6.069      4.763      5.453
REMARK INTER + INTRA:          -8.190
REMARK INTER:                  -7.886
REMARK INTRA:                  -0.305
REMARK UNBOUND:                -0.347
REMARK  Name = 
REMARK  6 active torsions:
REMARK  status: ('A' for Active; 'I' for Inactive)
REMARK    1  A    between atoms: N_1  and  C_2
REMARK    2  A    between atoms: C_2  and  C_3
REMARK    3  A    between atoms: C_7  and  C_8
REMARK    4  A    between atoms: C_9  and  N_10
REMARK    5  A    between atoms: C_14  and  C_15
REMARK    6  A    between atoms: C_15  and  O_17
REMARK                            x       y       z     vdW  Elec       q    Type
REMARK                         _______ _______ _______ _____ _____    ______ ____
ROOT
ATOM      1  C   UNL     1      45.925   5.667  13.343  0.00  0.00    +0.000 C 
ATOM      2  C   UNL     1      46.972   5.170  14.015  0.00  0.00    +0.000 C 
ENDROOT
BRANCH   2   3
ATOM      3  N   UNL     1      47.833   5.819  14.862  0.00  0.00    +0.000 N 
ATOM      4  C   UNL     1      48.144   5.461  16.175  0.00  0.00    +0.000 A 
ATOM      5  C   UNL     1      48.040   4.147  16.634  0.00  0.00    +0.000 A 
ATOM      6  C   UNL     1      48.298   3.844  17.970  0.00  0.00    +0.000 A 
ATOM      7  C   UNL     1      48.683   4.868  18.827  0.00  0.00    +0.000 A 
ATOM      8  C   UNL     1      48.782   6.148  18.299  0.00  0.00    +0.000 A 
ATOM      9  N   UNL     1      48.543   6.456  16.997  0.00  0.00    +0.000 NA
ATOM     10  H   UNL     1      48.012   6.803  14.681  0.00  0.00    +0.000 HD
BRANCH   7  11
ATOM     11  C   UNL     1      48.929   4.674  20.269  0.00  0.00    +0.000 C 
ATOM     12  O   UNL     1      49.630   5.433  20.922  0.00  0.00    +0.000 OA
BRANCH  11  13
ATOM     13  O   UNL     1      48.336   3.583  20.799  0.00  0.00    +0.000 OA
ATOM     14  H   UNL     1      47.845   3.724  21.626  0.00  0.00    +0.000 HD
ENDBRANCH  11  13
ENDBRANCH   7  11
ENDBRANCH   2   3
BRANCH   1  19
ATOM     15  C   UNL     1      44.572   4.078  10.189  0.00  0.00    +0.000 A 
ATOM     16  C   UNL     1      43.651   3.166  10.720  0.00  0.00    +0.000 A 
ATOM     17  C   UNL     1      43.428   3.102  12.093  0.00  0.00    +0.000 A 
ATOM     18  C   UNL     1      44.145   3.934  12.952  0.00  0.00    +0.000 A 
ATOM     19  C   UNL     1      45.106   4.827  12.453  0.00  0.00    +0.000 A 
ATOM     20  C   UNL     1      45.291   4.909  11.066  0.00  0.00    +0.000 A 
BRANCH  15  21
ATOM     21  C   UNL     1      44.825   4.128   8.703  0.00  0.00    +0.000 C 
BRANCH  21  22
ATOM     22  N   UNL     1      45.880   5.076   8.365  0.00  0.00    +0.000 NA
ATOM     23  H   UNL     1      45.894   5.215   7.357  0.00  0.00    +0.000 HD
ATOM     24  H   UNL     1      46.780   4.665   8.613  0.00  0.00    +0.000 HD
ENDBRANCH  21  22
ENDBRANCH  15  21
ENDBRANCH   1  19
TORSDOF 6
ENDMDL
MODEL 3
REMARK VINA RESULT:    -6.056      6.022      9.548
REMARK INTER + INTRA:          -8.173
REMARK INTER:                  -7.859
REMARK INTRA:                  -0.314
REMARK UNBOUND:                -0.347
REMARK  Name = 
REMARK  6 active torsions:
REMARK  status: ('A' for Active; 'I' for Inactive)
REMARK    1  A    between atoms: N_1  and  C_2
REMARK    2  A    between atoms: C_2  and  C_3
REMARK    3  A    between atoms: C_7  and  C_8
REMARK    4  A    between atoms: C_9  and  N_10
REMARK    5  A    between atoms: C_14  and  C_15
REMARK    6  A    between atoms: C_15  and  O_17
REMARK                            x       y       z     vdW  Elec       q    Type
REMARK                         _______ _______ _______ _____ _____    ______ ____
ROOT
ATOM      1  C   UNL     1      47.195   3.844  17.014  0.00  0.00    +0.000 C 
ATOM      2  C   UNL     1      47.584   4.112  15.760  0.00  0.00    +0.000 C 
ENDROOT
BRANCH   2   3
ATOM      3  N   UNL     1      47.193   3.505  14.595  0.00  0.00    +0.000 N 
ATOM      4  C   UNL     1      46.275   3.994  13.662  0.00  0.00    +0.000 A 
ATOM      5  C   UNL     1      46.021   5.359  13.513  0.00  0.00    +0.000 A 
ATOM      6  C   UNL     1      45.049   5.800  12.616  0.00  0.00    +0.000 A 
ATOM      7  C   UNL     1      44.359   4.860  11.859  0.00  0.00    +0.000 A 
ATOM      8  C   UNL     1      44.676   3.522  12.048  0.00  0.00    +0.000 A 
ATOM      9  N   UNL     1      45.626   3.078  12.911  0.00  0.00    +0.000 NA
ATOM     10  H   UNL     1      47.295   2.496  14.537  0.00  0.00    +0.000 HD
BRANCH   7  11
ATOM     11  C   UNL     1      43.275   5.208  10.920  0.00  0.00    +0.000 C 
ATOM     12  O   UNL     1      42.186   5.612  11.298  0.00  0.00    +0.000 OA
BRANCH  11  13
ATOM     13  O   UNL     1      43.579   5.021   9.618  0.00  0.00    +0.000 OA
ATOM     14  H   UNL     1      43.946   4.151   9.386  0.00  0.00    +0.000 HD
ENDBRANCH  11  13
ENDBRANCH   7  11
ENDBRANCH   2   3
BRANCH   1  19
ATOM     15  C   UNL     1      49.612   5.082  19.648  0.00  0.00    +0.000 A 
ATOM     16  C   UNL     1      48.837   6.061  20.285  0.00  0.00    +0.000 A 
ATOM     17  C   UNL     1      47.518   6.284  19.898  0.00  0.00    +0.000 A 
ATOM     18  C   UNL     1      46.967   5.545  18.853  0.00  0.00    +0.000 A 
ATOM     19  C   UNL     1      47.731   4.589  18.166  0.00  0.00    +0.000 A 
ATOM     20  C   UNL     1      49.045   4.347  18.592  0.00  0.00    +0.000 A 
BRANCH  15  21
ATOM     21  C   UNL     1      51.046   4.859  20.056  0.00  0.00    +0.000 C 
BRANCH  21  22
ATOM     22  N   UNL     1      51.164   4.571  21.481  0.00  0.00    +0.000 NA
ATOM     23  H   UNL     1      51.137   3.564  21.621  0.00  0.00    +0.000 HD
ATOM     24  H   UNL     1      50.349   4.952  21.960  0.00  0.00    +0.000 HD
ENDBRANCH  21  22
ENDBRANCH  15  21
ENDBRANCH   1  19
TORSDOF 6
ENDMDL
MODEL 4
REMARK VINA RESULT:    -6.044      5.686      9.422
REMARK INTER + INTRA:          -8.158
REMARK INTER:                  -7.812
REMARK INTRA:                  -0.347
REMARK UNBOUND:                -0.347
REMARK  Name = 
REMARK  6 active torsions:
REMARK  status: ('A' for Active; 'I' for Inactive)
REMARK    1  A    between atoms: N_1  and  C_2
REMARK    2  A    between atoms: C_2  and  C_3
REMARK    3  A    between atoms: C_7  and  C_8
REMARK    4  A    between atoms: C_9  and  N_10
REMARK    5  A    between atoms: C_14  and  C_15
REMARK    6  A    between atoms: C_15  and  O_17
REMARK                            x       y       z     vdW  Elec       q    Type
REMARK                         _______ _______ _______ _____ _____    ______ ____
ROOT
ATOM      1  C   UNL     1      47.648   3.582  17.069  0.00  0.00    +0.000 C 
ATOM      2  C   UNL     1      47.467   4.175  15.881  0.00  0.00    +0.000 C 
ENDROOT
BRANCH   2   3
ATOM      3  N   UNL     1      47.169   3.599  14.673  0.00  0.00    +0.000 N 
ATOM      4  C   UNL     1      46.271   4.077  13.716  0.00  0.00    +0.000 A 
ATOM      5  C   UNL     1      45.946   5.431  13.611  0.00  0.00    +0.000 A 
ATOM      6  C   UNL     1      44.995   5.857  12.685  0.00  0.00    +0.000 A 
ATOM      7  C   UNL     1      44.398   4.914  11.855  0.00  0.00    +0.000 A 
ATOM      8  C   UNL     1      44.782   3.588  12.004  0.00  0.00    +0.000 A 
ATOM      9  N   UNL     1      45.713   3.160  12.896  0.00  0.00    +0.000 NA
ATOM     10  H   UNL     1      47.332   2.601  14.579  0.00  0.00    +0.000 HD
BRANCH   7  11
ATOM     11  C   UNL     1      43.343   5.242  10.877  0.00  0.00    +0.000 C 
ATOM     12  O   UNL     1      42.295   5.782  11.200  0.00  0.00    +0.000 OA
BRANCH  11  13
ATOM     13  O   UNL     1      43.621   4.876   9.607  0.00  0.00    +0.000 OA
ATOM     14  H   UNL     1      44.381   5.319   9.193  0.00  0.00    +0.000 HD
ENDBRANCH  11  13
ENDBRANCH   7  11
ENDBRANCH   2   3
BRANCH   1  19
ATOM     15  C   UNL     1      47.935   6.482  19.480  0.00  0.00    +0.000 A 
ATOM     16  C   UNL     1      48.497   5.849  20.597  0.00  0.00    +0.000 A 
ATOM     17  C   UNL     1      48.832   4.498  20.552  0.00  0.00    +0.000 A 
ATOM     18  C   UNL     1      48.585   3.759  19.396  0.00  0.00    +0.000 A 
ATOM     19  C   UNL     1      47.983   4.355  18.277  0.00  0.00    +0.000 A 
ATOM     20  C   UNL     1      47.687   5.724  18.321  0.00  0.00    +0.000 A 
BRANCH  15  21
ATOM     21  C   UNL     1      47.554   7.940  19.540  0.00  0.00    +0.000 C 
BRANCH  21  22
ATOM     22  N   UNL     1      47.455   8.529  18.210  0.00  0.00    +0.000 NA
ATOM     23  H   UNL     1      48.016   9.377  18.178  0.00  0.00    +0.000 HD
ATOM     24  H   UNL     1      46.490   8.815  18.050  0.00  0.00    +0.000 HD
ENDBRANCH  21  22
ENDBRANCH  15  21
ENDBRANCH   1  19
TORSDOF 6
ENDMDL
MODEL 5
REMARK VINA RESULT:    -5.793      5.408      8.472
REMARK INTER + INTRA:          -7.833
REMARK INTER:                  -7.458
REMARK INTRA:                  -0.375
REMARK UNBOUND:                -0.347
REMARK  Name = 
REMARK  6 active torsions:
REMARK  status: ('A' for Active; 'I' for Inactive)
REMARK    1  A    between atoms: N_1  and  C_2
REMARK    2  A    between atoms: C_2  and  C_3
REMARK    3  A    between atoms: C_7  and  C_8
REMARK    4  A    between atoms: C_9  and  N_10
REMARK    5  A    between atoms: C_14  and  C_15
REMARK    6  A    between atoms: C_15  and  O_17
REMARK                            x       y       z     vdW  Elec       q    Type
REMARK                         _______ _______ _______ _____ _____    ______ ____
ROOT
ATOM      1  C   UNL     1      48.712   6.530  16.173  0.00  0.00    +0.000 C 
ATOM      2  C   UNL     1      48.428   6.231  14.898  0.00  0.00    +0.000 C 
ENDROOT
BRANCH   2   3
ATOM      3  N   UNL     1      47.516   6.823  14.063  0.00  0.00    +0.000 N 
ATOM      4  C   UNL     1      46.527   6.182  13.313  0.00  0.00    +0.000 A 
ATOM      5  C   UNL     1      45.993   4.948  13.685  0.00  0.00    +0.000 A 
ATOM      6  C   UNL     1      45.055   4.312  12.872  0.00  0.00    +0.000 A 
ATOM      7  C   UNL     1      44.646   4.941  11.702  0.00  0.00    +0.000 A 
ATOM      8  C   UNL     1      45.208   6.175  11.403  0.00  0.00    +0.000 A 
ATOM      9  N   UNL     1      46.115   6.810  12.190  0.00  0.00    +0.000 NA
ATOM     10  H   UNL     1      47.755   7.734  13.681  0.00  0.00    +0.000 HD
BRANCH   7  11
ATOM     11  C   UNL     1      43.702   4.340  10.741  0.00  0.00    +0.000 C 
ATOM     12  O   UNL     1      43.138   3.277  10.954  0.00  0.00    +0.000 OA
BRANCH  11  13
ATOM     13  O   UNL     1      43.531   5.047   9.603  0.00  0.00    +0.000 OA
ATOM     14  H   UNL     1      42.617   5.120   9.280  0.00  0.00    +0.000 HD
ENDBRANCH  11  13
ENDBRANCH   7  11
ENDBRANCH   2   3
BRANCH   1  19
ATOM     15  C   UNL     1      50.696   3.622  17.556  0.00  0.00    +0.000 A 
ATOM     16  C   UNL     1      51.684   4.294  18.288  0.00  0.00    +0.000 A 
ATOM     17  C   UNL     1      51.678   5.684  18.379  0.00  0.00    +0.000 A 
ATOM     18  C   UNL     1      50.695   6.418  17.716  0.00  0.00    +0.000 A 
ATOM     19  C   UNL     1      49.719   5.775  16.939  0.00  0.00    +0.000 A 
ATOM     20  C   UNL     1      49.714   4.375  16.889  0.00  0.00    +0.000 A 
BRANCH  15  21
ATOM     21  C   UNL     1      50.721   2.119  17.445  0.00  0.00    +0.000 C 
BRANCH  21  22
ATOM     22  N   UNL     1      50.019   1.653  16.254  0.00  0.00    +0.000 NA
ATOM     23  H   UNL     1      49.021   1.817  16.370  0.00  0.00    +0.000 HD
ATOM     24  H   UNL     1      50.139   0.643  16.178  0.00  0.00    +0.000 HD
ENDBRANCH  21  22
ENDBRANCH  15  21
ENDBRANCH   1  19
TORSDOF 6
ENDMDL
MODEL 6
REMARK VINA RESULT:    -5.664      1.790      2.642
REMARK INTER + INTRA:          -7.667
REMARK INTER:                  -7.326
REMARK INTRA:                  -0.341
REMARK UNBOUND:                -0.347
REMARK  Name = 
REMARK  6 active torsions:
REMARK  status: ('A' for Active; 'I' for Inactive)
REMARK    1  A    between atoms: N_1  and  C_2
REMARK    2  A    between atoms: C_2  and  C_3
REMARK    3  A    between atoms: C_7  and  C_8
REMARK    4  A    between atoms: C_9  and  N_10
REMARK    5  A    between atoms: C_14  and  C_15
REMARK    6  A    between atoms: C_15  and  O_17
REMARK                            x       y       z     vdW  Elec       q    Type
REMARK                         _______ _______ _______ _____ _____    ______ ____
ROOT
ATOM      1  C   UNL     1      45.619   6.171  11.442  0.00  0.00    +0.000 C 
ATOM      2  C   UNL     1      46.142   6.074  12.672  0.00  0.00    +0.000 C 
ENDROOT
BRANCH   2   3
ATOM      3  N   UNL     1      46.617   7.073  13.482  0.00  0.00    +0.000 N 
ATOM      4  C   UNL     1      47.937   7.520  13.576  0.00  0.00    +0.000 A 
ATOM      5  C   UNL     1      48.844   7.387  12.524  0.00  0.00    +0.000 A 
ATOM      6  C   UNL     1      50.170   7.787  12.683  0.00  0.00    +0.000 A 
ATOM      7  C   UNL     1      50.563   8.341  13.896  0.00  0.00    +0.000 A 
ATOM      8  C   UNL     1      49.603   8.458  14.892  0.00  0.00    +0.000 A 
ATOM      9  N   UNL     1      48.305   8.081  14.748  0.00  0.00    +0.000 NA
ATOM     10  H   UNL     1      46.079   7.292  14.315  0.00  0.00    +0.000 HD
BRANCH   7  11
ATOM     11  C   UNL     1      51.949   8.749  14.194  0.00  0.00    +0.000 C 
ATOM     12  O   UNL     1      52.230   9.870  14.591  0.00  0.00    +0.000 OA
BRANCH  11  13
ATOM     13  O   UNL     1      52.876   7.793  13.973  0.00  0.00    +0.000 OA
ATOM     14  H   UNL     1      52.547   6.879  13.943  0.00  0.00    +0.000 HD
ENDBRANCH  11  13
ENDBRANCH   7  11
ENDBRANCH   2   3
BRANCH   1  19
ATOM     15  C   UNL     1      45.219   3.658   8.644  0.00  0.00    +0.000 A 
ATOM     16  C   UNL     1      44.428   2.684   9.268  0.00  0.00    +0.000 A 
ATOM     17  C   UNL     1      43.980   2.865  10.574  0.00  0.00    +0.000 A 
ATOM     18  C   UNL     1      44.340   4.012  11.279  0.00  0.00    +0.000 A 
ATOM     19  C   UNL     1      45.168   4.984  10.697  0.00  0.00    +0.000 A 
ATOM     20  C   UNL     1      45.578   4.809   9.368  0.00  0.00    +0.000 A 
BRANCH  15  21
ATOM     21  C   UNL     1      45.718   3.448   7.237  0.00  0.00    +0.000 C 
BRANCH  21  22
ATOM     22  N   UNL     1      46.923   4.225   6.969  0.00  0.00    +0.000 NA
ATOM     23  H   UNL     1      47.213   4.070   6.006  0.00  0.00    +0.000 HD
ATOM     24  H   UNL     1      47.677   3.874   7.558  0.00  0.00    +0.000 HD
ENDBRANCH  21  22
ENDBRANCH  15  21
ENDBRANCH   1  19
TORSDOF 6
ENDMDL
MODEL 7
REMARK VINA RESULT:    -5.664      4.836      6.028
REMARK INTER + INTRA:          -7.666
REMARK INTER:                  -7.346
REMARK INTRA:                  -0.320
REMARK UNBOUND:                -0.347
REMARK  Name = 
REMARK  6 active torsions:
REMARK  status: ('A' for Active; 'I' for Inactive)
REMARK    1  A    between atoms: N_1  and  C_2
REMARK    2  A    between atoms: C_2  and  C_3
REMARK    3  A    between atoms: C_7  and  C_8
REMARK    4  A    between atoms: C_9  and  N_10
REMARK    5  A    between atoms: C_14  and  C_15
REMARK    6  A    between atoms: C_15  and  O_17
REMARK                            x       y       z     vdW  Elec       q    Type
REMARK                         _______ _______ _______ _____ _____    ______ ____
ROOT
ATOM      1  C   UNL     1      46.900   6.508  13.288  0.00  0.00    +0.000 C 
ATOM      2  C   UNL     1      47.592   5.913  14.269  0.00  0.00    +0.000 C 
ENDROOT
BRANCH   2   3
ATOM      3  N   UNL     1      48.385   6.489  15.229  0.00  0.00    +0.000 N 
ATOM      4  C   UNL     1      48.584   6.035  16.534  0.00  0.00    +0.000 A 
ATOM      5  C   UNL     1      48.432   4.693  16.887  0.00  0.00    +0.000 A 
ATOM      6  C   UNL     1      48.577   4.292  18.214  0.00  0.00    +0.000 A 
ATOM      7  C   UNL     1      48.897   5.248  19.172  0.00  0.00    +0.000 A 
ATOM      8  C   UNL     1      49.049   6.561  18.747  0.00  0.00    +0.000 A 
ATOM      9  N   UNL     1      48.920   6.964  17.456  0.00  0.00    +0.000 NA
ATOM     10  H   UNL     1      48.585   7.481  15.134  0.00  0.00    +0.000 HD
BRANCH   7  11
ATOM     11  C   UNL     1      49.021   4.949  20.611  0.00  0.00    +0.000 C 
ATOM     12  O   UNL     1      49.638   5.672  21.379  0.00  0.00    +0.000 OA
BRANCH  11  13
ATOM     13  O   UNL     1      48.419   3.806  21.002  0.00  0.00    +0.000 OA
ATOM     14  H   UNL     1      48.364   3.660  21.962  0.00  0.00    +0.000 HD
ENDBRANCH  11  13
ENDBRANCH   7  11
ENDBRANCH   2   3
BRANCH   1  19
ATOM     15  C   UNL     1      44.458   3.975  11.901  0.00  0.00    +0.000 A 
ATOM     16  C   UNL     1      44.482   4.297  10.537  0.00  0.00    +0.000 A 
ATOM     17  C   UNL     1      45.327   5.295  10.059  0.00  0.00    +0.000 A 
ATOM     18  C   UNL     1      46.139   6.001  10.945  0.00  0.00    +0.000 A 
ATOM     19  C   UNL     1      46.104   5.732  12.323  0.00  0.00    +0.000 A 
ATOM     20  C   UNL     1      45.280   4.697  12.785  0.00  0.00    +0.000 A 
BRANCH  15  21
ATOM     21  C   UNL     1      43.527   2.907  12.416  0.00  0.00    +0.000 C 
BRANCH  21  22
ATOM     22  N   UNL     1      43.181   1.944  11.377  0.00  0.00    +0.000 NA
ATOM     23  H   UNL     1      43.955   1.294  11.254  0.00  0.00    +0.000 HD
ATOM     24  H   UNL     1      43.077   2.440  10.493  0.00  0.00    +0.000 HD
ENDBRANCH  21  22
ENDBRANCH  15  21
ENDBRANCH   1  19
TORSDOF 6
ENDMDL
MODEL 8
REMARK VINA RESULT:    -5.439      2.337      3.039
REMARK INTER + INTRA:          -7.376
REMARK INTER:                  -7.072
REMARK INTRA:                  -0.304
REMARK UNBOUND:                -0.347
REMARK  Name = 
REMARK  6 active torsions:
REMARK  status: ('A' for Active; 'I' for Inactive)
REMARK    1  A    between atoms: N_1  and  C_2
REMARK    2  A    between atoms: C_2  and  C_3
REMARK    3  A    between atoms: C_7  and  C_8
REMARK    4  A    between atoms: C_9  and  N_10
REMARK    5  A    between atoms: C_14  and  C_15
REMARK    6  A    between atoms: C_15  and  O_17
REMARK                            x       y       z     vdW  Elec       q    Type
REMARK                         _______ _______ _______ _____ _____    ______ ____
ROOT
ATOM      1  C   UNL     1      45.694   6.554  11.247  0.00  0.00    +0.000 C 
ATOM      2  C   UNL     1      46.846   6.596  11.930  0.00  0.00    +0.000 C 
ENDROOT
BRANCH   2   3
ATOM      3  N   UNL     1      47.434   7.666  12.553  0.00  0.00    +0.000 N 
ATOM      4  C   UNL     1      47.944   7.702  13.853  0.00  0.00    +0.000 A 
ATOM      5  C   UNL     1      48.394   6.555  14.508  0.00  0.00    +0.000 A 
ATOM      6  C   UNL     1      48.835   6.625  15.829  0.00  0.00    +0.000 A 
ATOM      7  C   UNL     1      48.839   7.859  16.470  0.00  0.00    +0.000 A 
ATOM      8  C   UNL     1      48.393   8.960  15.751  0.00  0.00    +0.000 A 
ATOM      9  N   UNL     1      47.970   8.908  14.461  0.00  0.00    +0.000 NA
ATOM     10  H   UNL     1      47.200   8.593  12.208  0.00  0.00    +0.000 HD
BRANCH   7  11
ATOM     11  C   UNL     1      49.233   8.043  17.880  0.00  0.00    +0.000 C 
ATOM     12  O   UNL     1      48.892   9.018  18.532  0.00  0.00    +0.000 OA
BRANCH  11  13
ATOM     13  O   UNL     1      50.014   7.062  18.378  0.00  0.00    +0.000 OA
ATOM     14  H   UNL     1      50.171   7.088  19.337  0.00  0.00    +0.000 HD
ENDBRANCH  11  13
ENDBRANCH   7  11
ENDBRANCH   2   3
BRANCH   1  19
ATOM     15  C   UNL     1      45.223   3.792   8.707  0.00  0.00    +0.000 A 
ATOM     16  C   UNL     1      44.407   2.905   9.421  0.00  0.00    +0.000 A 
ATOM     17  C   UNL     1      43.966   3.224  10.703  0.00  0.00    +0.000 A 
ATOM     18  C   UNL     1      44.357   4.424  11.294  0.00  0.00    +0.000 A 
ATOM     19  C   UNL     1      45.210   5.313  10.620  0.00  0.00    +0.000 A 
ATOM     20  C   UNL     1      45.614   4.998   9.316  0.00  0.00    +0.000 A 
BRANCH  15  21
ATOM     21  C   UNL     1      45.716   3.433   7.327  0.00  0.00    +0.000 C 
BRANCH  21  22
ATOM     22  N   UNL     1      46.895   4.206   6.955  0.00  0.00    +0.000 NA
ATOM     23  H   UNL     1      47.150   3.985   5.995  0.00  0.00    +0.000 HD
ATOM     24  H   UNL     1      47.678   3.910   7.538  0.00  0.00    +0.000 HD
ENDBRANCH  21  22
ENDBRANCH  15  21
ENDBRANCH   1  19
TORSDOF 6
ENDMDL
MODEL 9
REMARK VINA RESULT:    -5.354      4.640      8.506
REMARK INTER + INTRA:          -7.266
REMARK INTER:                  -6.915
REMARK INTRA:                  -0.351
REMARK UNBOUND:                -0.347
REMARK  Name = 
REMARK  6 active torsions:
REMARK  status: ('A' for Active; 'I' for Inactive)
REMARK    1  A    between atoms: N_1  and  C_2
REMARK    2  A    between atoms: C_2  and  C_3
REMARK    3  A    between atoms: C_7  and  C_8
REMARK    4  A    between atoms: C_9  and  N_10
REMARK    5  A    between atoms: C_14  and  C_15
REMARK    6  A    between atoms: C_15  and  O_17
REMARK                            x       y       z     vdW  Elec       q    Type
REMARK                         _______ _______ _______ _____ _____    ______ ____
ROOT
ATOM      1  C   UNL     1      48.578   7.483  14.381  0.00  0.00    +0.000 C 
ATOM      2  C   UNL     1      48.391   6.967  13.158  0.00  0.00    +0.000 C 
ENDROOT
BRANCH   2   3
ATOM      3  N   UNL     1      47.280   7.042  12.358  0.00  0.00    +0.000 N 
ATOM      4  C   UNL     1      46.398   6.005  12.050  0.00  0.00    +0.000 A 
ATOM      5  C   UNL     1      46.216   4.907  12.893  0.00  0.00    +0.000 A 
ATOM      6  C   UNL     1      45.374   3.862  12.517  0.00  0.00    +0.000 A 
ATOM      7  C   UNL     1      44.705   3.944  11.301  0.00  0.00    +0.000 A 
ATOM      8  C   UNL     1      44.921   5.072  10.521  0.00  0.00    +0.000 A 
ATOM      9  N   UNL     1      45.731   6.103  10.880  0.00  0.00    +0.000 NA
ATOM     10  H   UNL     1      47.254   7.785  11.665  0.00  0.00    +0.000 HD
BRANCH   7  11
ATOM     11  C   UNL     1      43.833   2.876  10.777  0.00  0.00    +0.000 C 
ATOM     12  O   UNL     1      44.028   2.342   9.695  0.00  0.00    +0.000 OA
BRANCH  11  13
ATOM     13  O   UNL     1      42.794   2.554  11.578  0.00  0.00    +0.000 OA
ATOM     14  H   UNL     1      41.998   2.221  11.130  0.00  0.00    +0.000 HD
ENDBRANCH  11  13
ENDBRANCH   7  11
ENDBRANCH   2   3
BRANCH   1  19
ATOM     15  C   UNL     1      51.117   6.064  16.798  0.00  0.00    +0.000 A 
ATOM     16  C   UNL     1      52.253   6.817  16.468  0.00  0.00    +0.000 A 
ATOM     17  C   UNL     1      52.184   7.817  15.503  0.00  0.00    +0.000 A 
ATOM     18  C   UNL     1      50.983   8.060  14.839  0.00  0.00    +0.000 A 
ATOM     19  C   UNL     1      49.840   7.294  15.116  0.00  0.00    +0.000 A 
ATOM     20  C   UNL     1      49.913   6.317  16.118  0.00  0.00    +0.000 A 
BRANCH  15  21
ATOM     21  C   UNL     1      51.202   4.968  17.830  0.00  0.00    +0.000 C 
BRANCH  21  22
ATOM     22  N   UNL     1      50.773   3.683  17.290  0.00  0.00    +0.000 NA
ATOM     23  H   UNL     1      49.896   3.809  16.788  0.00  0.00    +0.000 HD
ATOM     24  H   UNL     1      50.573   3.052  18.066  0.00  0.00    +0.000 HD
ENDBRANCH  21  22
ENDBRANCH  15  21
ENDBRANCH   1  19
TORSDOF 6
ENDMDL
