MODEL 1
REMARK VINA RESULT:    -7.803      0.000      0.000
REMARK INTER + INTRA:         -12.245
REMARK INTER:                 -10.996
REMARK INTRA:                  -1.249
REMARK UNBOUND:                -1.249
REMARK  Name = 
REMARK  8 active torsions:
REMARK  status: ('A' for Active; 'I' for Inactive)
REMARK    1  A    between atoms: C_1  and  O_2
REMARK    2  A    between atoms: O_2  and  C_3
REMARK    3  A    between atoms: C_7  and  C_8
REMARK    4  A    between atoms: C_8  and  N_9
REMARK    5  A    between atoms: N_9  and  C_10
REMARK    6  A    between atoms: C_13  and  C_14
REMARK    7  A    between atoms: C_14  and  N_15
REMARK    8  A    between atoms: C_16  and  C_18
REMARK                            x       y       z     vdW  Elec       q    Type
REMARK                         _______ _______ _______ _____ _____    ______ ____
ROOT
ATOM      1  C   UNL     1      45.346   6.878  11.392  0.00  0.00    +0.000 A 
ATOM      2  C   UNL     1      46.574   6.280  11.687  0.00  0.00    +0.000 A 
ATOM      3  C   UNL     1      47.448   6.852  12.623  0.00  0.00    +0.000 A 
ATOM      4  C   UNL     1      47.108   8.038  13.285  0.00  0.00    +0.000 A 
ATOM      5  C   UNL     1      45.923   8.686  12.923  0.00  0.00    +0.000 A 
ATOM      6  C   UNL     1      45.062   8.115  11.981  0.00  0.00    +0.000 A 
ENDROOT
BRANCH   1   7
ATOM      7  N   UNL     1      44.395   6.346  10.517  0.00  0.00    +0.000 N 
ATOM      8  H   UNL     1      44.680   6.465   9.547  0.00  0.00    +0.000 HD
BRANCH   7   9
ATOM      9  C   UNL     1      43.852   5.018  10.770  0.00  0.00    +0.000 C 
BRANCH   9  14
ATOM     10  C   UNL     1      45.814   3.542   7.831  0.00  0.00    +0.000 A 
ATOM     11  C   UNL     1      45.650   2.176   8.055  0.00  0.00    +0.000 A 
ATOM     12  C   UNL     1      44.872   1.731   9.126  0.00  0.00    +0.000 A 
ATOM     13  C   UNL     1      44.265   2.650   9.983  0.00  0.00    +0.000 A 
ATOM     14  C   UNL     1      44.426   4.029   9.780  0.00  0.00    +0.000 A 
ATOM     15  C   UNL     1      45.195   4.459   8.689  0.00  0.00    +0.000 A 
BRANCH  10  17
ATOM     16  C   UNL     1      47.001   3.243   5.791  0.00  0.00    +0.000 C 
ATOM     17  O   UNL     1      46.556   4.108   6.830  0.00  0.00    +0.000 OA
ENDBRANCH  10  17
ENDBRANCH   9  14
ENDBRANCH   7   9
ENDBRANCH   1   7
BRANCH   4  18
ATOM     18  C   UNL     1      47.998   8.625  14.349  0.00  0.00    +0.000 C 
BRANCH  18  19
ATOM     19  N   UNL     1      48.204   7.701  15.432  0.00  0.00    +0.000 N 
ATOM     20  C   UNL     1      49.366   6.982  15.538  0.00  0.00    +0.000 C 
ATOM     21  O   UNL     1      50.300   7.134  14.755  0.00  0.00    +0.000 OA
ATOM     22  H   UNL     1      47.379   7.400  15.942  0.00  0.00    +0.000 HD
BRANCH  20  23
ATOM     23  C   UNL     1      49.466   6.063  16.679  0.00  0.00    +0.000 A 
ATOM     24  C   UNL     1      50.435   6.276  17.650  0.00  0.00    +0.000 A 
ATOM     25  S   UNL     1      50.377   5.156  18.934  0.00  0.00    +0.000 S 
ATOM     26  C   UNL     1      49.089   4.311  18.211  0.00  0.00    +0.000 A 
ATOM     27  N   UNL     1      48.562   3.205  18.801  0.00  0.00    +0.000 NA
ATOM     28  C   UNL     1      47.611   2.645  18.129  0.00  0.00    +0.000 A 
ATOM     29  N   UNL     1      47.136   3.096  16.924  0.00  0.00    +0.000 N 
ATOM     30  C   UNL     1      47.617   4.224  16.306  0.00  0.00    +0.000 A 
ATOM     31  O   UNL     1      47.141   4.623  15.249  0.00  0.00    +0.000 OA
ATOM     32  C   UNL     1      48.696   4.887  17.015  0.00  0.00    +0.000 A 
ATOM     33  H   UNL     1      46.385   2.615  16.452  0.00  0.00    +0.000 HD
ENDBRANCH  20  23
ENDBRANCH  18  19
ENDBRANCH   4  18
TORSDOF 7
ENDMDL
MODEL 2
REMARK VINA RESULT:    -7.775      1.821      2.559
REMARK INTER + INTRA:         -12.207
REMARK INTER:                 -11.590
REMARK INTRA:                  -0.617
REMARK UNBOUND:                -1.249
REMARK  Name = 
REMARK  8 active torsions:
REMARK  status: ('A' for Active; 'I' for Inactive)
REMARK    1  A    between atoms: C_1  and  O_2
REMARK    2  A    between atoms: O_2  and  C_3
REMARK    3  A    between atoms: C_7  and  C_8
REMARK    4  A    between atoms: C_8  and  N_9
REMARK    5  A    between atoms: N_9  and  C_10
REMARK    6  A    between atoms: C_13  and  C_14
REMARK    7  A    between atoms: C_14  and  N_15
REMARK    8  A    between atoms: C_16  and  C_18
REMARK                            x       y       z     vdW  Elec       q    Type
REMARK                         _______ _______ _______ _____ _____    ______ ____
ROOT
ATOM      1  C   UNL     1      44.931   4.840  11.345  0.00  0.00    +0.000 A 
ATOM      2  C   UNL     1      45.338   6.137  11.020  0.00  0.00    +0.000 A 
ATOM      3  C   UNL     1      46.397   6.753  11.703  0.00  0.00    +0.000 A 
ATOM      4  C   UNL     1      47.073   6.080  12.728  0.00  0.00    +0.000 A 
ATOM      5  C   UNL     1      46.606   4.820  13.117  0.00  0.00    +0.000 A 
ATOM      6  C   UNL     1      45.543   4.218  12.439  0.00  0.00    +0.000 A 
ENDROOT
BRANCH   1   7
ATOM      7  N   UNL     1      43.925   4.135  10.680  0.00  0.00    +0.000 N 
ATOM      8  H   UNL     1      43.464   4.718   9.985  0.00  0.00    +0.000 HD
BRANCH   7   9
ATOM      9  C   UNL     1      44.203   2.797  10.175  0.00  0.00    +0.000 C 
BRANCH   9  14
ATOM     10  C   UNL     1      46.667   1.767   7.431  0.00  0.00    +0.000 A 
ATOM     11  C   UNL     1      46.887   2.987   6.791  0.00  0.00    +0.000 A 
ATOM     12  C   UNL     1      46.275   4.147   7.271  0.00  0.00    +0.000 A 
ATOM     13  C   UNL     1      45.435   4.091   8.383  0.00  0.00    +0.000 A 
ATOM     14  C   UNL     1      45.194   2.871   9.035  0.00  0.00    +0.000 A 
ATOM     15  C   UNL     1      45.830   1.718   8.552  0.00  0.00    +0.000 A 
BRANCH  10  17
ATOM     16  C   UNL     1      46.630  -0.601   7.659  0.00  0.00    +0.000 C 
ATOM     17  O   UNL     1      47.193   0.559   7.058  0.00  0.00    +0.000 OA
ENDBRANCH  10  17
ENDBRANCH   9  14
ENDBRANCH   7   9
ENDBRANCH   1   7
BRANCH   4  18
ATOM     18  C   UNL     1      48.261   6.694  13.420  0.00  0.00    +0.000 C 
BRANCH  18  19
ATOM     19  N   UNL     1      48.073   6.744  14.846  0.00  0.00    +0.000 N 
ATOM     20  C   UNL     1      49.143   6.752  15.702  0.00  0.00    +0.000 C 
ATOM     21  O   UNL     1      50.302   6.777  15.296  0.00  0.00    +0.000 OA
ATOM     22  H   UNL     1      47.152   6.500  15.196  0.00  0.00    +0.000 HD
BRANCH  20  23
ATOM     23  C   UNL     1      48.833   6.798  17.137  0.00  0.00    +0.000 A 
ATOM     24  C   UNL     1      48.486   8.007  17.726  0.00  0.00    +0.000 A 
ATOM     25  S   UNL     1      48.100   7.876  19.382  0.00  0.00    +0.000 S 
ATOM     26  C   UNL     1      48.437   6.208  19.385  0.00  0.00    +0.000 A 
ATOM     27  N   UNL     1      48.322   5.475  20.524  0.00  0.00    +0.000 NA
ATOM     28  C   UNL     1      48.639   4.230  20.390  0.00  0.00    +0.000 A 
ATOM     29  N   UNL     1      49.053   3.651  19.219  0.00  0.00    +0.000 N 
ATOM     30  C   UNL     1      49.155   4.345  18.037  0.00  0.00    +0.000 A 
ATOM     31  O   UNL     1      49.490   3.786  16.998  0.00  0.00    +0.000 OA
ATOM     32  C   UNL     1      48.821   5.754  18.135  0.00  0.00    +0.000 A 
ATOM     33  H   UNL     1      49.280   2.669  19.179  0.00  0.00    +0.000 HD
ENDBRANCH  20  23
ENDBRANCH  18  19
ENDBRANCH   4  18
TORSDOF 7
ENDMDL
MODEL 3
REMARK VINA RESULT:    -7.480      2.186      3.040
REMARK INTER + INTRA:         -11.791
REMARK INTER:                 -10.894
REMARK INTRA:                  -0.897
REMARK UNBOUND:                -1.249
REMARK  Name = 
REMARK  8 active torsions:
REMARK  status: ('A' for Active; 'I' for Inactive)
REMARK    1  A    between atoms: C_1  and  O_2
REMARK    2  A    between atoms: O_2  and  C_3
REMARK    3  A    between atoms: C_7  and  C_8
REMARK    4  A    between atoms: C_8  and  N_9
REMARK    5  A    between atoms: N_9  and  C_10
REMARK    6  A    between atoms: C_13  and  C_14
REMARK    7  A    between atoms: C_14  and  N_15
REMARK    8  A    between atoms: C_16  and  C_18
REMARK                            x       y       z     vdW  Elec       q    Type
REMARK                         _______ _______ _______ _____ _____    ______ ____
ROOT
ATOM      1  C   UNL     1      44.827   5.041  11.345  0.00  0.00    +0.000 A 
ATOM      2  C   UNL     1      45.030   6.406  11.126  0.00  0.00    +0.000 A 
ATOM      3  C   UNL     1      45.979   7.122  11.870  0.00  0.00    +0.000 A 
ATOM      4  C   UNL     1      46.748   6.482  12.850  0.00  0.00    +0.000 A 
ATOM      5  C   UNL     1      46.480   5.139  13.134  0.00  0.00    +0.000 A 
ATOM      6  C   UNL     1      45.524   4.436  12.396  0.00  0.00    +0.000 A 
ENDROOT
BRANCH   1   7
ATOM      7  N   UNL     1      43.943   4.243  10.612  0.00  0.00    +0.000 N 
ATOM      8  H   UNL     1      43.543   4.759   9.832  0.00  0.00    +0.000 HD
BRANCH   7   9
ATOM      9  C   UNL     1      44.343   2.896  10.231  0.00  0.00    +0.000 C 
BRANCH   9  14
ATOM     10  C   UNL     1      46.712   1.824   7.419  0.00  0.00    +0.000 A 
ATOM     11  C   UNL     1      46.960   3.045   6.793  0.00  0.00    +0.000 A 
ATOM     12  C   UNL     1      46.399   4.219   7.303  0.00  0.00    +0.000 A 
ATOM     13  C   UNL     1      45.581   4.174   8.432  0.00  0.00    +0.000 A 
ATOM     14  C   UNL     1      45.312   2.954   9.071  0.00  0.00    +0.000 A 
ATOM     15  C   UNL     1      45.898   1.786   8.557  0.00  0.00    +0.000 A 
BRANCH  10  17
ATOM     16  C   UNL     1      46.629  -0.543   7.646  0.00  0.00    +0.000 C 
ATOM     17  O   UNL     1      47.188   0.605   7.017  0.00  0.00    +0.000 OA
ENDBRANCH  10  17
ENDBRANCH   9  14
ENDBRANCH   7   9
ENDBRANCH   1   7
BRANCH   4  18
ATOM     18  C   UNL     1      47.825   7.215  13.605  0.00  0.00    +0.000 C 
BRANCH  18  19
ATOM     19  N   UNL     1      47.807   6.883  15.005  0.00  0.00    +0.000 N 
ATOM     20  C   UNL     1      48.963   6.580  15.676  0.00  0.00    +0.000 C 
ATOM     21  O   UNL     1      50.064   6.633  15.134  0.00  0.00    +0.000 OA
ATOM     22  H   UNL     1      46.911   6.617  15.401  0.00  0.00    +0.000 HD
BRANCH  20  23
ATOM     23  C   UNL     1      48.825   6.249  17.100  0.00  0.00    +0.000 A 
ATOM     24  C   UNL     1      49.155   4.976  17.545  0.00  0.00    +0.000 A 
ATOM     25  S   UNL     1      48.996   4.776  19.230  0.00  0.00    +0.000 S 
ATOM     26  C   UNL     1      48.427   6.368  19.421  0.00  0.00    +0.000 A 
ATOM     27  N   UNL     1      48.079   6.843  20.647  0.00  0.00    +0.000 NA
ATOM     28  C   UNL     1      47.635   8.055  20.641  0.00  0.00    +0.000 A 
ATOM     29  N   UNL     1      47.513   8.838  19.522  0.00  0.00    +0.000 N 
ATOM     30  C   UNL     1      47.880   8.412  18.269  0.00  0.00    +0.000 A 
ATOM     31  O   UNL     1      47.797   9.152  17.295  0.00  0.00    +0.000 OA
ATOM     32  C   UNL     1      48.377   7.049  18.217  0.00  0.00    +0.000 A 
ATOM     33  H   UNL     1      47.164   9.782  19.586  0.00  0.00    +0.000 HD
ENDBRANCH  20  23
ENDBRANCH  18  19
ENDBRANCH   4  18
TORSDOF 7
ENDMDL
MODEL 4
REMARK VINA RESULT:    -7.158      1.876      2.209
REMARK INTER + INTRA:         -11.336
REMARK INTER:                 -10.224
REMARK INTRA:                  -1.112
REMARK UNBOUND:                -1.249
REMARK  Name = 
REMARK  8 active torsions:
REMARK  status: ('A' for Active; 'I' for Inactive)
REMARK    1  A    between atoms: C_1  and  O_2
REMARK    2  A    between atoms: O_2  and  C_3
REMARK    3  A    between atoms: C_7  and  C_8
REMARK    4  A    between atoms: C_8  and  N_9
REMARK    5  A    between atoms: N_9  and  C_10
REMARK    6  A    between atoms: C_13  and  C_14
REMARK    7  A    between atoms: C_14  and  N_15
REMARK    8  A    between atoms: C_16  and  C_18
REMARK                            x       y       z     vdW  Elec       q    Type
REMARK                         _______ _______ _______ _____ _____    ______ ____
ROOT
ATOM      1  C   UNL     1      45.593   7.032  11.538  0.00  0.00    +0.000 A 
ATOM      2  C   UNL     1      46.848   6.442  11.705  0.00  0.00    +0.000 A 
ATOM      3  C   UNL     1      47.743   6.914  12.678  0.00  0.00    +0.000 A 
ATOM      4  C   UNL     1      47.395   7.988  13.506  0.00  0.00    +0.000 A 
ATOM      5  C   UNL     1      46.177   8.637  13.278  0.00  0.00    +0.000 A 
ATOM      6  C   UNL     1      45.297   8.169  12.298  0.00  0.00    +0.000 A 
ENDROOT
BRANCH   1   7
ATOM      7  N   UNL     1      44.623   6.590  10.634  0.00  0.00    +0.000 N 
ATOM      8  H   UNL     1      44.966   6.634   9.677  0.00  0.00    +0.000 HD
BRANCH   7   9
ATOM      9  C   UNL     1      43.904   5.352  10.903  0.00  0.00    +0.000 C 
BRANCH   9  14
ATOM     10  C   UNL     1      45.731   3.539   8.067  0.00  0.00    +0.000 A 
ATOM     11  C   UNL     1      45.477   2.206   8.389  0.00  0.00    +0.000 A 
ATOM     12  C   UNL     1      44.681   1.894   9.494  0.00  0.00    +0.000 A 
ATOM     13  C   UNL     1      44.148   2.911  10.286  0.00  0.00    +0.000 A 
ATOM     14  C   UNL     1      44.399   4.257   9.984  0.00  0.00    +0.000 A 
ATOM     15  C   UNL     1      45.184   4.556   8.860  0.00  0.00    +0.000 A 
BRANCH  10  17
ATOM     16  C   UNL     1      47.388   3.037   6.435  0.00  0.00    +0.000 C 
ATOM     17  O   UNL     1      46.499   3.980   7.023  0.00  0.00    +0.000 OA
ENDBRANCH  10  17
ENDBRANCH   9  14
ENDBRANCH   7   9
ENDBRANCH   1   7
BRANCH   4  18
ATOM     18  C   UNL     1      48.309   8.458  14.607  0.00  0.00    +0.000 C 
BRANCH  18  19
ATOM     19  N   UNL     1      48.133   7.680  15.805  0.00  0.00    +0.000 N 
ATOM     20  C   UNL     1      49.043   6.721  16.167  0.00  0.00    +0.000 C 
ATOM     21  O   UNL     1      50.072   6.524  15.524  0.00  0.00    +0.000 OA
ATOM     22  H   UNL     1      47.203   7.668  16.212  0.00  0.00    +0.000 HD
BRANCH  20  23
ATOM     23  C   UNL     1      48.760   5.983  17.404  0.00  0.00    +0.000 A 
ATOM     24  C   UNL     1      48.917   4.604  17.432  0.00  0.00    +0.000 A 
ATOM     25  S   UNL     1      48.605   3.909  18.958  0.00  0.00    +0.000 S 
ATOM     26  C   UNL     1      48.197   5.421  19.623  0.00  0.00    +0.000 A 
ATOM     27  N   UNL     1      47.806   5.530  20.921  0.00  0.00    +0.000 NA
ATOM     28  C   UNL     1      47.495   6.729  21.285  0.00  0.00    +0.000 A 
ATOM     29  N   UNL     1      47.546   7.831  20.471  0.00  0.00    +0.000 N 
ATOM     30  C   UNL     1      47.962   7.774  19.162  0.00  0.00    +0.000 A 
ATOM     31  O   UNL     1      48.035   8.786  18.473  0.00  0.00    +0.000 OA
ATOM     32  C   UNL     1      48.313   6.444  18.699  0.00  0.00    +0.000 A 
ATOM     33  H   UNL     1      47.295   8.744  20.818  0.00  0.00    +0.000 HD
ENDBRANCH  20  23
ENDBRANCH  18  19
ENDBRANCH   4  18
TORSDOF 7
ENDMDL
MODEL 5
REMARK VINA RESULT:    -7.088      2.181      2.498
REMARK INTER + INTRA:         -11.238
REMARK INTER:                 -10.303
REMARK INTRA:                  -0.935
REMARK UNBOUND:                -1.249
REMARK  Name = 
REMARK  8 active torsions:
REMARK  status: ('A' for Active; 'I' for Inactive)
REMARK    1  A    between atoms: C_1  and  O_2
REMARK    2  A    between atoms: O_2  and  C_3
REMARK    3  A    between atoms: C_7  and  C_8
REMARK    4  A    between atoms: C_8  and  N_9
REMARK    5  A    between atoms: N_9  and  C_10
REMARK    6  A    between atoms: C_13  and  C_14
REMARK    7  A    between atoms: C_14  and  N_15
REMARK    8  A    between atoms: C_16  and  C_18
REMARK                            x       y       z     vdW  Elec       q    Type
REMARK                         _______ _______ _______ _____ _____    ______ ____
ROOT
ATOM      1  C   UNL     1      46.948   6.532  12.131  0.00  0.00    +0.000 A 
ATOM      2  C   UNL     1      47.033   5.579  13.149  0.00  0.00    +0.000 A 
ATOM      3  C   UNL     1      47.708   5.861  14.346  0.00  0.00    +0.000 A 
ATOM      4  C   UNL     1      48.312   7.108  14.549  0.00  0.00    +0.000 A 
ATOM      5  C   UNL     1      48.308   8.028  13.495  0.00  0.00    +0.000 A 
ATOM      6  C   UNL     1      47.643   7.735  12.301  0.00  0.00    +0.000 A 
ENDROOT
BRANCH   1   7
ATOM      7  N   UNL     1      46.250   6.354  10.934  0.00  0.00    +0.000 N 
ATOM      8  H   UNL     1      46.873   6.061  10.185  0.00  0.00    +0.000 HD
BRANCH   7   9
ATOM      9  C   UNL     1      45.004   5.599  10.937  0.00  0.00    +0.000 C 
BRANCH   9  14
ATOM     10  C   UNL     1      45.905   3.579   7.811  0.00  0.00    +0.000 A 
ATOM     11  C   UNL     1      45.378   2.330   8.134  0.00  0.00    +0.000 A 
ATOM     12  C   UNL     1      44.694   2.149   9.339  0.00  0.00    +0.000 A 
ATOM     13  C   UNL     1      44.546   3.214  10.229  0.00  0.00    +0.000 A 
ATOM     14  C   UNL     1      45.077   4.477   9.926  0.00  0.00    +0.000 A 
ATOM     15  C   UNL     1      45.745   4.646   8.703  0.00  0.00    +0.000 A 
BRANCH  10  17
ATOM     16  C   UNL     1      46.711   2.864   5.690  0.00  0.00    +0.000 C 
ATOM     17  O   UNL     1      46.603   3.886   6.674  0.00  0.00    +0.000 OA
ENDBRANCH  10  17
ENDBRANCH   9  14
ENDBRANCH   7   9
ENDBRANCH   1   7
BRANCH   4  18
ATOM     18  C   UNL     1      48.973   7.457  15.856  0.00  0.00    +0.000 C 
BRANCH  18  19
ATOM     19  N   UNL     1      50.014   6.519  16.186  0.00  0.00    +0.000 N 
ATOM     20  C   UNL     1      50.179   6.067  17.470  0.00  0.00    +0.000 C 
ATOM     21  O   UNL     1      49.417   6.392  18.378  0.00  0.00    +0.000 OA
ATOM     22  H   UNL     1      50.772   6.421  15.518  0.00  0.00    +0.000 HD
BRANCH  20  23
ATOM     23  C   UNL     1      51.277   5.119  17.694  0.00  0.00    +0.000 A 
ATOM     24  C   UNL     1      52.523   5.591  18.087  0.00  0.00    +0.000 A 
ATOM     25  S   UNL     1      53.668   4.357  18.361  0.00  0.00    +0.000 S 
ATOM     26  C   UNL     1      52.556   3.150  17.911  0.00  0.00    +0.000 A 
ATOM     27  N   UNL     1      52.914   1.838  17.906  0.00  0.00    +0.000 NA
ATOM     28  C   UNL     1      51.983   1.034  17.514  0.00  0.00    +0.000 A 
ATOM     29  N   UNL     1      50.725   1.421  17.133  0.00  0.00    +0.000 N 
ATOM     30  C   UNL     1      50.309   2.731  17.151  0.00  0.00    +0.000 A 
ATOM     31  O   UNL     1      49.163   3.039  16.843  0.00  0.00    +0.000 OA
ATOM     32  C   UNL     1      51.323   3.680  17.574  0.00  0.00    +0.000 A 
ATOM     33  H   UNL     1      50.039   0.741  16.842  0.00  0.00    +0.000 HD
ENDBRANCH  20  23
ENDBRANCH  18  19
ENDBRANCH   4  18
TORSDOF 7
ENDMDL
MODEL 6
REMARK VINA RESULT:    -6.998      3.454      7.530
REMARK INTER + INTRA:         -11.111
REMARK INTER:                  -9.465
REMARK INTRA:                  -1.646
REMARK UNBOUND:                -1.249
REMARK  Name = 
REMARK  8 active torsions:
REMARK  status: ('A' for Active; 'I' for Inactive)
REMARK    1  A    between atoms: C_1  and  O_2
REMARK    2  A    between atoms: O_2  and  C_3
REMARK    3  A    between atoms: C_7  and  C_8
REMARK    4  A    between atoms: C_8  and  N_9
REMARK    5  A    between atoms: N_9  and  C_10
REMARK    6  A    between atoms: C_13  and  C_14
REMARK    7  A    between atoms: C_14  and  N_15
REMARK    8  A    between atoms: C_16  and  C_18
REMARK                            x       y       z     vdW  Elec       q    Type
REMARK                         _______ _______ _______ _____ _____    ______ ____
ROOT
ATOM      1  C   UNL     1      49.802   7.268  17.472  0.00  0.00    +0.000 A 
ATOM      2  C   UNL     1      48.810   8.245  17.596  0.00  0.00    +0.000 A 
ATOM      3  C   UNL     1      48.245   8.847  16.462  0.00  0.00    +0.000 A 
ATOM      4  C   UNL     1      48.663   8.481  15.176  0.00  0.00    +0.000 A 
ATOM      5  C   UNL     1      49.719   7.572  15.054  0.00  0.00    +0.000 A 
ATOM      6  C   UNL     1      50.285   6.985  16.190  0.00  0.00    +0.000 A 
ENDROOT
BRANCH   1   7
ATOM      7  N   UNL     1      50.376   6.580  18.544  0.00  0.00    +0.000 N 
ATOM      8  H   UNL     1      50.855   7.218  19.176  0.00  0.00    +0.000 HD
BRANCH   7   9
ATOM      9  C   UNL     1      49.589   5.586  19.261  0.00  0.00    +0.000 C 
BRANCH   9  14
ATOM     10  C   UNL     1      49.384   2.536  16.954  0.00  0.00    +0.000 A 
ATOM     11  C   UNL     1      48.023   2.520  16.647  0.00  0.00    +0.000 A 
ATOM     12  C   UNL     1      47.182   3.516  17.147  0.00  0.00    +0.000 A 
ATOM     13  C   UNL     1      47.694   4.523  17.965  0.00  0.00    +0.000 A 
ATOM     14  C   UNL     1      49.058   4.552  18.293  0.00  0.00    +0.000 A 
ATOM     15  C   UNL     1      49.894   3.556  17.767  0.00  0.00    +0.000 A 
BRANCH  10  17
ATOM     16  C   UNL     1      51.488   1.492  17.330  0.00  0.00    +0.000 C 
ATOM     17  O   UNL     1      50.311   1.619  16.540  0.00  0.00    +0.000 OA
ENDBRANCH  10  17
ENDBRANCH   9  14
ENDBRANCH   7   9
ENDBRANCH   1   7
BRANCH   4  18
ATOM     18  C   UNL     1      48.015   9.058  13.946  0.00  0.00    +0.000 C 
BRANCH  18  19
ATOM     19  N   UNL     1      46.868   8.287  13.544  0.00  0.00    +0.000 N 
ATOM     20  C   UNL     1      46.946   7.387  12.514  0.00  0.00    +0.000 C 
ATOM     21  O   UNL     1      48.002   7.155  11.929  0.00  0.00    +0.000 OA
ATOM     22  H   UNL     1      45.960   8.621  13.851  0.00  0.00    +0.000 HD
BRANCH  20  23
ATOM     23  C   UNL     1      45.713   6.661  12.184  0.00  0.00    +0.000 A 
ATOM     24  C   UNL     1      44.643   7.344  11.622  0.00  0.00    +0.000 A 
ATOM     25  S   UNL     1      43.313   6.345  11.246  0.00  0.00    +0.000 S 
ATOM     26  C   UNL     1      44.098   4.972  11.871  0.00  0.00    +0.000 A 
ATOM     27  N   UNL     1      43.485   3.758  11.874  0.00  0.00    +0.000 NA
ATOM     28  C   UNL     1      44.183   2.810  12.407  0.00  0.00    +0.000 A 
ATOM     29  N   UNL     1      45.440   2.965  12.930  0.00  0.00    +0.000 N 
ATOM     30  C   UNL     1      46.110   4.165  12.922  0.00  0.00    +0.000 A 
ATOM     31  O   UNL     1      47.251   4.259  13.362  0.00  0.00    +0.000 OA
ATOM     32  C   UNL     1      45.365   5.268  12.344  0.00  0.00    +0.000 A 
ATOM     33  H   UNL     1      45.936   2.181  13.327  0.00  0.00    +0.000 HD
ENDBRANCH  20  23
ENDBRANCH  18  19
ENDBRANCH   4  18
TORSDOF 7
ENDMDL
MODEL 7
REMARK VINA RESULT:    -6.901      2.963      8.105
REMARK INTER + INTRA:         -10.975
REMARK INTER:                  -9.694
REMARK INTRA:                  -1.281
REMARK UNBOUND:                -1.249
REMARK  Name = 
REMARK  8 active torsions:
REMARK  status: ('A' for Active; 'I' for Inactive)
REMARK    1  A    between atoms: C_1  and  O_2
REMARK    2  A    between atoms: O_2  and  C_3
REMARK    3  A    between atoms: C_7  and  C_8
REMARK    4  A    between atoms: C_8  and  N_9
REMARK    5  A    between atoms: N_9  and  C_10
REMARK    6  A    between atoms: C_13  and  C_14
REMARK    7  A    between atoms: C_14  and  N_15
REMARK    8  A    between atoms: C_16  and  C_18
REMARK                            x       y       z     vdW  Elec       q    Type
REMARK                         _______ _______ _______ _____ _____    ______ ____
ROOT
ATOM      1  C   UNL     1      49.490   7.926  15.996  0.00  0.00    +0.000 A 
ATOM      2  C   UNL     1      48.371   8.731  15.767  0.00  0.00    +0.000 A 
ATOM      3  C   UNL     1      47.747   8.759  14.511  0.00  0.00    +0.000 A 
ATOM      4  C   UNL     1      48.233   7.977  13.456  0.00  0.00    +0.000 A 
ATOM      5  C   UNL     1      49.406   7.243  13.657  0.00  0.00    +0.000 A 
ATOM      6  C   UNL     1      50.028   7.230  14.908  0.00  0.00    +0.000 A 
ENDROOT
BRANCH   1   7
ATOM      7  N   UNL     1      50.135   7.797  17.229  0.00  0.00    +0.000 N 
ATOM      8  H   UNL     1      50.554   8.678  17.518  0.00  0.00    +0.000 HD
BRANCH   7   9
ATOM      9  C   UNL     1      49.454   7.126  18.327  0.00  0.00    +0.000 C 
BRANCH   9  14
ATOM     10  C   UNL     1      49.539   3.434  17.315  0.00  0.00    +0.000 A 
ATOM     11  C   UNL     1      48.178   3.132  17.276  0.00  0.00    +0.000 A 
ATOM     12  C   UNL     1      47.233   4.128  17.534  0.00  0.00    +0.000 A 
ATOM     13  C   UNL     1      47.645   5.425  17.841  0.00  0.00    +0.000 A 
ATOM     14  C   UNL     1      49.010   5.746  17.894  0.00  0.00    +0.000 A 
ATOM     15  C   UNL     1      49.946   4.739  17.614  0.00  0.00    +0.000 A 
BRANCH  10  17
ATOM     16  C   UNL     1      51.826   2.879  17.664  0.00  0.00    +0.000 C 
ATOM     17  O   UNL     1      50.563   2.553  17.094  0.00  0.00    +0.000 OA
ENDBRANCH  10  17
ENDBRANCH   9  14
ENDBRANCH   7   9
ENDBRANCH   1   7
BRANCH   4  18
ATOM     18  C   UNL     1      47.531   7.934  12.124  0.00  0.00    +0.000 C 
BRANCH  18  19
ATOM     19  N   UNL     1      46.854   6.679  11.926  0.00  0.00    +0.000 N 
ATOM     20  C   UNL     1      45.522   6.636  11.606  0.00  0.00    +0.000 C 
ATOM     21  O   UNL     1      44.864   7.656  11.416  0.00  0.00    +0.000 OA
ATOM     22  H   UNL     1      47.309   5.849  12.293  0.00  0.00    +0.000 HD
BRANCH  20  23
ATOM     23  C   UNL     1      44.933   5.302  11.434  0.00  0.00    +0.000 A 
ATOM     24  C   UNL     1      44.224   4.725  12.480  0.00  0.00    +0.000 A 
ATOM     25  S   UNL     1      43.556   3.203  12.097  0.00  0.00    +0.000 S 
ATOM     26  C   UNL     1      44.237   3.236  10.538  0.00  0.00    +0.000 A 
ATOM     27  N   UNL     1      44.060   2.197   9.677  0.00  0.00    +0.000 NA
ATOM     28  C   UNL     1      44.657   2.340   8.541  0.00  0.00    +0.000 A 
ATOM     29  N   UNL     1      45.409   3.430   8.185  0.00  0.00    +0.000 N 
ATOM     30  C   UNL     1      45.591   4.514   9.009  0.00  0.00    +0.000 A 
ATOM     31  O   UNL     1      46.236   5.490   8.643  0.00  0.00    +0.000 OA
ATOM     32  C   UNL     1      44.949   4.400  10.306  0.00  0.00    +0.000 A 
ATOM     33  H   UNL     1      45.846   3.483   7.277  0.00  0.00    +0.000 HD
ENDBRANCH  20  23
ENDBRANCH  18  19
ENDBRANCH   4  18
TORSDOF 7
ENDMDL
MODEL 8
REMARK VINA RESULT:    -6.690      2.849      3.904
REMARK INTER + INTRA:         -10.677
REMARK INTER:                  -9.522
REMARK INTRA:                  -1.155
REMARK UNBOUND:                -1.249
REMARK  Name = 
REMARK  8 active torsions:
REMARK  status: ('A' for Active; 'I' for Inactive)
REMARK    1  A    between atoms: C_1  and  O_2
REMARK    2  A    between atoms: O_2  and  C_3
REMARK    3  A    between atoms: C_7  and  C_8
REMARK    4  A    between atoms: C_8  and  N_9
REMARK    5  A    between atoms: N_9  and  C_10
REMARK    6  A    between atoms: C_13  and  C_14
REMARK    7  A    between atoms: C_14  and  N_15
REMARK    8  A    between atoms: C_16  and  C_18
REMARK                            x       y       z     vdW  Elec       q    Type
REMARK                         _______ _______ _______ _____ _____    ______ ____
ROOT
ATOM      1  C   UNL     1      47.562   5.962  13.625  0.00  0.00    +0.000 A 
ATOM      2  C   UNL     1      47.205   4.894  14.452  0.00  0.00    +0.000 A 
ATOM      3  C   UNL     1      47.587   4.869  15.802  0.00  0.00    +0.000 A 
ATOM      4  C   UNL     1      48.335   5.917  16.352  0.00  0.00    +0.000 A 
ATOM      5  C   UNL     1      48.772   6.939  15.503  0.00  0.00    +0.000 A 
ATOM      6  C   UNL     1      48.397   6.951  14.156  0.00  0.00    +0.000 A 
ENDROOT
BRANCH   1   7
ATOM      7  N   UNL     1      47.177   6.092  12.288  0.00  0.00    +0.000 N 
ATOM      8  H   UNL     1      47.416   5.260  11.754  0.00  0.00    +0.000 HD
BRANCH   7   9
ATOM      9  C   UNL     1      45.842   6.582  11.972  0.00  0.00    +0.000 C 
BRANCH   9  14
ATOM     10  C   UNL     1      44.123   3.535  10.414  0.00  0.00    +0.000 A 
ATOM     11  C   UNL     1      43.285   3.136  11.455  0.00  0.00    +0.000 A 
ATOM     12  C   UNL     1      43.242   3.873  12.641  0.00  0.00    +0.000 A 
ATOM     13  C   UNL     1      44.044   5.004  12.794  0.00  0.00    +0.000 A 
ATOM     14  C   UNL     1      44.900   5.417  11.763  0.00  0.00    +0.000 A 
ATOM     15  C   UNL     1      44.918   4.677  10.571  0.00  0.00    +0.000 A 
BRANCH  10  17
ATOM     16  C   UNL     1      44.966   3.604   8.191  0.00  0.00    +0.000 C 
ATOM     17  O   UNL     1      44.268   2.899   9.211  0.00  0.00    +0.000 OA
ENDBRANCH  10  17
ENDBRANCH   9  14
ENDBRANCH   7   9
ENDBRANCH   1   7
BRANCH   4  18
ATOM     18  C   UNL     1      48.688   5.946  17.815  0.00  0.00    +0.000 C 
BRANCH  18  19
ATOM     19  N   UNL     1      49.759   5.033  18.117  0.00  0.00    +0.000 N 
ATOM     20  C   UNL     1      51.068   5.438  18.074  0.00  0.00    +0.000 C 
ATOM     21  O   UNL     1      51.382   6.602  17.836  0.00  0.00    +0.000 OA
ATOM     22  H   UNL     1      49.539   4.043  18.091  0.00  0.00    +0.000 HD
BRANCH  20  23
ATOM     23  C   UNL     1      52.079   4.423  18.393  0.00  0.00    +0.000 A 
ATOM     24  C   UNL     1      53.213   4.784  19.109  0.00  0.00    +0.000 A 
ATOM     25  S   UNL     1      54.255   3.477  19.446  0.00  0.00    +0.000 S 
ATOM     26  C   UNL     1      53.255   2.390  18.601  0.00  0.00    +0.000 A 
ATOM     27  N   UNL     1      53.590   1.077  18.488  0.00  0.00    +0.000 NA
ATOM     28  C   UNL     1      52.758   0.373  17.794  0.00  0.00    +0.000 A 
ATOM     29  N   UNL     1      51.619   0.862  17.210  0.00  0.00    +0.000 N 
ATOM     30  C   UNL     1      51.225   2.173  17.322  0.00  0.00    +0.000 A 
ATOM     31  O   UNL     1      50.178   2.569  16.821  0.00  0.00    +0.000 OA
ATOM     32  C   UNL     1      52.132   3.012  18.084  0.00  0.00    +0.000 A 
ATOM     33  H   UNL     1      51.006   0.257  16.684  0.00  0.00    +0.000 HD
ENDBRANCH  20  23
ENDBRANCH  18  19
ENDBRANCH   4  18
TORSDOF 7
ENDMDL
MODEL 9
REMARK VINA RESULT:    -6.535      4.718      7.498
REMARK INTER + INTRA:         -10.458
REMARK INTER:                  -9.400
REMARK INTRA:                  -1.058
REMARK UNBOUND:                -1.249
REMARK  Name = 
REMARK  8 active torsions:
REMARK  status: ('A' for Active; 'I' for Inactive)
REMARK    1  A    between atoms: C_1  and  O_2
REMARK    2  A    between atoms: O_2  and  C_3
REMARK    3  A    between atoms: C_7  and  C_8
REMARK    4  A    between atoms: C_8  and  N_9
REMARK    5  A    between atoms: N_9  and  C_10
REMARK    6  A    between atoms: C_13  and  C_14
REMARK    7  A    between atoms: C_14  and  N_15
REMARK    8  A    between atoms: C_16  and  C_18
REMARK                            x       y       z     vdW  Elec       q    Type
REMARK                         _______ _______ _______ _____ _____    ______ ____
ROOT
ATOM      1  C   UNL     1      50.888   8.624  12.031  0.00  0.00    +0.000 A 
ATOM      2  C   UNL     1      50.064   7.706  11.375  0.00  0.00    +0.000 A 
ATOM      3  C   UNL     1      48.717   7.557  11.739  0.00  0.00    +0.000 A 
ATOM      4  C   UNL     1      48.167   8.328  12.771  0.00  0.00    +0.000 A 
ATOM      5  C   UNL     1      49.014   9.179  13.489  0.00  0.00    +0.000 A 
ATOM      6  C   UNL     1      50.358   9.313  13.127  0.00  0.00    +0.000 A 
ENDROOT
BRANCH   1   7
ATOM      7  N   UNL     1      52.221   8.874  11.694  0.00  0.00    +0.000 N 
ATOM      8  H   UNL     1      52.703   9.368  12.442  0.00  0.00    +0.000 HD
BRANCH   7   9
ATOM      9  C   UNL     1      53.031   7.801  11.135  0.00  0.00    +0.000 C 
BRANCH   9  14
ATOM     10  C   UNL     1      52.651   6.830   7.450  0.00  0.00    +0.000 A 
ATOM     11  C   UNL     1      52.804   8.068   6.826  0.00  0.00    +0.000 A 
ATOM     12  C   UNL     1      53.073   9.206   7.589  0.00  0.00    +0.000 A 
ATOM     13  C   UNL     1      53.179   9.114   8.977  0.00  0.00    +0.000 A 
ATOM     14  C   UNL     1      53.019   7.879   9.624  0.00  0.00    +0.000 A 
ATOM     15  C   UNL     1      52.767   6.742   8.842  0.00  0.00    +0.000 A 
BRANCH  10  17
ATOM     16  C   UNL     1      53.388   4.646   6.860  0.00  0.00    +0.000 C 
ATOM     17  O   UNL     1      52.374   5.644   6.824  0.00  0.00    +0.000 OA
ENDBRANCH  10  17
ENDBRANCH   9  14
ENDBRANCH   7   9
ENDBRANCH   1   7
BRANCH   4  18
ATOM     18  C   UNL     1      46.707   8.238  13.125  0.00  0.00    +0.000 C 
BRANCH  18  19
ATOM     19  N   UNL     1      46.172   6.935  12.831  0.00  0.00    +0.000 N 
ATOM     20  C   UNL     1      45.180   6.769  11.900  0.00  0.00    +0.000 C 
ATOM     21  O   UNL     1      44.745   7.708  11.237  0.00  0.00    +0.000 OA
ATOM     22  H   UNL     1      46.350   6.202  13.510  0.00  0.00    +0.000 HD
BRANCH  20  23
ATOM     23  C   UNL     1      44.705   5.397  11.686  0.00  0.00    +0.000 A 
ATOM     24  C   UNL     1      44.008   4.746  12.695  0.00  0.00    +0.000 A 
ATOM     25  S   UNL     1      43.478   3.183  12.264  0.00  0.00    +0.000 S 
ATOM     26  C   UNL     1      44.208   3.299  10.731  0.00  0.00    +0.000 A 
ATOM     27  N   UNL     1      44.145   2.266   9.849  0.00  0.00    +0.000 NA
ATOM     28  C   UNL     1      44.769   2.477   8.737  0.00  0.00    +0.000 A 
ATOM     29  N   UNL     1      45.444   3.629   8.427  0.00  0.00    +0.000 N 
ATOM     30  C   UNL     1      45.509   4.709   9.274  0.00  0.00    +0.000 A 
ATOM     31  O   UNL     1      46.087   5.740   8.948  0.00  0.00    +0.000 OA
ATOM     32  C   UNL     1      44.833   4.520  10.545  0.00  0.00    +0.000 A 
ATOM     33  H   UNL     1      45.906   3.734   7.537  0.00  0.00    +0.000 HD
ENDBRANCH  20  23
ENDBRANCH  18  19
ENDBRANCH   4  18
TORSDOF 7
ENDMDL
