MODEL 1
REMARK VINA RESULT:    -7.589      0.000      0.000
REMARK INTER + INTRA:         -10.842
REMARK INTER:                 -10.029
REMARK INTRA:                  -0.813
REMARK UNBOUND:                -0.813
REMARK  Name = 
REMARK  6 active torsions:
REMARK  status: ('A' for Active; 'I' for Inactive)
REMARK    1  A    between atoms: C_2  and  C_3
REMARK    2  A    between atoms: C_7  and  N_8
REMARK    3  A    between atoms: N_8  and  C_9
REMARK    4  A    between atoms: C_9  and  C_10
REMARK    5  A    between atoms: C_14  and  N_15
REMARK    6  A    between atoms: C_18  and  N_19
REMARK                            x       y       z     vdW  Elec       q    Type
REMARK                         _______ _______ _______ _____ _____    ______ ____
ROOT
ATOM      1  C   UNL     1      44.767   4.224  11.696  0.00  0.00    +0.000 A 
ATOM      2  C   UNL     1      45.351   3.295  12.544  0.00  0.00    +0.000 A 
ATOM      3  N   UNL     1      46.336   3.588  13.414  0.00  0.00    +0.000 NA
ATOM      4  C   UNL     1      46.758   4.877  13.433  0.00  0.00    +0.000 A 
ATOM      5  C   UNL     1      46.273   5.915  12.628  0.00  0.00    +0.000 A 
ATOM      6  C   UNL     1      45.254   5.541  11.742  0.00  0.00    +0.000 A 
ENDROOT
BRANCH   5   7
ATOM      7  N   UNL     1      46.732   7.215  12.739  0.00  0.00    +0.000 N 
ATOM      8  C   UNL     1      45.811   8.319  13.029  0.00  0.00    +0.000 C 
ATOM      9  C   UNL     1      46.108   9.494  12.098  0.00  0.00    +0.000 C 
ATOM     10  C   UNL     1      47.587   9.902  12.122  0.00  0.00    +0.000 C 
ATOM     11  C   UNL     1      48.476   8.680  11.875  0.00  0.00    +0.000 C 
ATOM     12  C   UNL     1      48.161   7.525  12.827  0.00  0.00    +0.000 C 
BRANCH  10  13
ATOM     13  N   UNL     1      47.957  10.575  13.371  0.00  0.00    +0.000 NA
ATOM     14  H   UNL     1      47.603  10.064  14.178  0.00  0.00    +0.000 HD
ATOM     15  H   UNL     1      47.520  11.497  13.409  0.00  0.00    +0.000 HD
ENDBRANCH  10  13
ENDBRANCH   5   7
BRANCH   1  16
ATOM     16  C   UNL     1      43.659   3.820  10.763  0.00  0.00    +0.000 C 
BRANCH  16  17
ATOM     17  N   UNL     1      43.938   4.297   9.418  0.00  0.00    +0.000 N 
ATOM     18  H   UNL     1      43.109   4.558   8.888  0.00  0.00    +0.000 HD
BRANCH  17  23
ATOM     19  C   UNL     1      46.333   1.891   7.866  0.00  0.00    +0.000 A 
ATOM     20  C   UNL     1      47.162   2.811   7.245  0.00  0.00    +0.000 A 
ATOM     21  N   UNL     1      46.958   4.145   7.292  0.00  0.00    +0.000 NA
ATOM     22  C   UNL     1      45.877   4.568   7.994  0.00  0.00    +0.000 A 
ATOM     23  C   UNL     1      44.954   3.739   8.644  0.00  0.00    +0.000 A 
ATOM     24  C   UNL     1      45.225   2.369   8.578  0.00  0.00    +0.000 A 
BRANCH  19  26
ATOM     25  N   UNL     1      46.839  -0.642   7.727  0.00  0.00    +0.000 NA
ATOM     26  C   UNL     1      46.612   0.492   7.784  0.00  0.00    +0.000 C 
ENDBRANCH  19  26
ENDBRANCH  17  23
ENDBRANCH  16  17
ENDBRANCH   1  16
TORSDOF 6
ENDMDL
MODEL 2
REMARK VINA RESULT:    -7.255      1.221      1.749
REMARK INTER + INTRA:         -10.401
REMARK INTER:                  -9.762
REMARK INTRA:                  -0.639
REMARK UNBOUND:                -0.813
REMARK  Name = 
REMARK  6 active torsions:
REMARK  status: ('A' for Active; 'I' for Inactive)
REMARK    1  A    between atoms: C_2  and  C_3
REMARK    2  A    between atoms: C_7  and  N_8
REMARK    3  A    between atoms: N_8  and  C_9
REMARK    4  A    between atoms: C_9  and  C_10
REMARK    5  A    between atoms: C_14  and  N_15
REMARK    6  A    between atoms: C_18  and  N_19
REMARK                            x       y       z     vdW  Elec       q    Type
REMARK                         _______ _______ _______ _____ _____    ______ ____
ROOT
ATOM      1  C   UNL     1      44.764   4.815  11.408  0.00  0.00    +0.000 A 
ATOM      2  C   UNL     1      44.788   3.894  12.446  0.00  0.00    +0.000 A 
ATOM      3  N   UNL     1      45.619   3.977  13.502  0.00  0.00    +0.000 NA
ATOM      4  C   UNL     1      46.469   5.033  13.518  0.00  0.00    +0.000 A 
ATOM      5  C   UNL     1      46.565   6.029  12.538  0.00  0.00    +0.000 A 
ATOM      6  C   UNL     1      45.678   5.880  11.464  0.00  0.00    +0.000 A 
ENDROOT
BRANCH   5   7
ATOM      7  N   UNL     1      47.434   7.098  12.651  0.00  0.00    +0.000 N 
ATOM      8  C   UNL     1      46.947   8.431  13.023  0.00  0.00    +0.000 C 
ATOM      9  C   UNL     1      47.571   9.481  12.103  0.00  0.00    +0.000 C 
ATOM     10  C   UNL     1      49.100   9.377  12.047  0.00  0.00    +0.000 C 
ATOM     11  C   UNL     1      49.520   7.942  11.717  0.00  0.00    +0.000 C 
ATOM     12  C   UNL     1      48.888   6.916  12.659  0.00  0.00    +0.000 C 
BRANCH  10  13
ATOM     13  N   UNL     1      49.735   9.837  13.286  0.00  0.00    +0.000 NA
ATOM     14  H   UNL     1      50.731   9.994  13.148  0.00  0.00    +0.000 HD
ATOM     15  H   UNL     1      49.660   9.113  14.001  0.00  0.00    +0.000 HD
ENDBRANCH  10  13
ENDBRANCH   5   7
BRANCH   1  16
ATOM     16  C   UNL     1      43.793   4.660  10.271  0.00  0.00    +0.000 C 
BRANCH  16  17
ATOM     17  N   UNL     1      44.509   4.599   9.007  0.00  0.00    +0.000 N 
ATOM     18  H   UNL     1      44.041   5.076   8.239  0.00  0.00    +0.000 HD
BRANCH  17  23
ATOM     19  C   UNL     1      46.745   2.225   7.192  0.00  0.00    +0.000 A 
ATOM     20  C   UNL     1      46.345   1.057   7.820  0.00  0.00    +0.000 A 
ATOM     21  N   UNL     1      45.419   1.021   8.802  0.00  0.00    +0.000 NA
ATOM     22  C   UNL     1      44.874   2.211   9.163  0.00  0.00    +0.000 A 
ATOM     23  C   UNL     1      45.211   3.458   8.622  0.00  0.00    +0.000 A 
ATOM     24  C   UNL     1      46.160   3.431   7.596  0.00  0.00    +0.000 A 
BRANCH  19  26
ATOM     25  N   UNL     1      48.521   2.166   5.312  0.00  0.00    +0.000 NA
ATOM     26  C   UNL     1      47.724   2.190   6.150  0.00  0.00    +0.000 C 
ENDBRANCH  19  26
ENDBRANCH  17  23
ENDBRANCH  16  17
ENDBRANCH   1  16
TORSDOF 6
ENDMDL
MODEL 3
REMARK VINA RESULT:    -7.146      2.057      3.344
REMARK INTER + INTRA:         -10.257
REMARK INTER:                  -9.581
REMARK INTRA:                  -0.676
REMARK UNBOUND:                -0.813
REMARK  Name = 
REMARK  6 active torsions:
REMARK  status: ('A' for Active; 'I' for Inactive)
REMARK    1  A    between atoms: C_2  and  C_3
REMARK    2  A    between atoms: C_7  and  N_8
REMARK    3  A    between atoms: N_8  and  C_9
REMARK    4  A    between atoms: C_9  and  C_10
REMARK    5  A    between atoms: C_14  and  N_15
REMARK    6  A    between atoms: C_18  and  N_19
REMARK                            x       y       z     vdW  Elec       q    Type
REMARK                         _______ _______ _______ _____ _____    ______ ____
ROOT
ATOM      1  C   UNL     1      44.735   4.607  12.049  0.00  0.00    +0.000 A 
ATOM      2  C   UNL     1      44.591   5.916  11.614  0.00  0.00    +0.000 A 
ATOM      3  N   UNL     1      45.279   6.955  12.123  0.00  0.00    +0.000 NA
ATOM      4  C   UNL     1      46.154   6.668  13.119  0.00  0.00    +0.000 A 
ATOM      5  C   UNL     1      46.393   5.401  13.666  0.00  0.00    +0.000 A 
ATOM      6  C   UNL     1      45.641   4.367  13.095  0.00  0.00    +0.000 A 
ENDROOT
BRANCH   5   7
ATOM      7  N   UNL     1      47.335   5.188  14.655  0.00  0.00    +0.000 N 
ATOM      8  C   UNL     1      47.360   3.935  15.417  0.00  0.00    +0.000 C 
ATOM      9  C   UNL     1      47.522   4.242  16.906  0.00  0.00    +0.000 C 
ATOM     10  C   UNL     1      48.719   5.159  17.189  0.00  0.00    +0.000 C 
ATOM     11  C   UNL     1      48.646   6.409  16.306  0.00  0.00    +0.000 C 
ATOM     12  C   UNL     1      48.493   6.069  14.823  0.00  0.00    +0.000 C 
BRANCH  10  13
ATOM     13  N   UNL     1      50.001   4.469  17.016  0.00  0.00    +0.000 NA
ATOM     14  H   UNL     1      50.695   4.823  17.671  0.00  0.00    +0.000 HD
ATOM     15  H   UNL     1      50.370   4.656  16.084  0.00  0.00    +0.000 HD
ENDBRANCH  10  13
ENDBRANCH   5   7
BRANCH   1  16
ATOM     16  C   UNL     1      43.940   3.498  11.416  0.00  0.00    +0.000 C 
BRANCH  16  17
ATOM     17  N   UNL     1      43.768   3.753   9.995  0.00  0.00    +0.000 N 
ATOM     18  H   UNL     1      42.808   3.663   9.669  0.00  0.00    +0.000 HD
BRANCH  17  23
ATOM     19  C   UNL     1      46.181   1.722   8.000  0.00  0.00    +0.000 A 
ATOM     20  C   UNL     1      46.811   2.761   7.334  0.00  0.00    +0.000 A 
ATOM     21  N   UNL     1      46.468   4.058   7.488  0.00  0.00    +0.000 NA
ATOM     22  C   UNL     1      45.452   4.317   8.350  0.00  0.00    +0.000 A 
ATOM     23  C   UNL     1      44.724   3.356   9.063  0.00  0.00    +0.000 A 
ATOM     24  C   UNL     1      45.135   2.032   8.878  0.00  0.00    +0.000 A 
BRANCH  19  26
ATOM     25  N   UNL     1      46.943  -0.724   7.642  0.00  0.00    +0.000 NA
ATOM     26  C   UNL     1      46.601   0.371   7.798  0.00  0.00    +0.000 C 
ENDBRANCH  19  26
ENDBRANCH  17  23
ENDBRANCH  16  17
ENDBRANCH   1  16
TORSDOF 6
ENDMDL
MODEL 4
REMARK VINA RESULT:    -6.726      1.544      2.325
REMARK INTER + INTRA:          -9.702
REMARK INTER:                  -9.069
REMARK INTRA:                  -0.632
REMARK UNBOUND:                -0.813
REMARK  Name = 
REMARK  6 active torsions:
REMARK  status: ('A' for Active; 'I' for Inactive)
REMARK    1  A    between atoms: C_2  and  C_3
REMARK    2  A    between atoms: C_7  and  N_8
REMARK    3  A    between atoms: N_8  and  C_9
REMARK    4  A    between atoms: C_9  and  C_10
REMARK    5  A    between atoms: C_14  and  N_15
REMARK    6  A    between atoms: C_18  and  N_19
REMARK                            x       y       z     vdW  Elec       q    Type
REMARK                         _______ _______ _______ _____ _____    ______ ____
ROOT
ATOM      1  C   UNL     1      44.804   5.316  11.769  0.00  0.00    +0.000 A 
ATOM      2  C   UNL     1      44.034   6.403  11.383  0.00  0.00    +0.000 A 
ATOM      3  N   UNL     1      44.434   7.684  11.496  0.00  0.00    +0.000 NA
ATOM      4  C   UNL     1      45.665   7.885  12.026  0.00  0.00    +0.000 A 
ATOM      5  C   UNL     1      46.544   6.889  12.471  0.00  0.00    +0.000 A 
ATOM      6  C   UNL     1      46.065   5.581  12.330  0.00  0.00    +0.000 A 
ENDROOT
BRANCH   5   7
ATOM      7  N   UNL     1      47.804   7.179  12.963  0.00  0.00    +0.000 N 
ATOM      8  C   UNL     1      48.277   6.591  14.221  0.00  0.00    +0.000 C 
ATOM      9  C   UNL     1      48.931   7.673  15.080  0.00  0.00    +0.000 C 
ATOM     10  C   UNL     1      50.011   8.453  14.319  0.00  0.00    +0.000 C 
ATOM     11  C   UNL     1      49.450   8.975  12.993  0.00  0.00    +0.000 C 
ATOM     12  C   UNL     1      48.810   7.868  12.153  0.00  0.00    +0.000 C 
BRANCH  10  13
ATOM     13  N   UNL     1      51.221   7.655  14.098  0.00  0.00    +0.000 NA
ATOM     14  H   UNL     1      52.056   8.185  14.342  0.00  0.00    +0.000 HD
ATOM     15  H   UNL     1      51.310   7.430  13.107  0.00  0.00    +0.000 HD
ENDBRANCH  10  13
ENDBRANCH   5   7
BRANCH   1  16
ATOM     16  C   UNL     1      44.292   3.913  11.594  0.00  0.00    +0.000 C 
BRANCH  16  17
ATOM     17  N   UNL     1      43.833   3.715  10.228  0.00  0.00    +0.000 N 
ATOM     18  H   UNL     1      42.912   3.290  10.155  0.00  0.00    +0.000 HD
BRANCH  17  23
ATOM     19  C   UNL     1      46.136   1.759   8.037  0.00  0.00    +0.000 A 
ATOM     20  C   UNL     1      46.645   2.811   7.294  0.00  0.00    +0.000 A 
ATOM     21  N   UNL     1      46.255   4.093   7.460  0.00  0.00    +0.000 NA
ATOM     22  C   UNL     1      45.317   4.323   8.414  0.00  0.00    +0.000 A 
ATOM     23  C   UNL     1      44.712   3.344   9.212  0.00  0.00    +0.000 A 
ATOM     24  C   UNL     1      45.168   2.037   9.010  0.00  0.00    +0.000 A 
BRANCH  19  26
ATOM     25  N   UNL     1      46.981  -0.655   7.647  0.00  0.00    +0.000 NA
ATOM     26  C   UNL     1      46.601   0.425   7.817  0.00  0.00    +0.000 C 
ENDBRANCH  19  26
ENDBRANCH  17  23
ENDBRANCH  16  17
ENDBRANCH   1  16
TORSDOF 6
ENDMDL
MODEL 5
REMARK VINA RESULT:    -6.603      2.578      4.401
REMARK INTER + INTRA:          -9.539
REMARK INTER:                  -8.911
REMARK INTRA:                  -0.628
REMARK UNBOUND:                -0.813
REMARK  Name = 
REMARK  6 active torsions:
REMARK  status: ('A' for Active; 'I' for Inactive)
REMARK    1  A    between atoms: C_2  and  C_3
REMARK    2  A    between atoms: C_7  and  N_8
REMARK    3  A    between atoms: N_8  and  C_9
REMARK    4  A    between atoms: C_9  and  C_10
REMARK    5  A    between atoms: C_14  and  N_15
REMARK    6  A    between atoms: C_18  and  N_19
REMARK                            x       y       z     vdW  Elec       q    Type
REMARK                         _______ _______ _______ _____ _____    ______ ____
ROOT
ATOM      1  C   UNL     1      45.904   5.943  12.386  0.00  0.00    +0.000 A 
ATOM      2  C   UNL     1      46.897   6.707  11.792  0.00  0.00    +0.000 A 
ATOM      3  N   UNL     1      48.099   6.940  12.352  0.00  0.00    +0.000 NA
ATOM      4  C   UNL     1      48.316   6.381  13.568  0.00  0.00    +0.000 A 
ATOM      5  C   UNL     1      47.405   5.601  14.290  0.00  0.00    +0.000 A 
ATOM      6  C   UNL     1      46.173   5.402  13.655  0.00  0.00    +0.000 A 
ENDROOT
BRANCH   5   7
ATOM      7  N   UNL     1      47.721   5.032  15.511  0.00  0.00    +0.000 N 
ATOM      8  C   UNL     1      48.482   5.780  16.517  0.00  0.00    +0.000 C 
ATOM      9  C   UNL     1      49.582   4.891  17.096  0.00  0.00    +0.000 C 
ATOM     10  C   UNL     1      49.043   3.547  17.604  0.00  0.00    +0.000 C 
ATOM     11  C   UNL     1      48.210   2.866  16.513  0.00  0.00    +0.000 C 
ATOM     12  C   UNL     1      47.113   3.778  15.960  0.00  0.00    +0.000 C 
BRANCH  10  13
ATOM     13  N   UNL     1      48.269   3.690  18.841  0.00  0.00    +0.000 NA
ATOM     14  H   UNL     1      47.660   2.886  18.984  0.00  0.00    +0.000 HD
ATOM     15  H   UNL     1      47.654   4.500  18.771  0.00  0.00    +0.000 HD
ENDBRANCH  10  13
ENDBRANCH   5   7
BRANCH   1  16
ATOM     16  C   UNL     1      44.591   5.716  11.688  0.00  0.00    +0.000 C 
BRANCH  16  17
ATOM     17  N   UNL     1      44.795   5.647  10.250  0.00  0.00    +0.000 N 
ATOM     18  H   UNL     1      44.199   6.273   9.714  0.00  0.00    +0.000 HD
BRANCH  17  23
ATOM     19  C   UNL     1      45.848   3.097   7.736  0.00  0.00    +0.000 A 
ATOM     20  C   UNL     1      45.328   1.976   8.362  0.00  0.00    +0.000 A 
ATOM     21  N   UNL     1      44.689   2.018   9.550  0.00  0.00    +0.000 NA
ATOM     22  C   UNL     1      44.568   3.240  10.129  0.00  0.00    +0.000 A 
ATOM     23  C   UNL     1      45.070   4.440   9.610  0.00  0.00    +0.000 A 
ATOM     24  C   UNL     1      45.706   4.338   8.369  0.00  0.00    +0.000 A 
BRANCH  19  26
ATOM     25  N   UNL     1      47.045   2.888   5.452  0.00  0.00    +0.000 NA
ATOM     26  C   UNL     1      46.506   2.982   6.472  0.00  0.00    +0.000 C 
ENDBRANCH  19  26
ENDBRANCH  17  23
ENDBRANCH  16  17
ENDBRANCH   1  16
TORSDOF 6
ENDMDL
MODEL 6
REMARK VINA RESULT:    -6.465      3.240      7.477
REMARK INTER + INTRA:          -9.357
REMARK INTER:                  -8.608
REMARK INTRA:                  -0.749
REMARK UNBOUND:                -0.813
REMARK  Name = 
REMARK  6 active torsions:
REMARK  status: ('A' for Active; 'I' for Inactive)
REMARK    1  A    between atoms: C_2  and  C_3
REMARK    2  A    between atoms: C_7  and  N_8
REMARK    3  A    between atoms: N_8  and  C_9
REMARK    4  A    between atoms: C_9  and  C_10
REMARK    5  A    between atoms: C_14  and  N_15
REMARK    6  A    between atoms: C_18  and  N_19
REMARK                            x       y       z     vdW  Elec       q    Type
REMARK                         _______ _______ _______ _____ _____    ______ ____
ROOT
ATOM      1  C   UNL     1      47.977   7.137  14.267  0.00  0.00    +0.000 A 
ATOM      2  C   UNL     1      47.543   8.419  13.963  0.00  0.00    +0.000 A 
ATOM      3  N   UNL     1      46.553   8.689  13.092  0.00  0.00    +0.000 NA
ATOM      4  C   UNL     1      45.969   7.621  12.494  0.00  0.00    +0.000 A 
ATOM      5  C   UNL     1      46.311   6.278  12.692  0.00  0.00    +0.000 A 
ATOM      6  C   UNL     1      47.351   6.067  13.606  0.00  0.00    +0.000 A 
ENDROOT
BRANCH   5   7
ATOM      7  N   UNL     1      45.636   5.243  12.071  0.00  0.00    +0.000 N 
ATOM      8  C   UNL     1      45.282   5.318  10.649  0.00  0.00    +0.000 C 
ATOM      9  C   UNL     1      43.833   4.872  10.456  0.00  0.00    +0.000 C 
ATOM     10  C   UNL     1      43.551   3.504  11.089  0.00  0.00    +0.000 C 
ATOM     11  C   UNL     1      44.008   3.495  12.551  0.00  0.00    +0.000 C 
ATOM     12  C   UNL     1      45.463   3.937  12.711  0.00  0.00    +0.000 C 
BRANCH  10  13
ATOM     13  N   UNL     1      44.169   2.406  10.340  0.00  0.00    +0.000 NA
ATOM     14  H   UNL     1      45.180   2.522  10.293  0.00  0.00    +0.000 HD
ATOM     15  H   UNL     1      43.840   2.419   9.375  0.00  0.00    +0.000 HD
ENDBRANCH  10  13
ENDBRANCH   5   7
BRANCH   1  16
ATOM     16  C   UNL     1      49.080   6.918  15.265  0.00  0.00    +0.000 C 
BRANCH  16  17
ATOM     17  N   UNL     1      48.522   6.526  16.549  0.00  0.00    +0.000 N 
ATOM     18  H   UNL     1      48.776   7.140  17.320  0.00  0.00    +0.000 HD
BRANCH  17  23
ATOM     19  C   UNL     1      49.244   2.924  17.209  0.00  0.00    +0.000 A 
ATOM     20  C   UNL     1      47.943   2.495  17.415  0.00  0.00    +0.000 A 
ATOM     21  N   UNL     1      46.875   3.320  17.374  0.00  0.00    +0.000 NA
ATOM     22  C   UNL     1      47.129   4.627  17.112  0.00  0.00    +0.000 A 
ATOM     23  C   UNL     1      48.397   5.185  16.910  0.00  0.00    +0.000 A 
ATOM     24  C   UNL     1      49.464   4.281  16.945  0.00  0.00    +0.000 A 
BRANCH  19  26
ATOM     25  N   UNL     1      51.204   1.237  17.299  0.00  0.00    +0.000 NA
ATOM     26  C   UNL     1      50.330   1.994  17.256  0.00  0.00    +0.000 C 
ENDBRANCH  19  26
ENDBRANCH  17  23
ENDBRANCH  16  17
ENDBRANCH   1  16
TORSDOF 6
ENDMDL
MODEL 7
REMARK VINA RESULT:    -6.201      3.101      5.635
REMARK INTER + INTRA:          -9.008
REMARK INTER:                  -8.336
REMARK INTRA:                  -0.673
REMARK UNBOUND:                -0.813
REMARK  Name = 
REMARK  6 active torsions:
REMARK  status: ('A' for Active; 'I' for Inactive)
REMARK    1  A    between atoms: C_2  and  C_3
REMARK    2  A    between atoms: C_7  and  N_8
REMARK    3  A    between atoms: N_8  and  C_9
REMARK    4  A    between atoms: C_9  and  C_10
REMARK    5  A    between atoms: C_14  and  N_15
REMARK    6  A    between atoms: C_18  and  N_19
REMARK                            x       y       z     vdW  Elec       q    Type
REMARK                         _______ _______ _______ _____ _____    ______ ____
ROOT
ATOM      1  C   UNL     1      47.746   7.030  13.120  0.00  0.00    +0.000 A 
ATOM      2  C   UNL     1      48.638   8.086  13.228  0.00  0.00    +0.000 A 
ATOM      3  N   UNL     1      49.458   8.271  14.281  0.00  0.00    +0.000 NA
ATOM      4  C   UNL     1      49.376   7.354  15.276  0.00  0.00    +0.000 A 
ATOM      5  C   UNL     1      48.516   6.249  15.309  0.00  0.00    +0.000 A 
ATOM      6  C   UNL     1      47.688   6.118  14.187  0.00  0.00    +0.000 A 
ENDROOT
BRANCH   5   7
ATOM      7  N   UNL     1      48.525   5.335  16.347  0.00  0.00    +0.000 N 
ATOM      8  C   UNL     1      49.486   5.453  17.449  0.00  0.00    +0.000 C 
ATOM      9  C   UNL     1      50.102   4.086  17.742  0.00  0.00    +0.000 C 
ATOM     10  C   UNL     1      49.042   2.999  17.963  0.00  0.00    +0.000 C 
ATOM     11  C   UNL     1      48.046   2.990  16.800  0.00  0.00    +0.000 C 
ATOM     12  C   UNL     1      47.440   4.369  16.536  0.00  0.00    +0.000 C 
BRANCH  10  13
ATOM     13  N   UNL     1      48.348   3.153  19.246  0.00  0.00    +0.000 NA
ATOM     14  H   UNL     1      49.013   3.194  20.016  0.00  0.00    +0.000 HD
ATOM     15  H   UNL     1      47.763   2.336  19.422  0.00  0.00    +0.000 HD
ENDBRANCH  10  13
ENDBRANCH   5   7
BRANCH   1  16
ATOM     16  C   UNL     1      46.875   6.885  11.903  0.00  0.00    +0.000 C 
BRANCH  16  17
ATOM     17  N   UNL     1      45.506   6.596  12.298  0.00  0.00    +0.000 N 
ATOM     18  H   UNL     1      45.204   7.081  13.140  0.00  0.00    +0.000 HD
BRANCH  17  23
ATOM     19  C   UNL     1      44.421   3.318  10.880  0.00  0.00    +0.000 A 
ATOM     20  C   UNL     1      43.609   2.909  11.926  0.00  0.00    +0.000 A 
ATOM     21  N   UNL     1      43.430   3.631  13.053  0.00  0.00    +0.000 NA
ATOM     22  C   UNL     1      44.094   4.812  13.127  0.00  0.00    +0.000 A 
ATOM     23  C   UNL     1      44.959   5.322  12.151  0.00  0.00    +0.000 A 
ATOM     24  C   UNL     1      45.091   4.542  10.998  0.00  0.00    +0.000 A 
BRANCH  19  26
ATOM     25  N   UNL     1      44.677   1.857   8.761  0.00  0.00    +0.000 NA
ATOM     26  C   UNL     1      44.558   2.509   9.710  0.00  0.00    +0.000 C 
ENDBRANCH  19  26
ENDBRANCH  17  23
ENDBRANCH  16  17
ENDBRANCH   1  16
TORSDOF 6
ENDMDL
MODEL 8
REMARK VINA RESULT:    -6.187      2.907      7.505
REMARK INTER + INTRA:          -8.989
REMARK INTER:                  -8.177
REMARK INTRA:                  -0.812
REMARK UNBOUND:                -0.813
REMARK  Name = 
REMARK  6 active torsions:
REMARK  status: ('A' for Active; 'I' for Inactive)
REMARK    1  A    between atoms: C_2  and  C_3
REMARK    2  A    between atoms: C_7  and  N_8
REMARK    3  A    between atoms: N_8  and  C_9
REMARK    4  A    between atoms: C_9  and  C_10
REMARK    5  A    between atoms: C_14  and  N_15
REMARK    6  A    between atoms: C_18  and  N_19
REMARK                            x       y       z     vdW  Elec       q    Type
REMARK                         _______ _______ _______ _____ _____    ______ ____
ROOT
ATOM      1  C   UNL     1      47.674   7.913  13.009  0.00  0.00    +0.000 A 
ATOM      2  C   UNL     1      46.976   9.105  12.885  0.00  0.00    +0.000 A 
ATOM      3  N   UNL     1      45.690   9.184  12.497  0.00  0.00    +0.000 NA
ATOM      4  C   UNL     1      45.072   8.009  12.216  0.00  0.00    +0.000 A 
ATOM      5  C   UNL     1      45.653   6.737  12.284  0.00  0.00    +0.000 A 
ATOM      6  C   UNL     1      46.994   6.726  12.689  0.00  0.00    +0.000 A 
ENDROOT
BRANCH   5   7
ATOM      7  N   UNL     1      44.939   5.582  12.019  0.00  0.00    +0.000 N 
ATOM      8  C   UNL     1      45.103   4.385  12.851  0.00  0.00    +0.000 C 
ATOM      9  C   UNL     1      45.242   3.153  11.958  0.00  0.00    +0.000 C 
ATOM     10  C   UNL     1      44.105   3.041  10.933  0.00  0.00    +0.000 C 
ATOM     11  C   UNL     1      43.963   4.353  10.156  0.00  0.00    +0.000 C 
ATOM     12  C   UNL     1      43.818   5.565  11.077  0.00  0.00    +0.000 C 
BRANCH  10  13
ATOM     13  N   UNL     1      42.832   2.659  11.555  0.00  0.00    +0.000 NA
ATOM     14  H   UNL     1      42.107   2.535  10.851  0.00  0.00    +0.000 HD
ATOM     15  H   UNL     1      42.508   3.411  12.164  0.00  0.00    +0.000 HD
ENDBRANCH  10  13
ENDBRANCH   5   7
BRANCH   1  16
ATOM     16  C   UNL     1      49.107   7.908  13.466  0.00  0.00    +0.000 C 
BRANCH  16  17
ATOM     17  N   UNL     1      49.170   7.931  14.918  0.00  0.00    +0.000 N 
ATOM     18  H   UNL     1      49.652   8.741  15.302  0.00  0.00    +0.000 HD
BRANCH  17  23
ATOM     19  C   UNL     1      48.543   4.777  16.814  0.00  0.00    +0.000 A 
ATOM     20  C   UNL     1      49.813   4.609  17.342  0.00  0.00    +0.000 A 
ATOM     21  N   UNL     1      50.840   5.447  17.088  0.00  0.00    +0.000 NA
ATOM     22  C   UNL     1      50.576   6.498  16.271  0.00  0.00    +0.000 A 
ATOM     23  C   UNL     1      49.345   6.763  15.658  0.00  0.00    +0.000 A 
ATOM     24  C   UNL     1      48.313   5.873  15.973  0.00  0.00    +0.000 A 
BRANCH  19  26
ATOM     25  N   UNL     1      46.645   3.115  17.385  0.00  0.00    +0.000 NA
ATOM     26  C   UNL     1      47.497   3.857  17.133  0.00  0.00    +0.000 C 
ENDBRANCH  19  26
ENDBRANCH  17  23
ENDBRANCH  16  17
ENDBRANCH   1  16
TORSDOF 6
ENDMDL
MODEL 9
REMARK VINA RESULT:    -5.484      3.825      6.800
REMARK INTER + INTRA:          -8.060
REMARK INTER:                  -7.492
REMARK INTRA:                  -0.569
REMARK UNBOUND:                -0.813
REMARK  Name = 
REMARK  6 active torsions:
REMARK  status: ('A' for Active; 'I' for Inactive)
REMARK    1  A    between atoms: C_2  and  C_3
REMARK    2  A    between atoms: C_7  and  N_8
REMARK    3  A    between atoms: N_8  and  C_9
REMARK    4  A    between atoms: C_9  and  C_10
REMARK    5  A    between atoms: C_14  and  N_15
REMARK    6  A    between atoms: C_18  and  N_19
REMARK                            x       y       z     vdW  Elec       q    Type
REMARK                         _______ _______ _______ _____ _____    ______ ____
ROOT
ATOM      1  C   UNL     1      49.135   7.504  12.474  0.00  0.00    +0.000 A 
ATOM      2  C   UNL     1      49.472   7.260  13.797  0.00  0.00    +0.000 A 
ATOM      3  N   UNL     1      48.744   6.489  14.626  0.00  0.00    +0.000 NA
ATOM      4  C   UNL     1      47.620   5.937  14.104  0.00  0.00    +0.000 A 
ATOM      5  C   UNL     1      47.151   6.107  12.795  0.00  0.00    +0.000 A 
ATOM      6  C   UNL     1      47.951   6.924  11.988  0.00  0.00    +0.000 A 
ENDROOT
BRANCH   5   7
ATOM      7  N   UNL     1      46.013   5.473  12.329  0.00  0.00    +0.000 N 
ATOM      8  C   UNL     1      45.378   4.398  13.099  0.00  0.00    +0.000 C 
ATOM      9  C   UNL     1      45.036   3.234  12.170  0.00  0.00    +0.000 C 
ATOM     10  C   UNL     1      44.223   3.679  10.947  0.00  0.00    +0.000 C 
ATOM     11  C   UNL     1      44.925   4.844  10.243  0.00  0.00    +0.000 C 
ATOM     12  C   UNL     1      45.246   5.996  11.196  0.00  0.00    +0.000 C 
BRANCH  10  13
ATOM     13  N   UNL     1      42.843   4.031  11.296  0.00  0.00    +0.000 NA
ATOM     14  H   UNL     1      42.822   4.695  12.067  0.00  0.00    +0.000 HD
ATOM     15  H   UNL     1      42.348   3.202  11.624  0.00  0.00    +0.000 HD
ENDBRANCH  10  13
ENDBRANCH   5   7
BRANCH   1  16
ATOM     16  C   UNL     1      50.011   8.365  11.607  0.00  0.00    +0.000 C 
BRANCH  16  17
ATOM     17  N   UNL     1      51.407   7.998  11.785  0.00  0.00    +0.000 N 
ATOM     18  H   UNL     1      51.826   8.355  12.640  0.00  0.00    +0.000 HD
BRANCH  17  23
ATOM     19  C   UNL     1      53.115   6.980   8.625  0.00  0.00    +0.000 A 
ATOM     20  C   UNL     1      54.252   7.760   8.755  0.00  0.00    +0.000 A 
ATOM     21  N   UNL     1      54.462   8.600   9.791  0.00  0.00    +0.000 NA
ATOM     22  C   UNL     1      53.488   8.653  10.735  0.00  0.00    +0.000 A 
ATOM     23  C   UNL     1      52.286   7.934  10.705  0.00  0.00    +0.000 A 
ATOM     24  C   UNL     1      52.132   7.067   9.619  0.00  0.00    +0.000 A 
BRANCH  19  26
ATOM     25  N   UNL     1      52.831   5.400   6.596  0.00  0.00    +0.000 NA
ATOM     26  C   UNL     1      52.960   6.104   7.507  0.00  0.00    +0.000 C 
ENDBRANCH  19  26
ENDBRANCH  17  23
ENDBRANCH  16  17
ENDBRANCH   1  16
TORSDOF 6
ENDMDL
