MODEL 1
REMARK VINA RESULT:    -8.483      0.000      0.000
REMARK INTER + INTRA:         -12.982
REMARK INTER:                 -11.954
REMARK INTRA:                  -1.028
REMARK UNBOUND:                -1.028
REMARK  Name = 
REMARK  9 active torsions:
REMARK  status: ('A' for Active; 'I' for Inactive)
REMARK    1  A    between atoms: C_1  and  C_2
REMARK    2  A    between atoms: C_2  and  C_3
REMARK    3  A    between atoms: C_2  and  C_14
REMARK    4  A    between atoms: C_3  and  N_4
REMARK    5  A    between atoms: N_4  and  C_5
REMARK    6  A    between atoms: C_8  and  C_9
REMARK    7  A    between atoms: C_18  and  O_19
REMARK    8  A    between atoms: O_19  and  C_20
REMARK    9  A    between atoms: N_22  and  C_23
REMARK                            x       y       z     vdW  Elec       q    Type
REMARK                         _______ _______ _______ _____ _____    ______ ____
ROOT
ATOM      1  C   UNL     1      42.950   4.912  13.091  0.00  0.00    +0.000 C 
ATOM      2  C   UNL     1      43.692   5.756  12.040  0.00  0.00    +0.000 C 
ENDROOT
BRANCH   2   3
ATOM      3  C   UNL     1      45.182   5.827  12.379  0.00  0.00    +0.000 A 
ATOM      4  C   UNL     1      46.016   6.776  11.768  0.00  0.00    +0.000 A 
ATOM      5  C   UNL     1      47.372   6.875  12.111  0.00  0.00    +0.000 A 
ATOM      6  C   UNL     1      47.931   6.011  13.059  0.00  0.00    +0.000 A 
ATOM      7  C   UNL     1      47.129   5.047  13.646  0.00  0.00    +0.000 A 
ATOM      8  C   UNL     1      45.776   4.962  13.308  0.00  0.00    +0.000 A 
BRANCH   7   9
ATOM      9  O   UNL     1      47.505   4.154  14.612  0.00  0.00    +0.000 OA
BRANCH   9  10
ATOM     10  C   UNL     1      47.462   4.516  16.005  0.00  0.00    +0.000 C 
ATOM     11  C   UNL     1      48.574   5.420  16.584  0.00  0.00    +0.000 C 
ATOM     12  N   UNL     1      48.821   4.443  17.668  0.00  0.00    +0.000 NA
ATOM     13  C   UNL     1      48.109   4.813  18.890  0.00  0.00    +0.000 C 
ATOM     14  C   UNL     1      48.058   3.423  16.926  0.00  0.00    +0.000 C 
ENDBRANCH   9  10
ENDBRANCH   7   9
ENDBRANCH   2   3
BRANCH   2  15
ATOM     15  C   UNL     1      43.331   5.177  10.640  0.00  0.00    +0.000 C 
BRANCH  15  16
ATOM     16  N   UNL     1      43.729   3.774  10.520  0.00  0.00    +0.000 N 
ATOM     17  H   UNL     1      43.920   3.328  11.411  0.00  0.00    +0.000 HD
BRANCH  16  18
ATOM     18  C   UNL     1      44.567   3.343   9.492  0.00  0.00    +0.000 A 
ATOM     19  C   UNL     1      45.131   4.301   8.641  0.00  0.00    +0.000 A 
ATOM     20  C   UNL     1      46.061   3.952   7.654  0.00  0.00    +0.000 A 
ATOM     21  C   UNL     1      46.482   2.625   7.526  0.00  0.00    +0.000 A 
ATOM     22  C   UNL     1      45.932   1.654   8.365  0.00  0.00    +0.000 A 
ATOM     23  C   UNL     1      44.989   2.015   9.340  0.00  0.00    +0.000 A 
BRANCH  21  24
ATOM     24  C   UNL     1      47.508   2.306   6.502  0.00  0.00    +0.000 C 
ATOM     25  N   UNL     1      47.585   3.122   5.409  0.00  0.00    +0.000 N 
ATOM     26  O   UNL     1      48.235   1.324   6.602  0.00  0.00    +0.000 OA
ATOM     27  H   UNL     1      46.849   3.774   5.168  0.00  0.00    +0.000 HD
ATOM     28  H   UNL     1      48.192   2.808   4.662  0.00  0.00    +0.000 HD
ENDBRANCH  21  24
ENDBRANCH  16  18
ENDBRANCH  15  16
ENDBRANCH   2  15
TORSDOF 7
ENDMDL
MODEL 2
REMARK VINA RESULT:    -7.827      1.201      1.714
REMARK INTER + INTRA:         -12.058
REMARK INTER:                 -11.073
REMARK INTRA:                  -0.985
REMARK UNBOUND:                -1.028
REMARK  Name = 
REMARK  9 active torsions:
REMARK  status: ('A' for Active; 'I' for Inactive)
REMARK    1  A    between atoms: C_1  and  C_2
REMARK    2  A    between atoms: C_2  and  C_3
REMARK    3  A    between atoms: C_2  and  C_14
REMARK    4  A    between atoms: C_3  and  N_4
REMARK    5  A    between atoms: N_4  and  C_5
REMARK    6  A    between atoms: C_8  and  C_9
REMARK    7  A    between atoms: C_18  and  O_19
REMARK    8  A    between atoms: O_19  and  C_20
REMARK    9  A    between atoms: N_22  and  C_23
REMARK                            x       y       z     vdW  Elec       q    Type
REMARK                         _______ _______ _______ _____ _____    ______ ____
ROOT
ATOM      1  C   UNL     1      44.200   3.294  12.737  0.00  0.00    +0.000 C 
ATOM      2  C   UNL     1      44.122   4.783  12.352  0.00  0.00    +0.000 C 
ENDROOT
BRANCH   2   3
ATOM      3  C   UNL     1      45.493   5.441  12.523  0.00  0.00    +0.000 A 
ATOM      4  C   UNL     1      45.990   6.328  11.556  0.00  0.00    +0.000 A 
ATOM      5  C   UNL     1      47.224   6.970  11.730  0.00  0.00    +0.000 A 
ATOM      6  C   UNL     1      48.001   6.723  12.868  0.00  0.00    +0.000 A 
ATOM      7  C   UNL     1      47.539   5.824  13.815  0.00  0.00    +0.000 A 
ATOM      8  C   UNL     1      46.302   5.197  13.640  0.00  0.00    +0.000 A 
BRANCH   7   9
ATOM      9  O   UNL     1      48.150   5.499  14.995  0.00  0.00    +0.000 OA
BRANCH   9  10
ATOM     10  C   UNL     1      48.699   6.523  15.846  0.00  0.00    +0.000 C 
ATOM     11  C   UNL     1      50.233   6.673  15.952  0.00  0.00    +0.000 C 
ATOM     12  N   UNL     1      50.150   6.609  17.428  0.00  0.00    +0.000 NA
ATOM     13  C   UNL     1      50.141   7.947  18.019  0.00  0.00    +0.000 C 
ATOM     14  C   UNL     1      48.774   6.089  17.330  0.00  0.00    +0.000 C 
ENDBRANCH   9  10
ENDBRANCH   7   9
ENDBRANCH   2   3
BRANCH   2  15
ATOM     15  C   UNL     1      43.492   4.862  10.930  0.00  0.00    +0.000 C 
BRANCH  15  16
ATOM     16  N   UNL     1      43.615   3.592  10.216  0.00  0.00    +0.000 N 
ATOM     17  H   UNL     1      43.356   2.785  10.773  0.00  0.00    +0.000 HD
BRANCH  16  18
ATOM     18  C   UNL     1      44.679   3.348   9.347  0.00  0.00    +0.000 A 
ATOM     19  C   UNL     1      45.051   2.021   9.101  0.00  0.00    +0.000 A 
ATOM     20  C   UNL     1      46.040   1.698   8.162  0.00  0.00    +0.000 A 
ATOM     21  C   UNL     1      46.652   2.705   7.412  0.00  0.00    +0.000 A 
ATOM     22  C   UNL     1      46.294   4.036   7.642  0.00  0.00    +0.000 A 
ATOM     23  C   UNL     1      45.313   4.348   8.597  0.00  0.00    +0.000 A 
BRANCH  21  24
ATOM     24  C   UNL     1      47.656   2.315   6.392  0.00  0.00    +0.000 C 
ATOM     25  N   UNL     1      47.714   3.058   5.246  0.00  0.00    +0.000 N 
ATOM     26  O   UNL     1      48.382   1.338   6.541  0.00  0.00    +0.000 OA
ATOM     27  H   UNL     1      46.977   3.696   4.978  0.00  0.00    +0.000 HD
ATOM     28  H   UNL     1      48.306   2.693   4.510  0.00  0.00    +0.000 HD
ENDBRANCH  21  24
ENDBRANCH  16  18
ENDBRANCH  15  16
ENDBRANCH   2  15
TORSDOF 7
ENDMDL
MODEL 3
REMARK VINA RESULT:    -7.605      2.457      3.756
REMARK INTER + INTRA:         -11.744
REMARK INTER:                 -10.675
REMARK INTRA:                  -1.069
REMARK UNBOUND:                -1.028
REMARK  Name = 
REMARK  9 active torsions:
REMARK  status: ('A' for Active; 'I' for Inactive)
REMARK    1  A    between atoms: C_1  and  C_2
REMARK    2  A    between atoms: C_2  and  C_3
REMARK    3  A    between atoms: C_2  and  C_14
REMARK    4  A    between atoms: C_3  and  N_4
REMARK    5  A    between atoms: N_4  and  C_5
REMARK    6  A    between atoms: C_8  and  C_9
REMARK    7  A    between atoms: C_18  and  O_19
REMARK    8  A    between atoms: O_19  and  C_20
REMARK    9  A    between atoms: N_22  and  C_23
REMARK                            x       y       z     vdW  Elec       q    Type
REMARK                         _______ _______ _______ _____ _____    ______ ____
ROOT
ATOM      1  C   UNL     1      43.040   4.495  13.204  0.00  0.00    +0.000 C 
ATOM      2  C   UNL     1      43.653   5.578  12.298  0.00  0.00    +0.000 C 
ENDROOT
BRANCH   2   3
ATOM      3  C   UNL     1      45.133   5.767  12.634  0.00  0.00    +0.000 A 
ATOM      4  C   UNL     1      45.788   4.895  13.518  0.00  0.00    +0.000 A 
ATOM      5  C   UNL     1      47.156   5.037  13.792  0.00  0.00    +0.000 A 
ATOM      6  C   UNL     1      47.896   6.069  13.205  0.00  0.00    +0.000 A 
ATOM      7  C   UNL     1      47.257   6.957  12.357  0.00  0.00    +0.000 A 
ATOM      8  C   UNL     1      45.896   6.803  12.079  0.00  0.00    +0.000 A 
BRANCH   7   9
ATOM      9  O   UNL     1      47.837   7.992  11.675  0.00  0.00    +0.000 OA
BRANCH   9  10
ATOM     10  C   UNL     1      48.882   8.777  12.278  0.00  0.00    +0.000 C 
ATOM     11  C   UNL     1      48.521   9.782  13.395  0.00  0.00    +0.000 C 
ATOM     12  N   UNL     1      49.225  10.862  12.668  0.00  0.00    +0.000 NA
ATOM     13  C   UNL     1      50.586  11.042  13.170  0.00  0.00    +0.000 C 
ATOM     14  C   UNL     1      49.240  10.034  11.448  0.00  0.00    +0.000 C 
ENDBRANCH   9  10
ENDBRANCH   7   9
ENDBRANCH   2   3
BRANCH   2  15
ATOM     15  C   UNL     1      43.324   5.191  10.825  0.00  0.00    +0.000 C 
BRANCH  15  16
ATOM     16  N   UNL     1      43.706   3.809  10.535  0.00  0.00    +0.000 N 
ATOM     17  H   UNL     1      43.723   3.211  11.354  0.00  0.00    +0.000 HD
BRANCH  16  18
ATOM     18  C   UNL     1      44.705   3.511   9.609  0.00  0.00    +0.000 A 
ATOM     19  C   UNL     1      44.991   2.167   9.342  0.00  0.00    +0.000 A 
ATOM     20  C   UNL     1      45.907   1.793   8.350  0.00  0.00    +0.000 A 
ATOM     21  C   UNL     1      46.531   2.768   7.568  0.00  0.00    +0.000 A 
ATOM     22  C   UNL     1      46.260   4.115   7.819  0.00  0.00    +0.000 A 
ATOM     23  C   UNL     1      45.351   4.477   8.826  0.00  0.00    +0.000 A 
BRANCH  21  24
ATOM     24  C   UNL     1      47.455   2.328   6.494  0.00  0.00    +0.000 C 
ATOM     25  N   UNL     1      47.455   3.040   5.328  0.00  0.00    +0.000 N 
ATOM     26  O   UNL     1      48.166   1.336   6.621  0.00  0.00    +0.000 OA
ATOM     27  H   UNL     1      46.716   3.690   5.092  0.00  0.00    +0.000 HD
ATOM     28  H   UNL     1      47.987   2.642   4.564  0.00  0.00    +0.000 HD
ENDBRANCH  21  24
ENDBRANCH  16  18
ENDBRANCH  15  16
ENDBRANCH   2  15
TORSDOF 7
ENDMDL
MODEL 4
REMARK VINA RESULT:    -7.543      2.911      3.687
REMARK INTER + INTRA:         -11.658
REMARK INTER:                 -10.613
REMARK INTRA:                  -1.045
REMARK UNBOUND:                -1.028
REMARK  Name = 
REMARK  9 active torsions:
REMARK  status: ('A' for Active; 'I' for Inactive)
REMARK    1  A    between atoms: C_1  and  C_2
REMARK    2  A    between atoms: C_2  and  C_3
REMARK    3  A    between atoms: C_2  and  C_14
REMARK    4  A    between atoms: C_3  and  N_4
REMARK    5  A    between atoms: N_4  and  C_5
REMARK    6  A    between atoms: C_8  and  C_9
REMARK    7  A    between atoms: C_18  and  O_19
REMARK    8  A    between atoms: O_19  and  C_20
REMARK    9  A    between atoms: N_22  and  C_23
REMARK                            x       y       z     vdW  Elec       q    Type
REMARK                         _______ _______ _______ _____ _____    ______ ____
ROOT
ATOM      1  C   UNL     1      45.324   3.457  12.562  0.00  0.00    +0.000 C 
ATOM      2  C   UNL     1      44.366   4.657  12.460  0.00  0.00    +0.000 C 
ENDROOT
BRANCH   2   3
ATOM      3  C   UNL     1      45.164   5.953  12.300  0.00  0.00    +0.000 A 
ATOM      4  C   UNL     1      44.518   7.199  12.289  0.00  0.00    +0.000 A 
ATOM      5  C   UNL     1      45.250   8.392  12.189  0.00  0.00    +0.000 A 
ATOM      6  C   UNL     1      46.644   8.364  12.077  0.00  0.00    +0.000 A 
ATOM      7  C   UNL     1      47.293   7.141  12.052  0.00  0.00    +0.000 A 
ATOM      8  C   UNL     1      46.558   5.957  12.163  0.00  0.00    +0.000 A 
BRANCH   7   9
ATOM      9  O   UNL     1      48.644   6.937  11.986  0.00  0.00    +0.000 OA
BRANCH   9  10
ATOM     10  C   UNL     1      49.530   8.002  11.594  0.00  0.00    +0.000 C 
ATOM     11  C   UNL     1      50.923   7.653  11.023  0.00  0.00    +0.000 C 
ATOM     12  N   UNL     1      51.566   8.554  12.005  0.00  0.00    +0.000 NA
ATOM     13  C   UNL     1      51.837   9.868  11.423  0.00  0.00    +0.000 C 
ATOM     14  C   UNL     1      50.318   8.595  12.789  0.00  0.00    +0.000 C 
ENDBRANCH   9  10
ENDBRANCH   7   9
ENDBRANCH   2   3
BRANCH   2  15
ATOM     15  C   UNL     1      43.339   4.337  11.335  0.00  0.00    +0.000 C 
BRANCH  15  16
ATOM     16  N   UNL     1      43.800   4.819  10.033  0.00  0.00    +0.000 N 
ATOM     17  H   UNL     1      43.097   5.341   9.520  0.00  0.00    +0.000 HD
BRANCH  16  18
ATOM     18  C   UNL     1      44.616   4.037   9.217  0.00  0.00    +0.000 A 
ATOM     19  C   UNL     1      45.618   4.668   8.471  0.00  0.00    +0.000 A 
ATOM     20  C   UNL     1      46.541   3.937   7.711  0.00  0.00    +0.000 A 
ATOM     21  C   UNL     1      46.504   2.540   7.718  0.00  0.00    +0.000 A 
ATOM     22  C   UNL     1      45.513   1.890   8.457  0.00  0.00    +0.000 A 
ATOM     23  C   UNL     1      44.585   2.635   9.202  0.00  0.00    +0.000 A 
BRANCH  21  24
ATOM     24  C   UNL     1      47.532   1.803   6.942  0.00  0.00    +0.000 C 
ATOM     25  N   UNL     1      48.561   2.526   6.409  0.00  0.00    +0.000 N 
ATOM     26  O   UNL     1      47.446   0.595   6.742  0.00  0.00    +0.000 OA
ATOM     27  H   UNL     1      48.529   3.535   6.332  0.00  0.00    +0.000 HD
ATOM     28  H   UNL     1      49.170   2.029   5.772  0.00  0.00    +0.000 HD
ENDBRANCH  21  24
ENDBRANCH  16  18
ENDBRANCH  15  16
ENDBRANCH   2  15
TORSDOF 7
ENDMDL
MODEL 5
REMARK VINA RESULT:    -6.509      3.471      4.566
REMARK INTER + INTRA:         -10.201
REMARK INTER:                  -9.456
REMARK INTRA:                  -0.745
REMARK UNBOUND:                -1.028
REMARK  Name = 
REMARK  9 active torsions:
REMARK  status: ('A' for Active; 'I' for Inactive)
REMARK    1  A    between atoms: C_1  and  C_2
REMARK    2  A    between atoms: C_2  and  C_3
REMARK    3  A    between atoms: C_2  and  C_14
REMARK    4  A    between atoms: C_3  and  N_4
REMARK    5  A    between atoms: N_4  and  C_5
REMARK    6  A    between atoms: C_8  and  C_9
REMARK    7  A    between atoms: C_18  and  O_19
REMARK    8  A    between atoms: O_19  and  C_20
REMARK    9  A    between atoms: N_22  and  C_23
REMARK                            x       y       z     vdW  Elec       q    Type
REMARK                         _______ _______ _______ _____ _____    ______ ____
ROOT
ATOM      1  C   UNL     1      44.697   7.753  12.289  0.00  0.00    +0.000 C 
ATOM      2  C   UNL     1      45.721   6.856  11.569  0.00  0.00    +0.000 C 
ENDROOT
BRANCH   2   3
ATOM      3  C   UNL     1      47.107   7.040  12.190  0.00  0.00    +0.000 A 
ATOM      4  C   UNL     1      47.336   6.741  13.541  0.00  0.00    +0.000 A 
ATOM      5  C   UNL     1      48.616   6.863  14.102  0.00  0.00    +0.000 A 
ATOM      6  C   UNL     1      49.693   7.309  13.328  0.00  0.00    +0.000 A 
ATOM      7  C   UNL     1      49.475   7.641  12.001  0.00  0.00    +0.000 A 
ATOM      8  C   UNL     1      48.200   7.506  11.446  0.00  0.00    +0.000 A 
BRANCH   7   9
ATOM      9  O   UNL     1      50.418   8.054  11.100  0.00  0.00    +0.000 OA
BRANCH   9  10
ATOM     10  C   UNL     1      51.797   8.197  11.492  0.00  0.00    +0.000 C 
ATOM     11  C   UNL     1      52.512   9.546  11.255  0.00  0.00    +0.000 C 
ATOM     12  N   UNL     1      53.614   8.853  10.552  0.00  0.00    +0.000 NA
ATOM     13  C   UNL     1      54.740   8.599  11.448  0.00  0.00    +0.000 C 
ATOM     14  C   UNL     1      52.779   7.644  10.431  0.00  0.00    +0.000 C 
ENDBRANCH   9  10
ENDBRANCH   7   9
ENDBRANCH   2   3
BRANCH   2  15
ATOM     15  C   UNL     1      45.151   5.407  11.572  0.00  0.00    +0.000 C 
BRANCH  15  16
ATOM     16  N   UNL     1      44.505   5.081  10.302  0.00  0.00    +0.000 N 
ATOM     17  H   UNL     1      43.499   4.969  10.373  0.00  0.00    +0.000 HD
BRANCH  16  18
ATOM     18  C   UNL     1      45.097   4.209   9.389  0.00  0.00    +0.000 A 
ATOM     19  C   UNL     1      45.935   4.741   8.401  0.00  0.00    +0.000 A 
ATOM     20  C   UNL     1      46.644   3.917   7.517  0.00  0.00    +0.000 A 
ATOM     21  C   UNL     1      46.560   2.527   7.633  0.00  0.00    +0.000 A 
ATOM     22  C   UNL     1      45.730   1.976   8.612  0.00  0.00    +0.000 A 
ATOM     23  C   UNL     1      45.013   2.812   9.482  0.00  0.00    +0.000 A 
BRANCH  21  24
ATOM     24  C   UNL     1      47.368   1.691   6.710  0.00  0.00    +0.000 C 
ATOM     25  N   UNL     1      48.397   2.298   6.046  0.00  0.00    +0.000 N 
ATOM     26  O   UNL     1      47.104   0.510   6.511  0.00  0.00    +0.000 OA
ATOM     27  H   UNL     1      48.483   3.304   5.986  0.00  0.00    +0.000 HD
ATOM     28  H   UNL     1      48.843   1.748   5.323  0.00  0.00    +0.000 HD
ENDBRANCH  21  24
ENDBRANCH  16  18
ENDBRANCH  15  16
ENDBRANCH   2  15
TORSDOF 7
ENDMDL
MODEL 6
REMARK VINA RESULT:    -6.459      2.266      8.836
REMARK INTER + INTRA:         -10.130
REMARK INTER:                  -9.705
REMARK INTRA:                  -0.425
REMARK UNBOUND:                -1.028
REMARK  Name = 
REMARK  9 active torsions:
REMARK  status: ('A' for Active; 'I' for Inactive)
REMARK    1  A    between atoms: C_1  and  C_2
REMARK    2  A    between atoms: C_2  and  C_3
REMARK    3  A    between atoms: C_2  and  C_14
REMARK    4  A    between atoms: C_3  and  N_4
REMARK    5  A    between atoms: N_4  and  C_5
REMARK    6  A    between atoms: C_8  and  C_9
REMARK    7  A    between atoms: C_18  and  O_19
REMARK    8  A    between atoms: O_19  and  C_20
REMARK    9  A    between atoms: N_22  and  C_23
REMARK                            x       y       z     vdW  Elec       q    Type
REMARK                         _______ _______ _______ _____ _____    ______ ____
ROOT
ATOM      1  C   UNL     1      46.201   7.062  12.470  0.00  0.00    +0.000 C 
ATOM      2  C   UNL     1      45.894   5.750  13.214  0.00  0.00    +0.000 C 
ENDROOT
BRANCH   2   3
ATOM      3  C   UNL     1      45.113   4.800  12.303  0.00  0.00    +0.000 A 
ATOM      4  C   UNL     1      44.297   3.794  12.843  0.00  0.00    +0.000 A 
ATOM      5  C   UNL     1      43.543   2.952  12.014  0.00  0.00    +0.000 A 
ATOM      6  C   UNL     1      43.606   3.083  10.621  0.00  0.00    +0.000 A 
ATOM      7  C   UNL     1      44.433   4.048  10.073  0.00  0.00    +0.000 A 
ATOM      8  C   UNL     1      45.172   4.892  10.907  0.00  0.00    +0.000 A 
BRANCH   7   9
ATOM      9  O   UNL     1      44.581   4.333   8.743  0.00  0.00    +0.000 OA
BRANCH   9  10
ATOM     10  C   UNL     1      45.168   3.372   7.846  0.00  0.00    +0.000 C 
ATOM     11  C   UNL     1      45.908   2.148   8.431  0.00  0.00    +0.000 C 
ATOM     12  N   UNL     1      47.096   2.455   7.604  0.00  0.00    +0.000 NA
ATOM     13  C   UNL     1      47.105   1.667   6.372  0.00  0.00    +0.000 C 
ATOM     14  C   UNL     1      46.566   3.804   7.339  0.00  0.00    +0.000 C 
ENDBRANCH   9  10
ENDBRANCH   7   9
ENDBRANCH   2   3
BRANCH   2  15
ATOM     15  C   UNL     1      47.242   5.211  13.779  0.00  0.00    +0.000 C 
BRANCH  15  16
ATOM     16  N   UNL     1      47.025   4.177  14.790  0.00  0.00    +0.000 N 
ATOM     17  H   UNL     1      46.109   3.743  14.739  0.00  0.00    +0.000 HD
BRANCH  16  18
ATOM     18  C   UNL     1      47.497   4.326  16.094  0.00  0.00    +0.000 A 
ATOM     19  C   UNL     1      47.275   3.290  17.008  0.00  0.00    +0.000 A 
ATOM     20  C   UNL     1      47.810   3.324  18.303  0.00  0.00    +0.000 A 
ATOM     21  C   UNL     1      48.623   4.391  18.697  0.00  0.00    +0.000 A 
ATOM     22  C   UNL     1      48.857   5.434  17.800  0.00  0.00    +0.000 A 
ATOM     23  C   UNL     1      48.303   5.395  16.510  0.00  0.00    +0.000 A 
BRANCH  21  24
ATOM     24  C   UNL     1      49.211   4.363  20.059  0.00  0.00    +0.000 C 
ATOM     25  N   UNL     1      50.571   4.449  20.161  0.00  0.00    +0.000 N 
ATOM     26  O   UNL     1      48.516   4.226  21.060  0.00  0.00    +0.000 OA
ATOM     27  H   UNL     1      51.183   4.304  19.369  0.00  0.00    +0.000 HD
ATOM     28  H   UNL     1      50.958   4.289  21.084  0.00  0.00    +0.000 HD
ENDBRANCH  21  24
ENDBRANCH  16  18
ENDBRANCH  15  16
ENDBRANCH   2  15
TORSDOF 7
ENDMDL
MODEL 7
REMARK VINA RESULT:    -6.387      3.332      7.543
REMARK INTER + INTRA:         -10.029
REMARK INTER:                  -8.783
REMARK INTRA:                  -1.245
REMARK UNBOUND:                -1.028
REMARK  Name = 
REMARK  9 active torsions:
REMARK  status: ('A' for Active; 'I' for Inactive)
REMARK    1  A    between atoms: C_1  and  C_2
REMARK    2  A    between atoms: C_2  and  C_3
REMARK    3  A    between atoms: C_2  and  C_14
REMARK    4  A    between atoms: C_3  and  N_4
REMARK    5  A    between atoms: N_4  and  C_5
REMARK    6  A    between atoms: C_8  and  C_9
REMARK    7  A    between atoms: C_18  and  O_19
REMARK    8  A    between atoms: O_19  and  C_20
REMARK    9  A    between atoms: N_22  and  C_23
REMARK                            x       y       z     vdW  Elec       q    Type
REMARK                         _______ _______ _______ _____ _____    ______ ____
ROOT
ATOM      1  C   UNL     1      47.026   3.959  14.762  0.00  0.00    +0.000 C 
ATOM      2  C   UNL     1      46.971   4.626  13.376  0.00  0.00    +0.000 C 
ENDROOT
BRANCH   2   3
ATOM      3  C   UNL     1      45.609   4.374  12.725  0.00  0.00    +0.000 A 
ATOM      4  C   UNL     1      44.422   4.758  13.367  0.00  0.00    +0.000 A 
ATOM      5  C   UNL     1      43.175   4.571  12.754  0.00  0.00    +0.000 A 
ATOM      6  C   UNL     1      43.086   3.974  11.491  0.00  0.00    +0.000 A 
ATOM      7  C   UNL     1      44.246   3.558  10.861  0.00  0.00    +0.000 A 
ATOM      8  C   UNL     1      45.486   3.759  11.473  0.00  0.00    +0.000 A 
BRANCH   7   9
ATOM      9  O   UNL     1      44.339   2.996   9.617  0.00  0.00    +0.000 OA
BRANCH   9  10
ATOM     10  C   UNL     1      45.596   2.966   8.915  0.00  0.00    +0.000 C 
ATOM     11  C   UNL     1      45.644   3.402   7.433  0.00  0.00    +0.000 C 
ATOM     12  N   UNL     1      46.321   2.138   7.070  0.00  0.00    +0.000 NA
ATOM     13  C   UNL     1      47.771   2.313   6.998  0.00  0.00    +0.000 C 
ATOM     14  C   UNL     1      45.944   1.558   8.371  0.00  0.00    +0.000 C 
ENDBRANCH   9  10
ENDBRANCH   7   9
ENDBRANCH   2   3
BRANCH   2  15
ATOM     15  C   UNL     1      47.379   6.118  13.563  0.00  0.00    +0.000 C 
BRANCH  15  16
ATOM     16  N   UNL     1      47.455   6.818  12.281  0.00  0.00    +0.000 N 
ATOM     17  H   UNL     1      48.403   6.949  11.944  0.00  0.00    +0.000 HD
BRANCH  16  18
ATOM     18  C   UNL     1      46.608   7.886  11.987  0.00  0.00    +0.000 A 
ATOM     19  C   UNL     1      45.297   7.609  11.583  0.00  0.00    +0.000 A 
ATOM     20  C   UNL     1      44.361   8.630  11.371  0.00  0.00    +0.000 A 
ATOM     21  C   UNL     1      44.713   9.963  11.604  0.00  0.00    +0.000 A 
ATOM     22  C   UNL     1      46.016  10.261  12.008  0.00  0.00    +0.000 A 
ATOM     23  C   UNL     1      46.949   9.229  12.202  0.00  0.00    +0.000 A 
BRANCH  21  24
ATOM     24  C   UNL     1      43.677  11.009  11.418  0.00  0.00    +0.000 C 
ATOM     25  N   UNL     1      42.372  10.644  11.594  0.00  0.00    +0.000 N 
ATOM     26  O   UNL     1      43.967  12.151  11.078  0.00  0.00    +0.000 OA
ATOM     27  H   UNL     1      42.080   9.676  11.619  0.00  0.00    +0.000 HD
ATOM     28  H   UNL     1      41.679  11.333  11.328  0.00  0.00    +0.000 HD
ENDBRANCH  21  24
ENDBRANCH  16  18
ENDBRANCH  15  16
ENDBRANCH   2  15
TORSDOF 7
ENDMDL
MODEL 8
REMARK VINA RESULT:    -6.304      2.207      2.657
REMARK INTER + INTRA:          -9.912
REMARK INTER:                  -9.477
REMARK INTRA:                  -0.435
REMARK UNBOUND:                -1.028
REMARK  Name = 
REMARK  9 active torsions:
REMARK  status: ('A' for Active; 'I' for Inactive)
REMARK    1  A    between atoms: C_1  and  C_2
REMARK    2  A    between atoms: C_2  and  C_3
REMARK    3  A    between atoms: C_2  and  C_14
REMARK    4  A    between atoms: C_3  and  N_4
REMARK    5  A    between atoms: N_4  and  C_5
REMARK    6  A    between atoms: C_8  and  C_9
REMARK    7  A    between atoms: C_18  and  O_19
REMARK    8  A    between atoms: O_19  and  C_20
REMARK    9  A    between atoms: N_22  and  C_23
REMARK                            x       y       z     vdW  Elec       q    Type
REMARK                         _______ _______ _______ _____ _____    ______ ____
ROOT
ATOM      1  C   UNL     1      45.916   3.430  12.867  0.00  0.00    +0.000 C 
ATOM      2  C   UNL     1      44.675   4.339  12.906  0.00  0.00    +0.000 C 
ENDROOT
BRANCH   2   3
ATOM      3  C   UNL     1      45.059   5.770  12.520  0.00  0.00    +0.000 A 
ATOM      4  C   UNL     1      44.147   6.606  11.857  0.00  0.00    +0.000 A 
ATOM      5  C   UNL     1      44.479   7.931  11.543  0.00  0.00    +0.000 A 
ATOM      6  C   UNL     1      45.740   8.446  11.866  0.00  0.00    +0.000 A 
ATOM      7  C   UNL     1      46.661   7.622  12.490  0.00  0.00    +0.000 A 
ATOM      8  C   UNL     1      46.320   6.305  12.810  0.00  0.00    +0.000 A 
BRANCH   7   9
ATOM      9  O   UNL     1      47.916   7.975  12.907  0.00  0.00    +0.000 OA
BRANCH   9  10
ATOM     10  C   UNL     1      48.198   8.174  14.305  0.00  0.00    +0.000 C 
ATOM     11  C   UNL     1      49.276   9.201  14.718  0.00  0.00    +0.000 C 
ATOM     12  N   UNL     1      49.951   8.178  15.547  0.00  0.00    +0.000 NA
ATOM     13  C   UNL     1      49.549   8.280  16.950  0.00  0.00    +0.000 C 
ATOM     14  C   UNL     1      49.178   7.119  14.874  0.00  0.00    +0.000 C 
ENDBRANCH   9  10
ENDBRANCH   7   9
ENDBRANCH   2   3
BRANCH   2  15
ATOM     15  C   UNL     1      43.576   3.662  12.034  0.00  0.00    +0.000 C 
BRANCH  15  16
ATOM     16  N   UNL     1      43.566   4.195  10.672  0.00  0.00    +0.000 N 
ATOM     17  H   UNL     1      42.644   4.465  10.347  0.00  0.00    +0.000 HD
BRANCH  16  18
ATOM     18  C   UNL     1      44.369   3.646   9.672  0.00  0.00    +0.000 A 
ATOM     19  C   UNL     1      45.098   4.512   8.849  0.00  0.00    +0.000 A 
ATOM     20  C   UNL     1      46.003   4.031   7.894  0.00  0.00    +0.000 A 
ATOM     21  C   UNL     1      46.229   2.657   7.772  0.00  0.00    +0.000 A 
ATOM     22  C   UNL     1      45.513   1.776   8.585  0.00  0.00    +0.000 A 
ATOM     23  C   UNL     1      44.597   2.271   9.528  0.00  0.00    +0.000 A 
BRANCH  21  24
ATOM     24  C   UNL     1      47.234   2.192   6.784  0.00  0.00    +0.000 C 
ATOM     25  N   UNL     1      48.123   1.237   7.189  0.00  0.00    +0.000 N 
ATOM     26  O   UNL     1      47.301   2.672   5.657  0.00  0.00    +0.000 OA
ATOM     27  H   UNL     1      48.264   1.009   8.164  0.00  0.00    +0.000 HD
ATOM     28  H   UNL     1      48.881   1.036   6.549  0.00  0.00    +0.000 HD
ENDBRANCH  21  24
ENDBRANCH  16  18
ENDBRANCH  15  16
ENDBRANCH   2  15
TORSDOF 7
ENDMDL
MODEL 9
REMARK VINA RESULT:    -6.271      4.146      7.995
REMARK INTER + INTRA:          -9.865
REMARK INTER:                  -8.817
REMARK INTRA:                  -1.047
REMARK UNBOUND:                -1.028
REMARK  Name = 
REMARK  9 active torsions:
REMARK  status: ('A' for Active; 'I' for Inactive)
REMARK    1  A    between atoms: C_1  and  C_2
REMARK    2  A    between atoms: C_2  and  C_3
REMARK    3  A    between atoms: C_2  and  C_14
REMARK    4  A    between atoms: C_3  and  N_4
REMARK    5  A    between atoms: N_4  and  C_5
REMARK    6  A    between atoms: C_8  and  C_9
REMARK    7  A    between atoms: C_18  and  O_19
REMARK    8  A    between atoms: O_19  and  C_20
REMARK    9  A    between atoms: N_22  and  C_23
REMARK                            x       y       z     vdW  Elec       q    Type
REMARK                         _______ _______ _______ _____ _____    ______ ____
ROOT
ATOM      1  C   UNL     1      47.629   6.367  13.226  0.00  0.00    +0.000 C 
ATOM      2  C   UNL     1      46.625   7.041  12.274  0.00  0.00    +0.000 C 
ENDROOT
BRANCH   2   3
ATOM      3  C   UNL     1      45.493   6.070  11.931  0.00  0.00    +0.000 A 
ATOM      4  C   UNL     1      44.477   5.792  12.859  0.00  0.00    +0.000 A 
ATOM      5  C   UNL     1      43.413   4.940  12.532  0.00  0.00    +0.000 A 
ATOM      6  C   UNL     1      43.351   4.327  11.275  0.00  0.00    +0.000 A 
ATOM      7  C   UNL     1      44.364   4.565  10.362  0.00  0.00    +0.000 A 
ATOM      8  C   UNL     1      45.416   5.425  10.690  0.00  0.00    +0.000 A 
BRANCH   7   9
ATOM      9  O   UNL     1      44.438   4.081   9.084  0.00  0.00    +0.000 OA
BRANCH   9  10
ATOM     10  C   UNL     1      45.676   3.562   8.564  0.00  0.00    +0.000 C 
ATOM     11  C   UNL     1      45.873   3.472   7.034  0.00  0.00    +0.000 C 
ATOM     12  N   UNL     1      46.251   2.046   7.154  0.00  0.00    +0.000 NA
ATOM     13  C   UNL     1      47.703   1.882   7.186  0.00  0.00    +0.000 C 
ATOM     14  C   UNL     1      45.706   2.015   8.523  0.00  0.00    +0.000 C 
ENDBRANCH   9  10
ENDBRANCH   7   9
ENDBRANCH   2   3
BRANCH   2  15
ATOM     15  C   UNL     1      46.201   8.390  12.926  0.00  0.00    +0.000 C 
BRANCH  15  16
ATOM     16  N   UNL     1      46.062   9.450  11.928  0.00  0.00    +0.000 N 
ATOM     17  H   UNL     1      46.727  10.207  12.042  0.00  0.00    +0.000 HD
BRANCH  16  18
ATOM     18  C   UNL     1      44.807   9.874  11.490  0.00  0.00    +0.000 A 
ATOM     19  C   UNL     1      43.926   8.923  10.961  0.00  0.00    +0.000 A 
ATOM     20  C   UNL     1      42.615   9.257  10.599  0.00  0.00    +0.000 A 
ATOM     21  C   UNL     1      42.141  10.556  10.800  0.00  0.00    +0.000 A 
ATOM     22  C   UNL     1      43.004  11.520  11.326  0.00  0.00    +0.000 A 
ATOM     23  C   UNL     1      44.321  11.176  11.671  0.00  0.00    +0.000 A 
BRANCH  21  24
ATOM     24  C   UNL     1      40.730  10.855  10.450  0.00  0.00    +0.000 C 
ATOM     25  N   UNL     1      39.772   9.990  10.897  0.00  0.00    +0.000 N 
ATOM     26  O   UNL     1      40.429  11.816   9.751  0.00  0.00    +0.000 OA
ATOM     27  H   UNL     1      39.997   9.068  11.247  0.00  0.00    +0.000 HD
ATOM     28  H   UNL     1      38.838  10.135  10.533  0.00  0.00    +0.000 HD
ENDBRANCH  21  24
ENDBRANCH  16  18
ENDBRANCH  15  16
ENDBRANCH   2  15
TORSDOF 7
ENDMDL
