MODEL 1
REMARK VINA RESULT:    -7.029      0.000      0.000
REMARK INTER + INTRA:         -10.464
REMARK INTER:                  -9.701
REMARK INTRA:                  -0.764
REMARK UNBOUND:                -0.764
REMARK  Name = 
REMARK  7 active torsions:
REMARK  status: ('A' for Active; 'I' for Inactive)
REMARK    1  A    between atoms: N_1  and  C_2
REMARK    2  A    between atoms: C_2  and  C_3
REMARK    3  A    between atoms: C_7  and  O_8
REMARK    4  A    between atoms: O_8  and  C_9
REMARK    5  A    between atoms: C_9  and  C_10
REMARK    6  A    between atoms: C_10  and  O_11
REMARK    7  A    between atoms: O_11  and  C_12
REMARK                            x       y       z     vdW  Elec       q    Type
REMARK                         _______ _______ _______ _____ _____    ______ ____
ROOT
ATOM      1  O   UNL     1      43.639   2.561  10.504  0.00  0.00    +0.000 OA
ENDROOT
BRANCH   1   6
ATOM      2  C   UNL     1      46.240   2.162   7.992  0.00  0.00    +0.000 A 
ATOM      3  C   UNL     1      46.460   3.484   7.584  0.00  0.00    +0.000 A 
ATOM      4  C   UNL     1      45.732   4.529   8.153  0.00  0.00    +0.000 A 
ATOM      5  C   UNL     1      44.773   4.266   9.133  0.00  0.00    +0.000 A 
ATOM      6  C   UNL     1      44.541   2.958   9.555  0.00  0.00    +0.000 A 
ATOM      7  C   UNL     1      45.276   1.914   8.980  0.00  0.00    +0.000 A 
BRANCH   2   8
ATOM      8  C   UNL     1      47.011   1.031   7.362  0.00  0.00    +0.000 C 
BRANCH   8   9
ATOM      9  N   UNL     1      48.217   1.509   6.694  0.00  0.00    +0.000 NA
ATOM     10  H   UNL     1      47.951   2.105   5.913  0.00  0.00    +0.000 HD
ATOM     11  H   UNL     1      48.705   0.708   6.294  0.00  0.00    +0.000 HD
ENDBRANCH   8   9
ENDBRANCH   2   8
ENDBRANCH   1   6
BRANCH   1  12
ATOM     12  C   UNL     1      43.983   2.731  11.879  0.00  0.00    +0.000 C 
BRANCH  12  13
ATOM     13  C   UNL     1      43.327   3.982  12.460  0.00  0.00    +0.000 C 
BRANCH  13  14
ATOM     14  O   UNL     1      44.226   4.578  13.393  0.00  0.00    +0.000 OA
BRANCH  14  15
ATOM     15  C   UNL     1      45.124   5.495  12.910  0.00  0.00    +0.000 A 
ATOM     16  C   UNL     1      44.773   6.674  12.242  0.00  0.00    +0.000 A 
ATOM     17  C   UNL     1      45.760   7.559  11.794  0.00  0.00    +0.000 A 
ATOM     18  C   UNL     1      47.108   7.275  12.007  0.00  0.00    +0.000 A 
ATOM     19  C   UNL     1      47.472   6.100  12.663  0.00  0.00    +0.000 A 
ATOM     20  C   UNL     1      46.486   5.215  13.110  0.00  0.00    +0.000 A 
ATOM     21 CL   UNL     1      47.000   3.771  13.913  0.00  0.00    +0.000 Cl
ENDBRANCH  14  15
ENDBRANCH  13  14
ENDBRANCH  12  13
ENDBRANCH   1  12
TORSDOF 7
ENDMDL
MODEL 2
REMARK VINA RESULT:    -6.176      1.262      1.874
REMARK INTER + INTRA:          -9.286
REMARK INTER:                  -8.800
REMARK INTRA:                  -0.486
REMARK UNBOUND:                -0.764
REMARK  Name = 
REMARK  7 active torsions:
REMARK  status: ('A' for Active; 'I' for Inactive)
REMARK    1  A    between atoms: N_1  and  C_2
REMARK    2  A    between atoms: C_2  and  C_3
REMARK    3  A    between atoms: C_7  and  O_8
REMARK    4  A    between atoms: O_8  and  C_9
REMARK    5  A    between atoms: C_9  and  C_10
REMARK    6  A    between atoms: C_10  and  O_11
REMARK    7  A    between atoms: O_11  and  C_12
REMARK                            x       y       z     vdW  Elec       q    Type
REMARK                         _______ _______ _______ _____ _____    ______ ____
ROOT
ATOM      1  O   UNL     1      44.668   4.521   9.347  0.00  0.00    +0.000 OA
ENDROOT
BRANCH   1   6
ATOM      2  C   UNL     1      46.738   2.709   6.967  0.00  0.00    +0.000 A 
ATOM      3  C   UNL     1      46.574   1.382   7.385  0.00  0.00    +0.000 A 
ATOM      4  C   UNL     1      45.761   1.082   8.478  0.00  0.00    +0.000 A 
ATOM      5  C   UNL     1      45.105   2.102   9.168  0.00  0.00    +0.000 A 
ATOM      6  C   UNL     1      45.253   3.429   8.767  0.00  0.00    +0.000 A 
ATOM      7  C   UNL     1      46.070   3.724   7.668  0.00  0.00    +0.000 A 
BRANCH   2   8
ATOM      8  C   UNL     1      47.634   3.036   5.799  0.00  0.00    +0.000 C 
BRANCH   8   9
ATOM      9  N   UNL     1      48.495   1.912   5.451  0.00  0.00    +0.000 NA
ATOM     10  H   UNL     1      49.456   2.139   5.698  0.00  0.00    +0.000 HD
ATOM     11  H   UNL     1      48.478   1.790   4.439  0.00  0.00    +0.000 HD
ENDBRANCH   8   9
ENDBRANCH   2   8
ENDBRANCH   1   6
BRANCH   1  12
ATOM     12  C   UNL     1      44.177   4.398  10.682  0.00  0.00    +0.000 C 
BRANCH  12  13
ATOM     13  C   UNL     1      43.781   5.760  11.250  0.00  0.00    +0.000 C 
BRANCH  13  14
ATOM     14  O   UNL     1      44.427   5.934  12.510  0.00  0.00    +0.000 OA
BRANCH  14  15
ATOM     15  C   UNL     1      45.686   6.476  12.508  0.00  0.00    +0.000 A 
ATOM     16  C   UNL     1      45.990   7.776  12.087  0.00  0.00    +0.000 A 
ATOM     17  C   UNL     1      47.306   8.249  12.131  0.00  0.00    +0.000 A 
ATOM     18  C   UNL     1      48.333   7.429  12.594  0.00  0.00    +0.000 A 
ATOM     19  C   UNL     1      48.046   6.129  13.008  0.00  0.00    +0.000 A 
ATOM     20  C   UNL     1      46.731   5.655  12.963  0.00  0.00    +0.000 A 
ATOM     21 CL   UNL     1      46.439   4.031  13.485  0.00  0.00    +0.000 Cl
ENDBRANCH  14  15
ENDBRANCH  13  14
ENDBRANCH  12  13
ENDBRANCH   1  12
TORSDOF 7
ENDMDL
MODEL 3
REMARK VINA RESULT:    -6.082      2.426      5.700
REMARK INTER + INTRA:          -9.156
REMARK INTER:                  -8.727
REMARK INTRA:                  -0.429
REMARK UNBOUND:                -0.764
REMARK  Name = 
REMARK  7 active torsions:
REMARK  status: ('A' for Active; 'I' for Inactive)
REMARK    1  A    between atoms: N_1  and  C_2
REMARK    2  A    between atoms: C_2  and  C_3
REMARK    3  A    between atoms: C_7  and  O_8
REMARK    4  A    between atoms: O_8  and  C_9
REMARK    5  A    between atoms: C_9  and  C_10
REMARK    6  A    between atoms: C_10  and  O_11
REMARK    7  A    between atoms: O_11  and  C_12
REMARK                            x       y       z     vdW  Elec       q    Type
REMARK                         _______ _______ _______ _____ _____    ______ ____
ROOT
ATOM      1  O   UNL     1      43.773   4.035  12.818  0.00  0.00    +0.000 OA
ENDROOT
BRANCH   1   6
ATOM      2  C   UNL     1      46.620   6.267  13.199  0.00  0.00    +0.000 A 
ATOM      3  C   UNL     1      46.254   7.350  12.391  0.00  0.00    +0.000 A 
ATOM      4  C   UNL     1      45.039   7.342  11.705  0.00  0.00    +0.000 A 
ATOM      5  C   UNL     1      44.177   6.250  11.816  0.00  0.00    +0.000 A 
ATOM      6  C   UNL     1      44.521   5.162  12.617  0.00  0.00    +0.000 A 
ATOM      7  C   UNL     1      45.742   5.178  13.303  0.00  0.00    +0.000 A 
BRANCH   2   8
ATOM      8  C   UNL     1      47.943   6.267  13.923  0.00  0.00    +0.000 C 
BRANCH   8   9
ATOM      9  N   UNL     1      49.060   6.431  13.000  0.00  0.00    +0.000 NA
ATOM     10  H   UNL     1      48.704   6.462  12.047  0.00  0.00    +0.000 HD
ATOM     11  H   UNL     1      49.654   5.605  13.059  0.00  0.00    +0.000 HD
ENDBRANCH   8   9
ENDBRANCH   2   8
ENDBRANCH   1   6
BRANCH   1  12
ATOM     12  C   UNL     1      43.450   3.225  11.687  0.00  0.00    +0.000 C 
BRANCH  12  13
ATOM     13  C   UNL     1      44.714   2.755  10.969  0.00  0.00    +0.000 C 
BRANCH  13  14
ATOM     14  O   UNL     1      44.370   2.386   9.635  0.00  0.00    +0.000 OA
BRANCH  14  15
ATOM     15  C   UNL     1      45.394   2.229   8.736  0.00  0.00    +0.000 A 
ATOM     16  C   UNL     1      45.884   0.993   8.300  0.00  0.00    +0.000 A 
ATOM     17  C   UNL     1      46.927   0.929   7.369  0.00  0.00    +0.000 A 
ATOM     18  C   UNL     1      47.493   2.100   6.867  0.00  0.00    +0.000 A 
ATOM     19  C   UNL     1      47.021   3.337   7.300  0.00  0.00    +0.000 A 
ATOM     20  C   UNL     1      45.980   3.402   8.231  0.00  0.00    +0.000 A 
ATOM     21 CL   UNL     1      45.441   4.967   8.734  0.00  0.00    +0.000 Cl
ENDBRANCH  14  15
ENDBRANCH  13  14
ENDBRANCH  12  13
ENDBRANCH   1  12
TORSDOF 7
ENDMDL
MODEL 4
REMARK VINA RESULT:    -5.966      2.956      6.351
REMARK INTER + INTRA:          -8.997
REMARK INTER:                  -8.665
REMARK INTRA:                  -0.333
REMARK UNBOUND:                -0.764
REMARK  Name = 
REMARK  7 active torsions:
REMARK  status: ('A' for Active; 'I' for Inactive)
REMARK    1  A    between atoms: N_1  and  C_2
REMARK    2  A    between atoms: C_2  and  C_3
REMARK    3  A    between atoms: C_7  and  O_8
REMARK    4  A    between atoms: O_8  and  C_9
REMARK    5  A    between atoms: C_9  and  C_10
REMARK    6  A    between atoms: C_10  and  O_11
REMARK    7  A    between atoms: O_11  and  C_12
REMARK                            x       y       z     vdW  Elec       q    Type
REMARK                         _______ _______ _______ _____ _____    ______ ____
ROOT
ATOM      1  O   UNL     1      45.350   5.437  11.898  0.00  0.00    +0.000 OA
ENDROOT
BRANCH   1   6
ATOM      2  C   UNL     1      48.131   7.655  12.663  0.00  0.00    +0.000 A 
ATOM      3  C   UNL     1      47.477   8.862  12.935  0.00  0.00    +0.000 A 
ATOM      4  C   UNL     1      46.087   8.945  12.863  0.00  0.00    +0.000 A 
ATOM      5  C   UNL     1      45.333   7.823  12.516  0.00  0.00    +0.000 A 
ATOM      6  C   UNL     1      45.964   6.610  12.244  0.00  0.00    +0.000 A 
ATOM      7  C   UNL     1      47.360   6.534  12.319  0.00  0.00    +0.000 A 
BRANCH   2   8
ATOM      8  C   UNL     1      49.635   7.571  12.720  0.00  0.00    +0.000 C 
BRANCH   8   9
ATOM      9  N   UNL     1      50.103   7.203  14.051  0.00  0.00    +0.000 NA
ATOM     10  H   UNL     1      50.814   7.866  14.350  0.00  0.00    +0.000 HD
ATOM     11  H   UNL     1      50.560   6.294  13.995  0.00  0.00    +0.000 HD
ENDBRANCH   8   9
ENDBRANCH   2   8
ENDBRANCH   1   6
BRANCH   1  12
ATOM     12  C   UNL     1      44.690   5.364  10.634  0.00  0.00    +0.000 C 
BRANCH  12  13
ATOM     13  C   UNL     1      45.700   5.337   9.487  0.00  0.00    +0.000 C 
BRANCH  13  14
ATOM     14  O   UNL     1      45.156   4.565   8.419  0.00  0.00    +0.000 OA
BRANCH  14  15
ATOM     15  C   UNL     1      45.909   3.523   7.941  0.00  0.00    +0.000 A 
ATOM     16  C   UNL     1      46.926   3.651   6.989  0.00  0.00    +0.000 A 
ATOM     17  C   UNL     1      47.652   2.531   6.568  0.00  0.00    +0.000 A 
ATOM     18  C   UNL     1      47.367   1.271   7.092  0.00  0.00    +0.000 A 
ATOM     19  C   UNL     1      46.349   1.128   8.033  0.00  0.00    +0.000 A 
ATOM     20  C   UNL     1      45.623   2.247   8.454  0.00  0.00    +0.000 A 
ATOM     21 CL   UNL     1      44.369   2.005   9.621  0.00  0.00    +0.000 Cl
ENDBRANCH  14  15
ENDBRANCH  13  14
ENDBRANCH  12  13
ENDBRANCH   1  12
TORSDOF 7
ENDMDL
MODEL 5
REMARK VINA RESULT:    -5.956      3.260      6.712
REMARK INTER + INTRA:          -8.983
REMARK INTER:                  -8.652
REMARK INTRA:                  -0.332
REMARK UNBOUND:                -0.764
REMARK  Name = 
REMARK  7 active torsions:
REMARK  status: ('A' for Active; 'I' for Inactive)
REMARK    1  A    between atoms: N_1  and  C_2
REMARK    2  A    between atoms: C_2  and  C_3
REMARK    3  A    between atoms: C_7  and  O_8
REMARK    4  A    between atoms: O_8  and  C_9
REMARK    5  A    between atoms: C_9  and  C_10
REMARK    6  A    between atoms: C_10  and  O_11
REMARK    7  A    between atoms: O_11  and  C_12
REMARK                            x       y       z     vdW  Elec       q    Type
REMARK                         _______ _______ _______ _____ _____    ______ ____
ROOT
ATOM      1  O   UNL     1      45.904   5.274  11.746  0.00  0.00    +0.000 OA
ENDROOT
BRANCH   1   6
ATOM      2  C   UNL     1      46.453   8.810  12.404  0.00  0.00    +0.000 A 
ATOM      3  C   UNL     1      47.648   8.791  13.133  0.00  0.00    +0.000 A 
ATOM      4  C   UNL     1      48.286   7.582  13.413  0.00  0.00    +0.000 A 
ATOM      5  C   UNL     1      47.736   6.378  12.971  0.00  0.00    +0.000 A 
ATOM      6  C   UNL     1      46.548   6.375  12.241  0.00  0.00    +0.000 A 
ATOM      7  C   UNL     1      45.914   7.592  11.963  0.00  0.00    +0.000 A 
BRANCH   2   8
ATOM      8  C   UNL     1      45.752  10.114  12.120  0.00  0.00    +0.000 C 
BRANCH   8   9
ATOM      9  N   UNL     1      44.343  10.059  12.493  0.00  0.00    +0.000 NA
ATOM     10  H   UNL     1      44.186   9.246  13.084  0.00  0.00    +0.000 HD
ATOM     11  H   UNL     1      43.789   9.914  11.649  0.00  0.00    +0.000 HD
ENDBRANCH   8   9
ENDBRANCH   2   8
ENDBRANCH   1   6
BRANCH   1  12
ATOM     12  C   UNL     1      45.047   5.441  10.616  0.00  0.00    +0.000 C 
BRANCH  12  13
ATOM     13  C   UNL     1      45.843   5.407   9.312  0.00  0.00    +0.000 C 
BRANCH  13  14
ATOM     14  O   UNL     1      45.179   4.540   8.395  0.00  0.00    +0.000 OA
BRANCH  14  15
ATOM     15  C   UNL     1      45.885   3.470   7.909  0.00  0.00    +0.000 A 
ATOM     16  C   UNL     1      46.859   3.552   6.907  0.00  0.00    +0.000 A 
ATOM     17  C   UNL     1      47.539   2.406   6.480  0.00  0.00    +0.000 A 
ATOM     18  C   UNL     1      47.252   1.166   7.048  0.00  0.00    +0.000 A 
ATOM     19  C   UNL     1      46.278   1.069   8.040  0.00  0.00    +0.000 A 
ATOM     20  C   UNL     1      45.598   2.213   8.466  0.00  0.00    +0.000 A 
ATOM     21 CL   UNL     1      44.396   2.027   9.697  0.00  0.00    +0.000 Cl
ENDBRANCH  14  15
ENDBRANCH  13  14
ENDBRANCH  12  13
ENDBRANCH   1  12
TORSDOF 7
ENDMDL
MODEL 6
REMARK VINA RESULT:    -5.948      3.519      6.578
REMARK INTER + INTRA:          -8.972
REMARK INTER:                  -8.503
REMARK INTRA:                  -0.469
REMARK UNBOUND:                -0.764
REMARK  Name = 
REMARK  7 active torsions:
REMARK  status: ('A' for Active; 'I' for Inactive)
REMARK    1  A    between atoms: N_1  and  C_2
REMARK    2  A    between atoms: C_2  and  C_3
REMARK    3  A    between atoms: C_7  and  O_8
REMARK    4  A    between atoms: O_8  and  C_9
REMARK    5  A    between atoms: C_9  and  C_10
REMARK    6  A    between atoms: C_10  and  O_11
REMARK    7  A    between atoms: O_11  and  C_12
REMARK                            x       y       z     vdW  Elec       q    Type
REMARK                         _______ _______ _______ _____ _____    ______ ____
ROOT
ATOM      1  O   UNL     1      46.062   5.110  13.250  0.00  0.00    +0.000 OA
ENDROOT
BRANCH   1   6
ATOM      2  C   UNL     1      47.898   4.401  16.310  0.00  0.00    +0.000 A 
ATOM      3  C   UNL     1      48.747   5.510  16.407  0.00  0.00    +0.000 A 
ATOM      4  C   UNL     1      48.711   6.514  15.439  0.00  0.00    +0.000 A 
ATOM      5  C   UNL     1      47.829   6.421  14.362  0.00  0.00    +0.000 A 
ATOM      6  C   UNL     1      46.974   5.326  14.248  0.00  0.00    +0.000 A 
ATOM      7  C   UNL     1      47.015   4.322  15.223  0.00  0.00    +0.000 A 
BRANCH   2   8
ATOM      8  C   UNL     1      47.952   3.306  17.344  0.00  0.00    +0.000 C 
BRANCH   8   9
ATOM      9  N   UNL     1      46.616   2.870  17.735  0.00  0.00    +0.000 NA
ATOM     10  H   UNL     1      46.165   3.613  18.264  0.00  0.00    +0.000 HD
ATOM     11  H   UNL     1      46.706   2.077  18.369  0.00  0.00    +0.000 HD
ENDBRANCH   8   9
ENDBRANCH   2   8
ENDBRANCH   1   6
BRANCH   1  12
ATOM     12  C   UNL     1      45.479   6.244  12.608  0.00  0.00    +0.000 C 
BRANCH  12  13
ATOM     13  C   UNL     1      45.728   6.210  11.100  0.00  0.00    +0.000 C 
BRANCH  13  14
ATOM     14  O   UNL     1      44.677   5.469  10.482  0.00  0.00    +0.000 OA
BRANCH  14  15
ATOM     15  C   UNL     1      45.032   4.449   9.637  0.00  0.00    +0.000 A 
ATOM     16  C   UNL     1      45.823   4.606   8.493  0.00  0.00    +0.000 A 
ATOM     17  C   UNL     1      46.145   3.503   7.694  0.00  0.00    +0.000 A 
ATOM     18  C   UNL     1      45.679   2.233   8.028  0.00  0.00    +0.000 A 
ATOM     19  C   UNL     1      44.883   2.064   9.159  0.00  0.00    +0.000 A 
ATOM     20  C   UNL     1      44.560   3.166   9.958  0.00  0.00    +0.000 A 
ATOM     21 CL   UNL     1      43.563   2.894  11.346  0.00  0.00    +0.000 Cl
ENDBRANCH  14  15
ENDBRANCH  13  14
ENDBRANCH  12  13
ENDBRANCH   1  12
TORSDOF 7
ENDMDL
MODEL 7
REMARK VINA RESULT:    -5.687      5.374      6.748
REMARK INTER + INTRA:          -8.612
REMARK INTER:                  -8.331
REMARK INTRA:                  -0.281
REMARK UNBOUND:                -0.764
REMARK  Name = 
REMARK  7 active torsions:
REMARK  status: ('A' for Active; 'I' for Inactive)
REMARK    1  A    between atoms: N_1  and  C_2
REMARK    2  A    between atoms: C_2  and  C_3
REMARK    3  A    between atoms: C_7  and  O_8
REMARK    4  A    between atoms: O_8  and  C_9
REMARK    5  A    between atoms: C_9  and  C_10
REMARK    6  A    between atoms: C_10  and  O_11
REMARK    7  A    between atoms: O_11  and  C_12
REMARK                            x       y       z     vdW  Elec       q    Type
REMARK                         _______ _______ _______ _____ _____    ______ ____
ROOT
ATOM      1  O   UNL     1      47.322   3.145  14.493  0.00  0.00    +0.000 OA
ENDROOT
BRANCH   1   6
ATOM      2  C   UNL     1      45.037   3.875  11.758  0.00  0.00    +0.000 A 
ATOM      3  C   UNL     1      45.268   5.238  11.538  0.00  0.00    +0.000 A 
ATOM      4  C   UNL     1      46.200   5.930  12.312  0.00  0.00    +0.000 A 
ATOM      5  C   UNL     1      46.909   5.270  13.316  0.00  0.00    +0.000 A 
ATOM      6  C   UNL     1      46.696   3.913  13.549  0.00  0.00    +0.000 A 
ATOM      7  C   UNL     1      45.760   3.223  12.769  0.00  0.00    +0.000 A 
BRANCH   2   8
ATOM      8  C   UNL     1      44.014   3.131  10.937  0.00  0.00    +0.000 C 
BRANCH   8   9
ATOM      9  N   UNL     1      43.156   2.299  11.773  0.00  0.00    +0.000 NA
ATOM     10  H   UNL     1      42.256   2.759  11.888  0.00  0.00    +0.000 HD
ATOM     11  H   UNL     1      43.570   2.237  12.702  0.00  0.00    +0.000 HD
ENDBRANCH   8   9
ENDBRANCH   2   8
ENDBRANCH   1   6
BRANCH   1  12
ATOM     12  C   UNL     1      47.421   3.652  15.824  0.00  0.00    +0.000 C 
BRANCH  12  13
ATOM     13  C   UNL     1      48.392   2.819  16.660  0.00  0.00    +0.000 C 
BRANCH  13  14
ATOM     14  O   UNL     1      49.508   3.634  17.009  0.00  0.00    +0.000 OA
BRANCH  14  15
ATOM     15  C   UNL     1      50.677   3.000  17.345  0.00  0.00    +0.000 A 
ATOM     16  C   UNL     1      50.871   1.615  17.290  0.00  0.00    +0.000 A 
ATOM     17  C   UNL     1      52.104   1.055  17.642  0.00  0.00    +0.000 A 
ATOM     18  C   UNL     1      53.155   1.872  18.055  0.00  0.00    +0.000 A 
ATOM     19  C   UNL     1      52.972   3.252  18.124  0.00  0.00    +0.000 A 
ATOM     20  C   UNL     1      51.739   3.812  17.773  0.00  0.00    +0.000 A 
ATOM     21 CL   UNL     1      51.572   5.531  17.884  0.00  0.00    +0.000 Cl
ENDBRANCH  14  15
ENDBRANCH  13  14
ENDBRANCH  12  13
ENDBRANCH   1  12
TORSDOF 7
ENDMDL
MODEL 8
REMARK VINA RESULT:    -5.539      2.566      3.960
REMARK INTER + INTRA:          -8.407
REMARK INTER:                  -7.506
REMARK INTRA:                  -0.901
REMARK UNBOUND:                -0.764
REMARK  Name = 
REMARK  7 active torsions:
REMARK  status: ('A' for Active; 'I' for Inactive)
REMARK    1  A    between atoms: N_1  and  C_2
REMARK    2  A    between atoms: C_2  and  C_3
REMARK    3  A    between atoms: C_7  and  O_8
REMARK    4  A    between atoms: O_8  and  C_9
REMARK    5  A    between atoms: C_9  and  C_10
REMARK    6  A    between atoms: C_10  and  O_11
REMARK    7  A    between atoms: O_11  and  C_12
REMARK                            x       y       z     vdW  Elec       q    Type
REMARK                         _______ _______ _______ _____ _____    ______ ____
ROOT
ATOM      1  O   UNL     1      45.610   3.927  13.806  0.00  0.00    +0.000 OA
ENDROOT
BRANCH   1   6
ATOM      2  C   UNL     1      44.220   4.462  10.487  0.00  0.00    +0.000 A 
ATOM      3  C   UNL     1      43.025   5.133  10.774  0.00  0.00    +0.000 A 
ATOM      4  C   UNL     1      42.672   5.414  12.094  0.00  0.00    +0.000 A 
ATOM      5  C   UNL     1      43.506   5.026  13.143  0.00  0.00    +0.000 A 
ATOM      6  C   UNL     1      44.701   4.359  12.879  0.00  0.00    +0.000 A 
ATOM      7  C   UNL     1      45.050   4.081  11.552  0.00  0.00    +0.000 A 
BRANCH   2   8
ATOM      8  C   UNL     1      44.591   4.139   9.062  0.00  0.00    +0.000 C 
BRANCH   8   9
ATOM      9  N   UNL     1      45.598   5.061   8.547  0.00  0.00    +0.000 NA
ATOM     10  H   UNL     1      45.169   5.669   7.854  0.00  0.00    +0.000 HD
ATOM     11  H   UNL     1      46.311   4.522   8.058  0.00  0.00    +0.000 HD
ENDBRANCH   8   9
ENDBRANCH   2   8
ENDBRANCH   1   6
BRANCH   1  12
ATOM     12  C   UNL     1      46.983   4.273  13.622  0.00  0.00    +0.000 C 
BRANCH  12  13
ATOM     13  C   UNL     1      47.197   5.778  13.779  0.00  0.00    +0.000 C 
BRANCH  13  14
ATOM     14  O   UNL     1      47.375   6.350  12.485  0.00  0.00    +0.000 OA
BRANCH  14  15
ATOM     15  C   UNL     1      46.867   7.607  12.272  0.00  0.00    +0.000 A 
ATOM     16  C   UNL     1      45.505   7.900  12.142  0.00  0.00    +0.000 A 
ATOM     17  C   UNL     1      45.076   9.216  11.937  0.00  0.00    +0.000 A 
ATOM     18  C   UNL     1      46.005  10.252  11.858  0.00  0.00    +0.000 A 
ATOM     19  C   UNL     1      47.365   9.973  11.976  0.00  0.00    +0.000 A 
ATOM     20  C   UNL     1      47.793   8.658  12.180  0.00  0.00    +0.000 A 
ATOM     21 CL   UNL     1      49.495   8.374  12.313  0.00  0.00    +0.000 Cl
ENDBRANCH  14  15
ENDBRANCH  13  14
ENDBRANCH  12  13
ENDBRANCH   1  12
TORSDOF 7
ENDMDL
MODEL 9
REMARK VINA RESULT:    -5.367      4.001      7.002
REMARK INTER + INTRA:          -8.170
REMARK INTER:                  -7.761
REMARK INTRA:                  -0.409
REMARK UNBOUND:                -0.764
REMARK  Name = 
REMARK  7 active torsions:
REMARK  status: ('A' for Active; 'I' for Inactive)
REMARK    1  A    between atoms: N_1  and  C_2
REMARK    2  A    between atoms: C_2  and  C_3
REMARK    3  A    between atoms: C_7  and  O_8
REMARK    4  A    between atoms: O_8  and  C_9
REMARK    5  A    between atoms: C_9  and  C_10
REMARK    6  A    between atoms: C_10  and  O_11
REMARK    7  A    between atoms: O_11  and  C_12
REMARK                            x       y       z     vdW  Elec       q    Type
REMARK                         _______ _______ _______ _____ _____    ______ ____
ROOT
ATOM      1  O   UNL     1      45.794   8.422  11.830  0.00  0.00    +0.000 OA
ENDROOT
BRANCH   1   6
ATOM      2  C   UNL     1      42.941  10.459  10.855  0.00  0.00    +0.000 A 
ATOM      3  C   UNL     1      43.437  11.758  11.022  0.00  0.00    +0.000 A 
ATOM      4  C   UNL     1      44.743  11.963  11.467  0.00  0.00    +0.000 A 
ATOM      5  C   UNL     1      45.568  10.875  11.753  0.00  0.00    +0.000 A 
ATOM      6  C   UNL     1      45.095   9.574  11.591  0.00  0.00    +0.000 A 
ATOM      7  C   UNL     1      43.783   9.374  11.144  0.00  0.00    +0.000 A 
BRANCH   2   8
ATOM      8  C   UNL     1      41.523  10.236  10.395  0.00  0.00    +0.000 C 
BRANCH   8   9
ATOM      9  N   UNL     1      40.753   9.481  11.377  0.00  0.00    +0.000 NA
ATOM     10  H   UNL     1      39.760   9.629  11.207  0.00  0.00    +0.000 HD
ATOM     11  H   UNL     1      40.947   9.859  12.303  0.00  0.00    +0.000 HD
ENDBRANCH   8   9
ENDBRANCH   2   8
ENDBRANCH   1   6
BRANCH   1  12
ATOM     12  C   UNL     1      45.059   7.228  12.102  0.00  0.00    +0.000 C 
BRANCH  12  13
ATOM     13  C   UNL     1      45.660   6.033  11.364  0.00  0.00    +0.000 C 
BRANCH  13  14
ATOM     14  O   UNL     1      44.643   5.433  10.564  0.00  0.00    +0.000 OA
BRANCH  14  15
ATOM     15  C   UNL     1      45.023   4.449   9.687  0.00  0.00    +0.000 A 
ATOM     16  C   UNL     1      45.818   4.661   8.555  0.00  0.00    +0.000 A 
ATOM     17  C   UNL     1      46.166   3.593   7.720  0.00  0.00    +0.000 A 
ATOM     18  C   UNL     1      45.722   2.303   8.007  0.00  0.00    +0.000 A 
ATOM     19  C   UNL     1      44.922   2.080   9.126  0.00  0.00    +0.000 A 
ATOM     20  C   UNL     1      44.573   3.147   9.960  0.00  0.00    +0.000 A 
ATOM     21 CL   UNL     1      43.573   2.808  11.331  0.00  0.00    +0.000 Cl
ENDBRANCH  14  15
ENDBRANCH  13  14
ENDBRANCH  12  13
ENDBRANCH   1  12
TORSDOF 7
ENDMDL
