MODEL 1
REMARK VINA RESULT:    -6.620      0.000      0.000
REMARK INTER + INTRA:          -9.965
REMARK INTER:                  -8.748
REMARK INTRA:                  -1.217
REMARK UNBOUND:                -1.217
REMARK  Name = 
REMARK  6 active torsions:
REMARK  status: ('A' for Active; 'I' for Inactive)
REMARK    1  A    between atoms: C_2  and  C_19
REMARK    2  A    between atoms: N_3  and  C_4
REMARK    3  A    between atoms: C_4  and  C_5
REMARK    4  A    between atoms: C_8  and  C_9
REMARK    5  A    between atoms: C_9  and  N_10
REMARK    6  A    between atoms: C_13  and  O_14
REMARK                            x       y       z     vdW  Elec       q    Type
REMARK                         _______ _______ _______ _____ _____    ______ ____
ROOT
ATOM      1  C   UNL     1      49.532   8.278  14.020  0.00  0.00    +0.000 C 
ENDROOT
BRANCH   1   2
ATOM      2  C   UNL     1      48.246   8.025  13.280  0.00  0.00    +0.000 A 
ATOM      3  C   UNL     1      48.200   7.051  12.275  0.00  0.00    +0.000 A 
ATOM      4  C   UNL     1      47.007   6.775  11.598  0.00  0.00    +0.000 A 
ATOM      5  C   UNL     1      45.834   7.484  11.892  0.00  0.00    +0.000 A 
ATOM      6  C   UNL     1      45.893   8.486  12.876  0.00  0.00    +0.000 A 
ATOM      7  C   UNL     1      47.085   8.756  13.561  0.00  0.00    +0.000 A 
BRANCH   5   8
ATOM      8  C   UNL     1      44.541   7.200  11.145  0.00  0.00    +0.000 C 
BRANCH   8   9
ATOM      9  N   UNL     1      43.876   5.907  11.405  0.00  0.00    +0.000 NA
ATOM     10  C   UNL     1      43.880   5.537  12.823  0.00  0.00    +0.000 C 
ATOM     11  C   UNL     1      43.238   4.181  13.114  0.00  0.00    +0.000 C 
ATOM     12  C   UNL     1      43.766   3.083  12.202  0.00  0.00    +0.000 C 
ATOM     13  C   UNL     1      43.649   3.503  10.744  0.00  0.00    +0.000 C 
ATOM     14  C   UNL     1      44.311   4.856  10.484  0.00  0.00    +0.000 C 
BRANCH  12  15
ATOM     15  O   UNL     1      45.115   2.752  12.528  0.00  0.00    +0.000 OA
ATOM     16  H   UNL     1      45.629   2.686  11.705  0.00  0.00    +0.000 HD
ENDBRANCH  12  15
ENDBRANCH   8   9
ENDBRANCH   5   8
ENDBRANCH   1   2
BRANCH   1  19
ATOM     17  O   UNL     1      48.715   8.721  16.626  0.00  0.00    +0.000 OA
ATOM     18  C   UNL     1      49.220   7.634  16.354  0.00  0.00    +0.000 C 
ATOM     19  N   UNL     1      49.716   7.350  15.106  0.00  0.00    +0.000 N 
ATOM     20  H   UNL     1      49.888   6.382  14.850  0.00  0.00    +0.000 HD
BRANCH  18  21
ATOM     21  C   UNL     1      49.368   6.576  17.360  0.00  0.00    +0.000 A 
ATOM     22  C   UNL     1      50.089   6.826  18.523  0.00  0.00    +0.000 A 
ATOM     23  S   UNL     1      50.156   5.480  19.571  0.00  0.00    +0.000 S 
ATOM     24  C   UNL     1      49.193   4.547  18.527  0.00  0.00    +0.000 A 
ATOM     25  N   UNL     1      48.837   3.275  18.847  0.00  0.00    +0.000 NA
ATOM     26  C   UNL     1      48.070   2.694  17.978  0.00  0.00    +0.000 A 
ATOM     27  N   UNL     1      47.645   3.272  16.810  0.00  0.00    +0.000 N 
ATOM     28  C   UNL     1      48.017   4.533  16.420  0.00  0.00    +0.000 A 
ATOM     29  O   UNL     1      47.658   4.998  15.340  0.00  0.00    +0.000 OA
ATOM     30  C   UNL     1      48.845   5.235  17.383  0.00  0.00    +0.000 A 
ATOM     31  H   UNL     1      47.066   2.757  16.162  0.00  0.00    +0.000 HD
ENDBRANCH  18  21
ENDBRANCH   1  19
TORSDOF 6
ENDMDL
MODEL 2
REMARK VINA RESULT:    -6.472      3.041      7.465
REMARK INTER + INTRA:          -9.770
REMARK INTER:                  -8.878
REMARK INTRA:                  -0.892
REMARK UNBOUND:                -1.217
REMARK  Name = 
REMARK  6 active torsions:
REMARK  status: ('A' for Active; 'I' for Inactive)
REMARK    1  A    between atoms: C_2  and  C_19
REMARK    2  A    between atoms: N_3  and  C_4
REMARK    3  A    between atoms: C_4  and  C_5
REMARK    4  A    between atoms: C_8  and  C_9
REMARK    5  A    between atoms: C_9  and  N_10
REMARK    6  A    between atoms: C_13  and  O_14
REMARK                            x       y       z     vdW  Elec       q    Type
REMARK                         _______ _______ _______ _____ _____    ______ ____
ROOT
ATOM      1  C   UNL     1      47.674   7.762  11.870  0.00  0.00    +0.000 C 
ENDROOT
BRANCH   1   2
ATOM      2  C   UNL     1      48.267   7.930  13.244  0.00  0.00    +0.000 A 
ATOM      3  C   UNL     1      47.613   8.725  14.193  0.00  0.00    +0.000 A 
ATOM      4  C   UNL     1      48.129   8.868  15.486  0.00  0.00    +0.000 A 
ATOM      5  C   UNL     1      49.325   8.238  15.855  0.00  0.00    +0.000 A 
ATOM      6  C   UNL     1      49.996   7.469  14.889  0.00  0.00    +0.000 A 
ATOM      7  C   UNL     1      49.476   7.319  13.597  0.00  0.00    +0.000 A 
BRANCH   5   8
ATOM      8  C   UNL     1      49.897   8.405  17.254  0.00  0.00    +0.000 C 
BRANCH   8   9
ATOM      9  N   UNL     1      49.400   7.495  18.306  0.00  0.00    +0.000 NA
ATOM     10  C   UNL     1      49.399   6.089  17.891  0.00  0.00    +0.000 C 
ATOM     11  C   UNL     1      48.847   5.130  18.944  0.00  0.00    +0.000 C 
ATOM     12  C   UNL     1      47.511   5.595  19.506  0.00  0.00    +0.000 C 
ATOM     13  C   UNL     1      47.613   7.032  19.997  0.00  0.00    +0.000 C 
ATOM     14  C   UNL     1      48.157   7.967  18.917  0.00  0.00    +0.000 C 
BRANCH  12  15
ATOM     15  O   UNL     1      46.473   5.462  18.536  0.00  0.00    +0.000 OA
ATOM     16  H   UNL     1      46.010   4.620  18.687  0.00  0.00    +0.000 HD
ENDBRANCH  12  15
ENDBRANCH   8   9
ENDBRANCH   5   8
ENDBRANCH   1   2
BRANCH   1  19
ATOM     17  O   UNL     1      44.969   7.394  12.326  0.00  0.00    +0.000 OA
ATOM     18  C   UNL     1      45.626   6.435  11.925  0.00  0.00    +0.000 C 
ATOM     19  N   UNL     1      46.983   6.505  11.736  0.00  0.00    +0.000 N 
ATOM     20  H   UNL     1      47.442   5.793  11.176  0.00  0.00    +0.000 HD
BRANCH  18  21
ATOM     21  C   UNL     1      45.006   5.131  11.660  0.00  0.00    +0.000 A 
ATOM     22  C   UNL     1      44.308   4.481  12.673  0.00  0.00    +0.000 A 
ATOM     23  S   UNL     1      43.663   2.979  12.181  0.00  0.00    +0.000 S 
ATOM     24  C   UNL     1      44.256   3.175  10.602  0.00  0.00    +0.000 A 
ATOM     25  N   UNL     1      44.022   2.242   9.641  0.00  0.00    +0.000 NA
ATOM     26  C   UNL     1      44.500   2.539   8.474  0.00  0.00    +0.000 A 
ATOM     27  N   UNL     1      45.206   3.679   8.191  0.00  0.00    +0.000 N 
ATOM     28  C   UNL     1      45.511   4.625   9.136  0.00  0.00    +0.000 A 
ATOM     29  O   UNL     1      46.191   5.610   8.856  0.00  0.00    +0.000 OA
ATOM     30  C   UNL     1      44.960   4.352  10.451  0.00  0.00    +0.000 A 
ATOM     31  H   UNL     1      45.574   3.841   7.263  0.00  0.00    +0.000 HD
ENDBRANCH  18  21
ENDBRANCH   1  19
TORSDOF 6
ENDMDL
MODEL 3
REMARK VINA RESULT:    -6.408      3.872      8.022
REMARK INTER + INTRA:          -9.685
REMARK INTER:                  -8.983
REMARK INTRA:                  -0.702
REMARK UNBOUND:                -1.217
REMARK  Name = 
REMARK  6 active torsions:
REMARK  status: ('A' for Active; 'I' for Inactive)
REMARK    1  A    between atoms: C_2  and  C_19
REMARK    2  A    between atoms: N_3  and  C_4
REMARK    3  A    between atoms: C_4  and  C_5
REMARK    4  A    between atoms: C_8  and  C_9
REMARK    5  A    between atoms: C_9  and  N_10
REMARK    6  A    between atoms: C_13  and  O_14
REMARK                            x       y       z     vdW  Elec       q    Type
REMARK                         _______ _______ _______ _____ _____    ______ ____
ROOT
ATOM      1  C   UNL     1      48.999   7.869  15.260  0.00  0.00    +0.000 C 
ENDROOT
BRANCH   1   2
ATOM      2  C   UNL     1      49.514   6.699  16.057  0.00  0.00    +0.000 A 
ATOM      3  C   UNL     1      48.619   5.741  16.546  0.00  0.00    +0.000 A 
ATOM      4  C   UNL     1      49.079   4.628  17.258  0.00  0.00    +0.000 A 
ATOM      5  C   UNL     1      50.445   4.458  17.521  0.00  0.00    +0.000 A 
ATOM      6  C   UNL     1      51.337   5.441  17.059  0.00  0.00    +0.000 A 
ATOM      7  C   UNL     1      50.878   6.551  16.338  0.00  0.00    +0.000 A 
BRANCH   5   8
ATOM      8  C   UNL     1      50.946   3.259  18.311  0.00  0.00    +0.000 C 
BRANCH   8   9
ATOM      9  N   UNL     1      52.228   2.657  17.892  0.00  0.00    +0.000 NA
ATOM     10  C   UNL     1      52.118   1.225  17.602  0.00  0.00    +0.000 C 
ATOM     11  C   UNL     1      53.440   0.567  17.209  0.00  0.00    +0.000 C 
ATOM     12  C   UNL     1      54.564   0.903  18.179  0.00  0.00    +0.000 C 
ATOM     13  C   UNL     1      54.674   2.409  18.363  0.00  0.00    +0.000 C 
ATOM     14  C   UNL     1      53.339   3.035  18.767  0.00  0.00    +0.000 C 
BRANCH  12  15
ATOM     15  O   UNL     1      54.369   0.251  19.434  0.00  0.00    +0.000 OA
ATOM     16  H   UNL     1      55.000  -0.486  19.505  0.00  0.00    +0.000 HD
ENDBRANCH  12  15
ENDBRANCH   8   9
ENDBRANCH   5   8
ENDBRANCH   1   2
BRANCH   1  19
ATOM     17  O   UNL     1      48.949   6.425  12.900  0.00  0.00    +0.000 OA
ATOM     18  C   UNL     1      47.877   6.760  13.398  0.00  0.00    +0.000 C 
ATOM     19  N   UNL     1      47.804   7.534  14.530  0.00  0.00    +0.000 N 
ATOM     20  H   UNL     1      46.931   7.576  15.046  0.00  0.00    +0.000 HD
BRANCH  18  21
ATOM     21  C   UNL     1      46.592   6.388  12.791  0.00  0.00    +0.000 A 
ATOM     22  C   UNL     1      45.811   7.363  12.180  0.00  0.00    +0.000 A 
ATOM     23  S   UNL     1      44.356   6.746  11.536  0.00  0.00    +0.000 S 
ATOM     24  C   UNL     1      44.748   5.164  12.013  0.00  0.00    +0.000 A 
ATOM     25  N   UNL     1      43.923   4.120  11.734  0.00  0.00    +0.000 NA
ATOM     26  C   UNL     1      44.364   2.965  12.122  0.00  0.00    +0.000 A 
ATOM     27  N   UNL     1      45.551   2.769  12.781  0.00  0.00    +0.000 N 
ATOM     28  C   UNL     1      46.392   3.794  13.129  0.00  0.00    +0.000 A 
ATOM     29  O   UNL     1      47.422   3.585  13.766  0.00  0.00    +0.000 OA
ATOM     30  C   UNL     1      45.955   5.103  12.679  0.00  0.00    +0.000 A 
ATOM     31  H   UNL     1      45.827   1.844  13.079  0.00  0.00    +0.000 HD
ENDBRANCH  18  21
ENDBRANCH   1  19
TORSDOF 6
ENDMDL
MODEL 4
REMARK VINA RESULT:    -6.393      5.088      7.579
REMARK INTER + INTRA:          -9.665
REMARK INTER:                  -8.972
REMARK INTRA:                  -0.692
REMARK UNBOUND:                -1.217
REMARK  Name = 
REMARK  6 active torsions:
REMARK  status: ('A' for Active; 'I' for Inactive)
REMARK    1  A    between atoms: C_2  and  C_19
REMARK    2  A    between atoms: N_3  and  C_4
REMARK    3  A    between atoms: C_4  and  C_5
REMARK    4  A    between atoms: C_8  and  C_9
REMARK    5  A    between atoms: C_9  and  N_10
REMARK    6  A    between atoms: C_13  and  O_14
REMARK                            x       y       z     vdW  Elec       q    Type
REMARK                         _______ _______ _______ _____ _____    ______ ____
ROOT
ATOM      1  C   UNL     1      45.484   8.737  11.716  0.00  0.00    +0.000 C 
ENDROOT
BRANCH   1   2
ATOM      2  C   UNL     1      44.412   9.734  11.365  0.00  0.00    +0.000 A 
ATOM      3  C   UNL     1      43.262   9.311  10.687  0.00  0.00    +0.000 A 
ATOM      4  C   UNL     1      42.238  10.214  10.381  0.00  0.00    +0.000 A 
ATOM      5  C   UNL     1      42.349  11.568  10.724  0.00  0.00    +0.000 A 
ATOM      6  C   UNL     1      43.519  11.995  11.374  0.00  0.00    +0.000 A 
ATOM      7  C   UNL     1      44.542  11.090  11.688  0.00  0.00    +0.000 A 
BRANCH   5   8
ATOM      8  C   UNL     1      41.245  12.555  10.377  0.00  0.00    +0.000 C 
BRANCH   8   9
ATOM      9  N   UNL     1      39.876  12.228  10.823  0.00  0.00    +0.000 NA
ATOM     10  C   UNL     1      39.827  11.725  12.198  0.00  0.00    +0.000 C 
ATOM     11  C   UNL     1      38.427  11.337  12.670  0.00  0.00    +0.000 C 
ATOM     12  C   UNL     1      37.709  10.439  11.672  0.00  0.00    +0.000 C 
ATOM     13  C   UNL     1      37.723  11.068  10.287  0.00  0.00    +0.000 C 
ATOM     14  C   UNL     1      39.139  11.433   9.840  0.00  0.00    +0.000 C 
BRANCH  12  15
ATOM     15  O   UNL     1      38.291   9.136  11.645  0.00  0.00    +0.000 OA
ATOM     16  H   UNL     1      37.971   8.635  12.414  0.00  0.00    +0.000 HD
ENDBRANCH  12  15
ENDBRANCH   8   9
ENDBRANCH   5   8
ENDBRANCH   1   2
BRANCH   1  19
ATOM     17  O   UNL     1      46.034   6.506  13.258  0.00  0.00    +0.000 OA
ATOM     18  C   UNL     1      45.361   6.356  12.241  0.00  0.00    +0.000 C 
ATOM     19  N   UNL     1      45.094   7.391  11.381  0.00  0.00    +0.000 N 
ATOM     20  H   UNL     1      44.341   7.293  10.706  0.00  0.00    +0.000 HD
BRANCH  18  21
ATOM     21  C   UNL     1      44.826   5.045  11.854  0.00  0.00    +0.000 A 
ATOM     22  C   UNL     1      44.095   4.299  12.773  0.00  0.00    +0.000 A 
ATOM     23  S   UNL     1      43.561   2.804  12.146  0.00  0.00    +0.000 S 
ATOM     24  C   UNL     1      44.249   3.129  10.627  0.00  0.00    +0.000 A 
ATOM     25  N   UNL     1      44.127   2.251   9.597  0.00  0.00    +0.000 NA
ATOM     26  C   UNL     1      44.667   2.644   8.486  0.00  0.00    +0.000 A 
ATOM     27  N   UNL     1      45.332   3.832   8.324  0.00  0.00    +0.000 N 
ATOM     28  C   UNL     1      45.524   4.727   9.345  0.00  0.00    +0.000 A 
ATOM     29  O   UNL     1      46.171   5.758   9.175  0.00  0.00    +0.000 OA
ATOM     30  C   UNL     1      44.901   4.345  10.599  0.00  0.00    +0.000 A 
ATOM     31  H   UNL     1      45.752   4.070   7.437  0.00  0.00    +0.000 HD
ENDBRANCH  18  21
ENDBRANCH   1  19
TORSDOF 6
ENDMDL
MODEL 5
REMARK VINA RESULT:    -6.279      3.270      7.964
REMARK INTER + INTRA:          -9.514
REMARK INTER:                  -8.640
REMARK INTRA:                  -0.874
REMARK UNBOUND:                -1.217
REMARK  Name = 
REMARK  6 active torsions:
REMARK  status: ('A' for Active; 'I' for Inactive)
REMARK    1  A    between atoms: C_2  and  C_19
REMARK    2  A    between atoms: N_3  and  C_4
REMARK    3  A    between atoms: C_4  and  C_5
REMARK    4  A    between atoms: C_8  and  C_9
REMARK    5  A    between atoms: C_9  and  N_10
REMARK    6  A    between atoms: C_13  and  O_14
REMARK                            x       y       z     vdW  Elec       q    Type
REMARK                         _______ _______ _______ _____ _____    ______ ____
ROOT
ATOM      1  C   UNL     1      47.871   4.163  16.098  0.00  0.00    +0.000 C 
ENDROOT
BRANCH   1   2
ATOM      2  C   UNL     1      48.080   5.104  17.254  0.00  0.00    +0.000 A 
ATOM      3  C   UNL     1      49.264   5.846  17.343  0.00  0.00    +0.000 A 
ATOM      4  C   UNL     1      49.465   6.752  18.390  0.00  0.00    +0.000 A 
ATOM      5  C   UNL     1      48.497   6.921  19.389  0.00  0.00    +0.000 A 
ATOM      6  C   UNL     1      47.325   6.148  19.316  0.00  0.00    +0.000 A 
ATOM      7  C   UNL     1      47.120   5.248  18.262  0.00  0.00    +0.000 A 
BRANCH   5   8
ATOM      8  C   UNL     1      48.721   7.891  20.539  0.00  0.00    +0.000 C 
BRANCH   8   9
ATOM      9  N   UNL     1      48.385   9.310  20.305  0.00  0.00    +0.000 NA
ATOM     10  C   UNL     1      47.000   9.506  19.869  0.00  0.00    +0.000 C 
ATOM     11  C   UNL     1      46.640  10.962  19.577  0.00  0.00    +0.000 C 
ATOM     12  C   UNL     1      47.659  11.640  18.673  0.00  0.00    +0.000 C 
ATOM     13  C   UNL     1      49.063  11.470  19.234  0.00  0.00    +0.000 C 
ATOM     14  C   UNL     1      49.397  10.002  19.504  0.00  0.00    +0.000 C 
BRANCH  12  15
ATOM     15  O   UNL     1      47.580  11.132  17.341  0.00  0.00    +0.000 OA
ATOM     16  H   UNL     1      48.482  11.016  16.997  0.00  0.00    +0.000 HD
ENDBRANCH  12  15
ENDBRANCH   8   9
ENDBRANCH   5   8
ENDBRANCH   1   2
BRANCH   1  19
ATOM     17  O   UNL     1      48.483   5.761  13.924  0.00  0.00    +0.000 OA
ATOM     18  C   UNL     1      47.315   5.411  14.075  0.00  0.00    +0.000 C 
ATOM     19  N   UNL     1      46.906   4.676  15.159  0.00  0.00    +0.000 N 
ATOM     20  H   UNL     1      46.010   4.198  15.124  0.00  0.00    +0.000 HD
BRANCH  18  21
ATOM     21  C   UNL     1      46.263   5.794  13.125  0.00  0.00    +0.000 A 
ATOM     22  C   UNL     1      46.038   7.139  12.851  0.00  0.00    +0.000 A 
ATOM     23  S   UNL     1      44.777   7.390  11.728  0.00  0.00    +0.000 S 
ATOM     24  C   UNL     1      44.530   5.719  11.545  0.00  0.00    +0.000 A 
ATOM     25  N   UNL     1      43.594   5.237  10.685  0.00  0.00    +0.000 NA
ATOM     26  C   UNL     1      43.539   3.944  10.618  0.00  0.00    +0.000 A 
ATOM     27  N   UNL     1      44.328   3.095  11.350  0.00  0.00    +0.000 N 
ATOM     28  C   UNL     1      45.250   3.532  12.266  0.00  0.00    +0.000 A 
ATOM     29  O   UNL     1      45.902   2.739  12.942  0.00  0.00    +0.000 OA
ATOM     30  C   UNL     1      45.373   4.976  12.345  0.00  0.00    +0.000 A 
ATOM     31  H   UNL     1      44.219   2.093  11.269  0.00  0.00    +0.000 HD
ENDBRANCH  18  21
ENDBRANCH   1  19
TORSDOF 6
ENDMDL
MODEL 6
REMARK VINA RESULT:    -6.256      3.375      4.191
REMARK INTER + INTRA:          -9.485
REMARK INTER:                  -8.822
REMARK INTRA:                  -0.663
REMARK UNBOUND:                -1.217
REMARK  Name = 
REMARK  6 active torsions:
REMARK  status: ('A' for Active; 'I' for Inactive)
REMARK    1  A    between atoms: C_2  and  C_19
REMARK    2  A    between atoms: N_3  and  C_4
REMARK    3  A    between atoms: C_4  and  C_5
REMARK    4  A    between atoms: C_8  and  C_9
REMARK    5  A    between atoms: C_9  and  N_10
REMARK    6  A    between atoms: C_13  and  O_14
REMARK                            x       y       z     vdW  Elec       q    Type
REMARK                         _______ _______ _______ _____ _____    ______ ____
ROOT
ATOM      1  C   UNL     1      49.144   5.617  17.773  0.00  0.00    +0.000 C 
ENDROOT
BRANCH   1   2
ATOM      2  C   UNL     1      48.572   5.678  16.381  0.00  0.00    +0.000 A 
ATOM      3  C   UNL     1      47.679   4.689  15.951  0.00  0.00    +0.000 A 
ATOM      4  C   UNL     1      47.109   4.745  14.675  0.00  0.00    +0.000 A 
ATOM      5  C   UNL     1      47.437   5.778  13.787  0.00  0.00    +0.000 A 
ATOM      6  C   UNL     1      48.361   6.749  14.210  0.00  0.00    +0.000 A 
ATOM      7  C   UNL     1      48.925   6.698  15.491  0.00  0.00    +0.000 A 
BRANCH   5   8
ATOM      8  C   UNL     1      46.833   5.832  12.392  0.00  0.00    +0.000 C 
BRANCH   8   9
ATOM      9  N   UNL     1      45.517   5.191  12.196  0.00  0.00    +0.000 NA
ATOM     10  C   UNL     1      45.154   5.052  10.783  0.00  0.00    +0.000 C 
ATOM     11  C   UNL     1      43.776   4.433  10.553  0.00  0.00    +0.000 C 
ATOM     12  C   UNL     1      42.695   5.099  11.392  0.00  0.00    +0.000 C 
ATOM     13  C   UNL     1      43.104   5.127  12.858  0.00  0.00    +0.000 C 
ATOM     14  C   UNL     1      44.480   5.763  13.055  0.00  0.00    +0.000 C 
BRANCH  12  15
ATOM     15  O   UNL     1      42.416   6.415  10.917  0.00  0.00    +0.000 OA
ATOM     16  H   UNL     1      41.649   6.376  10.320  0.00  0.00    +0.000 HD
ENDBRANCH  12  15
ENDBRANCH   8   9
ENDBRANCH   5   8
ENDBRANCH   1   2
BRANCH   1  19
ATOM     17  O   UNL     1      50.488   4.854  20.069  0.00  0.00    +0.000 OA
ATOM     18  C   UNL     1      50.992   4.578  18.983  0.00  0.00    +0.000 C 
ATOM     19  N   UNL     1      50.433   4.974  17.794  0.00  0.00    +0.000 N 
ATOM     20  H   UNL     1      50.728   4.522  16.933  0.00  0.00    +0.000 HD
BRANCH  18  21
ATOM     21  C   UNL     1      52.256   3.838  18.883  0.00  0.00    +0.000 A 
ATOM     22  C   UNL     1      53.394   4.329  19.515  0.00  0.00    +0.000 A 
ATOM     23  S   UNL     1      54.766   3.339  19.285  0.00  0.00    +0.000 S 
ATOM     24  C   UNL     1      53.872   2.212  18.380  0.00  0.00    +0.000 A 
ATOM     25  N   UNL     1      54.451   1.082  17.895  0.00  0.00    +0.000 NA
ATOM     26  C   UNL     1      53.644   0.294  17.256  0.00  0.00    +0.000 A 
ATOM     27  N   UNL     1      52.314   0.551  17.046  0.00  0.00    +0.000 N 
ATOM     28  C   UNL     1      51.697   1.699  17.471  0.00  0.00    +0.000 A 
ATOM     29  O   UNL     1      50.513   1.917  17.219  0.00  0.00    +0.000 OA
ATOM     30  C   UNL     1      52.555   2.593  18.227  0.00  0.00    +0.000 A 
ATOM     31  H   UNL     1      51.743  -0.094  16.518  0.00  0.00    +0.000 HD
ENDBRANCH  18  21
ENDBRANCH   1  19
TORSDOF 6
ENDMDL
MODEL 7
REMARK VINA RESULT:    -6.231      1.757      2.258
REMARK INTER + INTRA:          -9.451
REMARK INTER:                  -8.723
REMARK INTRA:                  -0.728
REMARK UNBOUND:                -1.217
REMARK  Name = 
REMARK  6 active torsions:
REMARK  status: ('A' for Active; 'I' for Inactive)
REMARK    1  A    between atoms: C_2  and  C_19
REMARK    2  A    between atoms: N_3  and  C_4
REMARK    3  A    between atoms: C_4  and  C_5
REMARK    4  A    between atoms: C_8  and  C_9
REMARK    5  A    between atoms: C_9  and  N_10
REMARK    6  A    between atoms: C_13  and  O_14
REMARK                            x       y       z     vdW  Elec       q    Type
REMARK                         _______ _______ _______ _____ _____    ______ ____
ROOT
ATOM      1  C   UNL     1      49.913   7.752  14.438  0.00  0.00    +0.000 C 
ENDROOT
BRANCH   1   2
ATOM      2  C   UNL     1      48.615   7.609  13.687  0.00  0.00    +0.000 A 
ATOM      3  C   UNL     1      47.570   8.511  13.922  0.00  0.00    +0.000 A 
ATOM      4  C   UNL     1      46.369   8.417  13.211  0.00  0.00    +0.000 A 
ATOM      5  C   UNL     1      46.173   7.403  12.264  0.00  0.00    +0.000 A 
ATOM      6  C   UNL     1      47.212   6.479  12.056  0.00  0.00    +0.000 A 
ATOM      7  C   UNL     1      48.418   6.578  12.761  0.00  0.00    +0.000 A 
BRANCH   5   8
ATOM      8  C   UNL     1      44.862   7.288  11.502  0.00  0.00    +0.000 C 
BRANCH   8   9
ATOM      9  N   UNL     1      44.109   6.024  11.633  0.00  0.00    +0.000 NA
ATOM     10  C   UNL     1      44.044   5.538  13.014  0.00  0.00    +0.000 C 
ATOM     11  C   UNL     1      43.308   4.209  13.171  0.00  0.00    +0.000 C 
ATOM     12  C   UNL     1      43.795   3.158  12.183  0.00  0.00    +0.000 C 
ATOM     13  C   UNL     1      43.751   3.704  10.764  0.00  0.00    +0.000 C 
ATOM     14  C   UNL     1      44.506   5.028  10.637  0.00  0.00    +0.000 C 
BRANCH  12  15
ATOM     15  O   UNL     1      45.109   2.712  12.516  0.00  0.00    +0.000 OA
ATOM     16  H   UNL     1      45.326   3.020  13.413  0.00  0.00    +0.000 HD
ENDBRANCH  12  15
ENDBRANCH   8   9
ENDBRANCH   5   8
ENDBRANCH   1   2
BRANCH   1  19
ATOM     17  O   UNL     1      50.237   5.750  16.320  0.00  0.00    +0.000 OA
ATOM     18  C   UNL     1      49.943   6.876  16.716  0.00  0.00    +0.000 C 
ATOM     19  N   UNL     1      49.696   7.914  15.853  0.00  0.00    +0.000 N 
ATOM     20  H   UNL     1      49.708   8.866  16.207  0.00  0.00    +0.000 HD
BRANCH  18  21
ATOM     21  C   UNL     1      49.793   7.178  18.145  0.00  0.00    +0.000 A 
ATOM     22  C   UNL     1      50.649   8.094  18.748  0.00  0.00    +0.000 A 
ATOM     23  S   UNL     1      50.327   8.313  20.410  0.00  0.00    +0.000 S 
ATOM     24  C   UNL     1      49.017   7.233  20.358  0.00  0.00    +0.000 A 
ATOM     25  N   UNL     1      48.266   6.984  21.464  0.00  0.00    +0.000 NA
ATOM     26  C   UNL     1      47.276   6.169  21.272  0.00  0.00    +0.000 A 
ATOM     27  N   UNL     1      46.986   5.571  20.073  0.00  0.00    +0.000 N 
ATOM     28  C   UNL     1      47.742   5.751  18.944  0.00  0.00    +0.000 A 
ATOM     29  O   UNL     1      47.481   5.157  17.900  0.00  0.00    +0.000 OA
ATOM     30  C   UNL     1      48.839   6.688  19.103  0.00  0.00    +0.000 A 
ATOM     31  H   UNL     1      46.212   4.925  19.994  0.00  0.00    +0.000 HD
ENDBRANCH  18  21
ENDBRANCH   1  19
TORSDOF 6
ENDMDL
MODEL 8
REMARK VINA RESULT:    -6.120      2.090      2.323
REMARK INTER + INTRA:          -9.305
REMARK INTER:                  -8.760
REMARK INTRA:                  -0.545
REMARK UNBOUND:                -1.217
REMARK  Name = 
REMARK  6 active torsions:
REMARK  status: ('A' for Active; 'I' for Inactive)
REMARK    1  A    between atoms: C_2  and  C_19
REMARK    2  A    between atoms: N_3  and  C_4
REMARK    3  A    between atoms: C_4  and  C_5
REMARK    4  A    between atoms: C_8  and  C_9
REMARK    5  A    between atoms: C_9  and  N_10
REMARK    6  A    between atoms: C_13  and  O_14
REMARK                            x       y       z     vdW  Elec       q    Type
REMARK                         _______ _______ _______ _____ _____    ______ ____
ROOT
ATOM      1  C   UNL     1      49.109   8.027  16.363  0.00  0.00    +0.000 C 
ENDROOT
BRANCH   1   2
ATOM      2  C   UNL     1      48.442   7.646  15.067  0.00  0.00    +0.000 A 
ATOM      3  C   UNL     1      48.440   6.310  14.650  0.00  0.00    +0.000 A 
ATOM      4  C   UNL     1      47.798   5.929  13.467  0.00  0.00    +0.000 A 
ATOM      5  C   UNL     1      47.162   6.880  12.658  0.00  0.00    +0.000 A 
ATOM      6  C   UNL     1      47.196   8.226  13.062  0.00  0.00    +0.000 A 
ATOM      7  C   UNL     1      47.832   8.606  14.251  0.00  0.00    +0.000 A 
BRANCH   5   8
ATOM      8  C   UNL     1      46.478   6.472  11.362  0.00  0.00    +0.000 C 
BRANCH   8   9
ATOM      9  N   UNL     1      45.149   5.838  11.466  0.00  0.00    +0.000 NA
ATOM     10  C   UNL     1      44.750   5.569  12.850  0.00  0.00    +0.000 C 
ATOM     11  C   UNL     1      43.397   4.871  12.983  0.00  0.00    +0.000 C 
ATOM     12  C   UNL     1      43.281   3.656  12.073  0.00  0.00    +0.000 C 
ATOM     13  C   UNL     1      43.624   4.032  10.639  0.00  0.00    +0.000 C 
ATOM     14  C   UNL     1      44.988   4.716  10.539  0.00  0.00    +0.000 C 
BRANCH  12  15
ATOM     15  O   UNL     1      44.113   2.592  12.532  0.00  0.00    +0.000 OA
ATOM     16  H   UNL     1      44.911   2.971  12.938  0.00  0.00    +0.000 HD
ENDBRANCH  12  15
ENDBRANCH   8   9
ENDBRANCH   5   8
ENDBRANCH   1   2
BRANCH   1  19
ATOM     17  O   UNL     1      48.962   6.238  18.469  0.00  0.00    +0.000 OA
ATOM     18  C   UNL     1      49.957   6.205  17.748  0.00  0.00    +0.000 C 
ATOM     19  N   UNL     1      50.148   7.097  16.723  0.00  0.00    +0.000 N 
ATOM     20  H   UNL     1      50.836   6.887  16.006  0.00  0.00    +0.000 HD
BRANCH  18  21
ATOM     21  C   UNL     1      51.035   5.231  17.963  0.00  0.00    +0.000 A 
ATOM     22  C   UNL     1      52.230   5.643  18.544  0.00  0.00    +0.000 A 
ATOM     23  S   UNL     1      53.363   4.378  18.709  0.00  0.00    +0.000 S 
ATOM     24  C   UNL     1      52.280   3.244  18.054  0.00  0.00    +0.000 A 
ATOM     25  N   UNL     1      52.619   1.933  17.938  0.00  0.00    +0.000 NA
ATOM     26  C   UNL     1      51.684   1.175  17.457  0.00  0.00    +0.000 A 
ATOM     27  N   UNL     1      50.448   1.621  17.068  0.00  0.00    +0.000 N 
ATOM     28  C   UNL     1      50.077   2.940  17.117  0.00  0.00    +0.000 A 
ATOM     29  O   UNL     1      48.978   3.310  16.710  0.00  0.00    +0.000 OA
ATOM     30  C   UNL     1      51.081   3.820  17.687  0.00  0.00    +0.000 A 
ATOM     31  H   UNL     1      49.769   0.981  16.677  0.00  0.00    +0.000 HD
ENDBRANCH  18  21
ENDBRANCH   1  19
TORSDOF 6
ENDMDL
MODEL 9
REMARK VINA RESULT:    -6.090      3.029      8.556
REMARK INTER + INTRA:          -9.265
REMARK INTER:                  -8.518
REMARK INTRA:                  -0.747
REMARK UNBOUND:                -1.217
REMARK  Name = 
REMARK  6 active torsions:
REMARK  status: ('A' for Active; 'I' for Inactive)
REMARK    1  A    between atoms: C_2  and  C_19
REMARK    2  A    between atoms: N_3  and  C_4
REMARK    3  A    between atoms: C_4  and  C_5
REMARK    4  A    between atoms: C_8  and  C_9
REMARK    5  A    between atoms: C_9  and  N_10
REMARK    6  A    between atoms: C_13  and  O_14
REMARK                            x       y       z     vdW  Elec       q    Type
REMARK                         _______ _______ _______ _____ _____    ______ ____
ROOT
ATOM      1  C   UNL     1      47.282   3.367  16.835  0.00  0.00    +0.000 C 
ENDROOT
BRANCH   1   2
ATOM      2  C   UNL     1      48.683   3.530  17.364  0.00  0.00    +0.000 A 
ATOM      3  C   UNL     1      49.663   2.583  17.045  0.00  0.00    +0.000 A 
ATOM      4  C   UNL     1      50.978   2.733  17.498  0.00  0.00    +0.000 A 
ATOM      5  C   UNL     1      51.341   3.822  18.301  0.00  0.00    +0.000 A 
ATOM      6  C   UNL     1      50.346   4.752  18.648  0.00  0.00    +0.000 A 
ATOM      7  C   UNL     1      49.031   4.607  18.188  0.00  0.00    +0.000 A 
BRANCH   5   8
ATOM      8  C   UNL     1      52.766   3.978  18.810  0.00  0.00    +0.000 C 
BRANCH   8   9
ATOM      9  N   UNL     1      53.524   5.161  18.354  0.00  0.00    +0.000 NA
ATOM     10  C   UNL     1      53.460   6.280  19.298  0.00  0.00    +0.000 C 
ATOM     11  C   UNL     1      54.200   7.532  18.830  0.00  0.00    +0.000 C 
ATOM     12  C   UNL     1      53.832   7.922  17.406  0.00  0.00    +0.000 C 
ATOM     13  C   UNL     1      54.007   6.736  16.469  0.00  0.00    +0.000 C 
ATOM     14  C   UNL     1      53.246   5.504  16.959  0.00  0.00    +0.000 C 
BRANCH  12  15
ATOM     15  O   UNL     1      52.499   8.428  17.341  0.00  0.00    +0.000 OA
ATOM     16  H   UNL     1      51.940   7.779  16.880  0.00  0.00    +0.000 HD
ENDBRANCH  12  15
ENDBRANCH   8   9
ENDBRANCH   5   8
ENDBRANCH   1   2
BRANCH   1  19
ATOM     17  O   UNL     1      47.344   3.123  14.079  0.00  0.00    +0.000 OA
ATOM     18  C   UNL     1      46.938   4.179  14.559  0.00  0.00    +0.000 C 
ATOM     19  N   UNL     1      46.935   4.416  15.911  0.00  0.00    +0.000 N 
ATOM     20  H   UNL     1      46.369   5.175  16.279  0.00  0.00    +0.000 HD
BRANCH  18  21
ATOM     21  C   UNL     1      46.465   5.282  13.712  0.00  0.00    +0.000 A 
ATOM     22  C   UNL     1      47.259   6.411  13.545  0.00  0.00    +0.000 A 
ATOM     23  S   UNL     1      46.545   7.586  12.533  0.00  0.00    +0.000 S 
ATOM     24  C   UNL     1      45.185   6.605  12.258  0.00  0.00    +0.000 A 
ATOM     25  N   UNL     1      44.180   7.010  11.436  0.00  0.00    +0.000 NA
ATOM     26  C   UNL     1      43.224   6.148  11.288  0.00  0.00    +0.000 A 
ATOM     27  N   UNL     1      43.181   4.924  11.905  0.00  0.00    +0.000 N 
ATOM     28  C   UNL     1      44.143   4.492  12.780  0.00  0.00    +0.000 A 
ATOM     29  O   UNL     1      44.044   3.410  13.354  0.00  0.00    +0.000 OA
ATOM     30  C   UNL     1      45.255   5.412  12.946  0.00  0.00    +0.000 A 
ATOM     31  H   UNL     1      42.393   4.306  11.766  0.00  0.00    +0.000 HD
ENDBRANCH  18  21
ENDBRANCH   1  19
TORSDOF 6
ENDMDL
