MODEL 1
REMARK VINA RESULT:    -9.472      0.000      0.000
REMARK INTER + INTRA:         -13.496
REMARK INTER:                 -12.794
REMARK INTRA:                  -0.702
REMARK UNBOUND:                -0.702
REMARK  Name = 
REMARK  6 active torsions:
REMARK  status: ('A' for Active; 'I' for Inactive)
REMARK    1  A    between atoms: C_2  and  C_4
REMARK    2  A    between atoms: C_7  and  O_8
REMARK    3  A    between atoms: O_8  and  C_9
REMARK    4  A    between atoms: C_13  and  C_14
REMARK    5  A    between atoms: C_14  and  N_15
REMARK    6  A    between atoms: C_16  and  C_18
REMARK                            x       y       z     vdW  Elec       q    Type
REMARK                         _______ _______ _______ _____ _____    ______ ____
ROOT
ATOM      1  C   UNL     1      43.909   4.130  11.071  0.00  0.00    +0.000 A 
ATOM      2  C   UNL     1      42.867   4.460  11.926  0.00  0.00    +0.000 A 
ATOM      3  N   UNL     1      42.967   5.366  12.929  0.00  0.00    +0.000 NA
ATOM      4  C   UNL     1      44.171   5.954  13.098  0.00  0.00    +0.000 A 
ATOM      5  C   UNL     1      45.283   5.691  12.304  0.00  0.00    +0.000 A 
ATOM      6  C   UNL     1      45.118   4.805  11.235  0.00  0.00    +0.000 A 
ENDROOT
BRANCH   1   7
ATOM      7  O   UNL     1      43.663   3.203  10.090  0.00  0.00    +0.000 OA
BRANCH   7  11
ATOM      8  C   UNL     1      46.497   2.612   7.174  0.00  0.00    +0.000 A 
ATOM      9  C   UNL     1      46.255   1.546   8.028  0.00  0.00    +0.000 A 
ATOM     10  C   UNL     1      45.288   1.699   9.019  0.00  0.00    +0.000 A 
ATOM     11  C   UNL     1      44.636   2.922   9.158  0.00  0.00    +0.000 A 
ATOM     12  C   UNL     1      44.943   3.929   8.248  0.00  0.00    +0.000 A 
ATOM     13  N   UNL     1      45.866   3.816   7.260  0.00  0.00    +0.000 NA
BRANCH   8  15
ATOM     14  N   UNL     1      48.477   1.644   6.143  0.00  0.00    +0.000 NA
ATOM     15  C   UNL     1      47.485   2.472   6.049  0.00  0.00    +0.000 C 
ATOM     16  N   UNL     1      47.326   3.229   4.922  0.00  0.00    +0.000 N 
ATOM     17  H   UNL     1      49.002   1.658   5.265  0.00  0.00    +0.000 HD
ATOM     18  H   UNL     1      48.164   3.466   4.409  0.00  0.00    +0.000 HD
ATOM     19  H   UNL     1      46.690   4.015   5.050  0.00  0.00    +0.000 HD
ENDBRANCH   8  15
ENDBRANCH   7  11
ENDBRANCH   1   7
BRANCH   5  20
ATOM     20  C   UNL     1      46.601   6.351  12.575  0.00  0.00    +0.000 C 
BRANCH  20  21
ATOM     21  N   UNL     1      46.992   6.195  13.948  0.00  0.00    +0.000 N 
ATOM     22  C   UNL     1      48.294   6.362  14.340  0.00  0.00    +0.000 C 
ATOM     23  O   UNL     1      49.171   6.708  13.552  0.00  0.00    +0.000 OA
ATOM     24  H   UNL     1      46.351   5.696  14.558  0.00  0.00    +0.000 HD
BRANCH  22  25
ATOM     25  C   UNL     1      48.570   6.167  15.766  0.00  0.00    +0.000 A 
ATOM     26  C   UNL     1      49.123   7.202  16.509  0.00  0.00    +0.000 A 
ATOM     27  S   UNL     1      49.308   6.831  18.164  0.00  0.00    +0.000 S 
ATOM     28  C   UNL     1      48.708   5.255  17.934  0.00  0.00    +0.000 A 
ATOM     29  N   UNL     1      48.614   4.383  18.973  0.00  0.00    +0.000 NA
ATOM     30  C   UNL     1      48.178   3.211  18.650  0.00  0.00    +0.000 A 
ATOM     31  N   UNL     1      47.824   2.833  17.380  0.00  0.00    +0.000 N 
ATOM     32  C   UNL     1      47.865   3.690  16.308  0.00  0.00    +0.000 A 
ATOM     33  O   UNL     1      47.488   3.338  15.195  0.00  0.00    +0.000 OA
ATOM     34  C   UNL     1      48.362   5.019  16.616  0.00  0.00    +0.000 A 
ATOM     35  H   UNL     1      47.482   1.901  17.195  0.00  0.00    +0.000 HD
ENDBRANCH  22  25
ENDBRANCH  20  21
ENDBRANCH   5  20
TORSDOF 6
ENDMDL
MODEL 2
REMARK VINA RESULT:    -8.626      1.335      2.176
REMARK INTER + INTRA:         -12.353
REMARK INTER:                 -11.601
REMARK INTRA:                  -0.752
REMARK UNBOUND:                -0.702
REMARK  Name = 
REMARK  6 active torsions:
REMARK  status: ('A' for Active; 'I' for Inactive)
REMARK    1  A    between atoms: C_2  and  C_4
REMARK    2  A    between atoms: C_7  and  O_8
REMARK    3  A    between atoms: O_8  and  C_9
REMARK    4  A    between atoms: C_13  and  C_14
REMARK    5  A    between atoms: C_14  and  N_15
REMARK    6  A    between atoms: C_16  and  C_18
REMARK                            x       y       z     vdW  Elec       q    Type
REMARK                         _______ _______ _______ _____ _____    ______ ____
ROOT
ATOM      1  C   UNL     1      43.937   3.860  11.097  0.00  0.00    +0.000 A 
ATOM      2  C   UNL     1      42.794   4.170  11.821  0.00  0.00    +0.000 A 
ATOM      3  N   UNL     1      42.742   5.119  12.786  0.00  0.00    +0.000 NA
ATOM      4  C   UNL     1      43.892   5.775  13.054  0.00  0.00    +0.000 A 
ATOM      5  C   UNL     1      45.094   5.538  12.396  0.00  0.00    +0.000 A 
ATOM      6  C   UNL     1      45.087   4.603  11.356  0.00  0.00    +0.000 A 
ENDROOT
BRANCH   1   7
ATOM      7  O   UNL     1      43.842   2.883  10.138  0.00  0.00    +0.000 OA
BRANCH   7  11
ATOM      8  C   UNL     1      46.600   2.581   7.107  0.00  0.00    +0.000 A 
ATOM      9  C   UNL     1      45.945   3.798   7.231  0.00  0.00    +0.000 A 
ATOM     10  C   UNL     1      45.016   3.949   8.257  0.00  0.00    +0.000 A 
ATOM     11  C   UNL     1      44.733   2.868   9.089  0.00  0.00    +0.000 A 
ATOM     12  C   UNL     1      45.447   1.691   8.891  0.00  0.00    +0.000 A 
ATOM     13  N   UNL     1      46.371   1.508   7.913  0.00  0.00    +0.000 NA
BRANCH   8  15
ATOM     14  N   UNL     1      48.624   1.551   6.234  0.00  0.00    +0.000 NA
ATOM     15  C   UNL     1      47.657   2.394   6.055  0.00  0.00    +0.000 C 
ATOM     16  N   UNL     1      47.589   3.126   4.901  0.00  0.00    +0.000 N 
ATOM     17  H   UNL     1      49.207   1.533   5.394  0.00  0.00    +0.000 HD
ATOM     18  H   UNL     1      48.464   3.335   4.440  0.00  0.00    +0.000 HD
ATOM     19  H   UNL     1      46.962   3.926   4.968  0.00  0.00    +0.000 HD
ENDBRANCH   8  15
ENDBRANCH   7  11
ENDBRANCH   1   7
BRANCH   5  20
ATOM     20  C   UNL     1      46.343   6.277  12.773  0.00  0.00    +0.000 C 
BRANCH  20  21
ATOM     21  N   UNL     1      46.729   5.991  14.127  0.00  0.00    +0.000 N 
ATOM     22  C   UNL     1      47.382   4.830  14.449  0.00  0.00    +0.000 C 
ATOM     23  O   UNL     1      47.718   4.014  13.595  0.00  0.00    +0.000 OA
ATOM     24  H   UNL     1      46.270   6.522  14.861  0.00  0.00    +0.000 HD
BRANCH  22  25
ATOM     25  C   UNL     1      47.715   4.648  15.865  0.00  0.00    +0.000 A 
ATOM     26  C   UNL     1      47.419   3.446  16.494  0.00  0.00    +0.000 A 
ATOM     27  S   UNL     1      47.942   3.377  18.116  0.00  0.00    +0.000 S 
ATOM     28  C   UNL     1      48.531   4.973  18.051  0.00  0.00    +0.000 A 
ATOM     29  N   UNL     1      49.106   5.552  19.139  0.00  0.00    +0.000 NA
ATOM     30  C   UNL     1      49.475   6.777  18.960  0.00  0.00    +0.000 A 
ATOM     31  N   UNL     1      49.324   7.474  17.789  0.00  0.00    +0.000 N 
ATOM     32  C   UNL     1      48.786   6.918  16.654  0.00  0.00    +0.000 A 
ATOM     33  O   UNL     1      48.717   7.552  15.606  0.00  0.00    +0.000 OA
ATOM     34  C   UNL     1      48.342   5.545  16.806  0.00  0.00    +0.000 A 
ATOM     35  H   UNL     1      49.641   8.429  17.712  0.00  0.00    +0.000 HD
ENDBRANCH  22  25
ENDBRANCH  20  21
ENDBRANCH   5  20
TORSDOF 6
ENDMDL
MODEL 3
REMARK VINA RESULT:    -8.605      2.305      3.945
REMARK INTER + INTRA:         -12.324
REMARK INTER:                 -11.221
REMARK INTRA:                  -1.103
REMARK UNBOUND:                -0.702
REMARK  Name = 
REMARK  6 active torsions:
REMARK  status: ('A' for Active; 'I' for Inactive)
REMARK    1  A    between atoms: C_2  and  C_4
REMARK    2  A    between atoms: C_7  and  O_8
REMARK    3  A    between atoms: O_8  and  C_9
REMARK    4  A    between atoms: C_13  and  C_14
REMARK    5  A    between atoms: C_14  and  N_15
REMARK    6  A    between atoms: C_16  and  C_18
REMARK                            x       y       z     vdW  Elec       q    Type
REMARK                         _______ _______ _______ _____ _____    ______ ____
ROOT
ATOM      1  C   UNL     1      43.964   3.684  11.201  0.00  0.00    +0.000 A 
ATOM      2  C   UNL     1      42.900   4.512  11.531  0.00  0.00    +0.000 A 
ATOM      3  N   UNL     1      42.930   5.422  12.535  0.00  0.00    +0.000 NA
ATOM      4  C   UNL     1      44.071   5.494  13.254  0.00  0.00    +0.000 A 
ATOM      5  C   UNL     1      45.193   4.708  13.014  0.00  0.00    +0.000 A 
ATOM      6  C   UNL     1      45.146   3.834  11.923  0.00  0.00    +0.000 A 
ENDROOT
BRANCH   1   7
ATOM      7  O   UNL     1      43.798   2.817  10.151  0.00  0.00    +0.000 OA
BRANCH   7  11
ATOM      8  C   UNL     1      46.558   2.614   7.114  0.00  0.00    +0.000 A 
ATOM      9  C   UNL     1      45.904   3.827   7.278  0.00  0.00    +0.000 A 
ATOM     10  C   UNL     1      44.975   3.944   8.308  0.00  0.00    +0.000 A 
ATOM     11  C   UNL     1      44.690   2.836   9.103  0.00  0.00    +0.000 A 
ATOM     12  C   UNL     1      45.403   1.665   8.866  0.00  0.00    +0.000 A 
ATOM     13  N   UNL     1      46.328   1.515   7.883  0.00  0.00    +0.000 NA
BRANCH   8  15
ATOM     14  N   UNL     1      48.626   1.671   6.244  0.00  0.00    +0.000 NA
ATOM     15  C   UNL     1      47.616   2.461   6.056  0.00  0.00    +0.000 C 
ATOM     16  N   UNL     1      47.503   3.167   4.891  0.00  0.00    +0.000 N 
ATOM     17  H   UNL     1      49.202   1.668   5.399  0.00  0.00    +0.000 HD
ATOM     18  H   UNL     1      48.363   3.411   4.419  0.00  0.00    +0.000 HD
ATOM     19  H   UNL     1      46.836   3.935   4.948  0.00  0.00    +0.000 HD
ENDBRANCH   8  15
ENDBRANCH   7  11
ENDBRANCH   1   7
BRANCH   5  20
ATOM     20  C   UNL     1      46.412   4.813  13.879  0.00  0.00    +0.000 C 
BRANCH  20  21
ATOM     21  N   UNL     1      46.900   6.163  13.932  0.00  0.00    +0.000 N 
ATOM     22  C   UNL     1      48.036   6.480  14.630  0.00  0.00    +0.000 C 
ATOM     23  O   UNL     1      48.718   5.625  15.188  0.00  0.00    +0.000 OA
ATOM     24  H   UNL     1      46.248   6.901  13.684  0.00  0.00    +0.000 HD
BRANCH  22  25
ATOM     25  C   UNL     1      48.428   7.893  14.618  0.00  0.00    +0.000 A 
ATOM     26  C   UNL     1      48.579   8.577  15.817  0.00  0.00    +0.000 A 
ATOM     27  S   UNL     1      49.111  10.186  15.623  0.00  0.00    +0.000 S 
ATOM     28  C   UNL     1      49.101  10.042  13.927  0.00  0.00    +0.000 A 
ATOM     29  N   UNL     1      49.447  11.091  13.133  0.00  0.00    +0.000 NA
ATOM     30  C   UNL     1      49.360  10.854  11.866  0.00  0.00    +0.000 A 
ATOM     31  N   UNL     1      48.960   9.661  11.321  0.00  0.00    +0.000 N 
ATOM     32  C   UNL     1      48.640   8.563  12.082  0.00  0.00    +0.000 A 
ATOM     33  O   UNL     1      48.340   7.493  11.562  0.00  0.00    +0.000 OA
ATOM     34  C   UNL     1      48.709   8.781  13.515  0.00  0.00    +0.000 A 
ATOM     35  H   UNL     1      48.920   9.538  10.320  0.00  0.00    +0.000 HD
ENDBRANCH  22  25
ENDBRANCH  20  21
ENDBRANCH   5  20
TORSDOF 6
ENDMDL
MODEL 4
REMARK VINA RESULT:    -8.433      1.588      1.970
REMARK INTER + INTRA:         -12.093
REMARK INTER:                 -11.349
REMARK INTRA:                  -0.744
REMARK UNBOUND:                -0.702
REMARK  Name = 
REMARK  6 active torsions:
REMARK  status: ('A' for Active; 'I' for Inactive)
REMARK    1  A    between atoms: C_2  and  C_4
REMARK    2  A    between atoms: C_7  and  O_8
REMARK    3  A    between atoms: O_8  and  C_9
REMARK    4  A    between atoms: C_13  and  C_14
REMARK    5  A    between atoms: C_14  and  N_15
REMARK    6  A    between atoms: C_16  and  C_18
REMARK                            x       y       z     vdW  Elec       q    Type
REMARK                         _______ _______ _______ _____ _____    ______ ____
ROOT
ATOM      1  C   UNL     1      44.722   5.653  11.099  0.00  0.00    +0.000 A 
ATOM      2  C   UNL     1      44.065   6.809  11.497  0.00  0.00    +0.000 A 
ATOM      3  N   UNL     1      44.582   7.716  12.361  0.00  0.00    +0.000 NA
ATOM      4  C   UNL     1      45.805   7.443  12.867  0.00  0.00    +0.000 A 
ATOM      5  C   UNL     1      46.546   6.313  12.542  0.00  0.00    +0.000 A 
ATOM      6  C   UNL     1      46.008   5.440  11.591  0.00  0.00    +0.000 A 
ENDROOT
BRANCH   1   7
ATOM      7  O   UNL     1      44.084   4.829  10.207  0.00  0.00    +0.000 OA
BRANCH   7  11
ATOM      8  C   UNL     1      46.240   2.098   8.022  0.00  0.00    +0.000 A 
ATOM      9  C   UNL     1      46.316   3.421   7.610  0.00  0.00    +0.000 A 
ATOM     10  C   UNL     1      45.616   4.381   8.335  0.00  0.00    +0.000 A 
ATOM     11  C   UNL     1      44.823   3.985   9.409  0.00  0.00    +0.000 A 
ATOM     12  C   UNL     1      44.817   2.636   9.750  0.00  0.00    +0.000 A 
ATOM     13  N   UNL     1      45.497   1.671   9.080  0.00  0.00    +0.000 NA
BRANCH   8  15
ATOM     14  N   UNL     1      47.948   1.360   6.453  0.00  0.00    +0.000 NA
ATOM     15  C   UNL     1      47.031   1.036   7.309  0.00  0.00    +0.000 C 
ATOM     16  N   UNL     1      46.773  -0.280   7.574  0.00  0.00    +0.000 N 
ATOM     17  H   UNL     1      48.401   0.507   6.116  0.00  0.00    +0.000 HD
ATOM     18  H   UNL     1      46.950  -0.940   6.828  0.00  0.00    +0.000 HD
ATOM     19  H   UNL     1      45.883  -0.429   8.047  0.00  0.00    +0.000 HD
ENDBRANCH   8  15
ENDBRANCH   7  11
ENDBRANCH   1   7
BRANCH   5  20
ATOM     20  C   UNL     1      47.881   6.054  13.172  0.00  0.00    +0.000 C 
BRANCH  20  21
ATOM     21  N   UNL     1      47.824   6.212  14.599  0.00  0.00    +0.000 N 
ATOM     22  C   UNL     1      48.933   6.575  15.318  0.00  0.00    +0.000 C 
ATOM     23  O   UNL     1      50.003   6.839  14.776  0.00  0.00    +0.000 OA
ATOM     24  H   UNL     1      47.038   5.786  15.081  0.00  0.00    +0.000 HD
BRANCH  22  25
ATOM     25  C   UNL     1      48.752   6.695  16.768  0.00  0.00    +0.000 A 
ATOM     26  C   UNL     1      48.512   7.940  17.332  0.00  0.00    +0.000 A 
ATOM     27  S   UNL     1      48.251   7.888  19.017  0.00  0.00    +0.000 S 
ATOM     28  C   UNL     1      48.507   6.205  19.059  0.00  0.00    +0.000 A 
ATOM     29  N   UNL     1      48.442   5.516  20.230  0.00  0.00    +0.000 NA
ATOM     30  C   UNL     1      48.693   4.254  20.122  0.00  0.00    +0.000 A 
ATOM     31  N   UNL     1      49.000   3.617  18.947  0.00  0.00    +0.000 N 
ATOM     32  C   UNL     1      49.038   4.264  17.735  0.00  0.00    +0.000 A 
ATOM     33  O   UNL     1      49.260   3.655  16.694  0.00  0.00    +0.000 OA
ATOM     34  C   UNL     1      48.776   5.690  17.805  0.00  0.00    +0.000 A 
ATOM     35  H   UNL     1      49.179   2.624  18.929  0.00  0.00    +0.000 HD
ENDBRANCH  22  25
ENDBRANCH  20  21
ENDBRANCH   5  20
TORSDOF 6
ENDMDL
MODEL 5
REMARK VINA RESULT:    -8.424      1.883      2.456
REMARK INTER + INTRA:         -12.081
REMARK INTER:                 -11.263
REMARK INTRA:                  -0.818
REMARK UNBOUND:                -0.702
REMARK  Name = 
REMARK  6 active torsions:
REMARK  status: ('A' for Active; 'I' for Inactive)
REMARK    1  A    between atoms: C_2  and  C_4
REMARK    2  A    between atoms: C_7  and  O_8
REMARK    3  A    between atoms: O_8  and  C_9
REMARK    4  A    between atoms: C_13  and  C_14
REMARK    5  A    between atoms: C_14  and  N_15
REMARK    6  A    between atoms: C_16  and  C_18
REMARK                            x       y       z     vdW  Elec       q    Type
REMARK                         _______ _______ _______ _____ _____    ______ ____
ROOT
ATOM      1  C   UNL     1      44.386   4.059  11.280  0.00  0.00    +0.000 A 
ATOM      2  C   UNL     1      43.788   5.299  11.451  0.00  0.00    +0.000 A 
ATOM      3  N   UNL     1      44.104   6.164  12.445  0.00  0.00    +0.000 NA
ATOM      4  C   UNL     1      45.050   5.759  13.321  0.00  0.00    +0.000 A 
ATOM      5  C   UNL     1      45.707   4.536  13.248  0.00  0.00    +0.000 A 
ATOM      6  C   UNL     1      45.403   3.705  12.164  0.00  0.00    +0.000 A 
ENDROOT
BRANCH   1   7
ATOM      7  O   UNL     1      43.975   3.291  10.220  0.00  0.00    +0.000 OA
BRANCH   7  11
ATOM      8  C   UNL     1      46.590   2.636   7.118  0.00  0.00    +0.000 A 
ATOM      9  C   UNL     1      46.238   1.529   7.877  0.00  0.00    +0.000 A 
ATOM     10  C   UNL     1      45.339   1.704   8.926  0.00  0.00    +0.000 A 
ATOM     11  C   UNL     1      44.865   2.981   9.216  0.00  0.00    +0.000 A 
ATOM     12  C   UNL     1      45.271   4.027   8.394  0.00  0.00    +0.000 A 
ATOM     13  N   UNL     1      46.132   3.896   7.353  0.00  0.00    +0.000 NA
BRANCH   8  15
ATOM     14  N   UNL     1      48.486   1.635   5.967  0.00  0.00    +0.000 NA
ATOM     15  C   UNL     1      47.507   2.483   5.936  0.00  0.00    +0.000 C 
ATOM     16  N   UNL     1      47.297   3.251   4.825  0.00  0.00    +0.000 N 
ATOM     17  H   UNL     1      48.958   1.645   5.059  0.00  0.00    +0.000 HD
ATOM     18  H   UNL     1      48.108   3.475   4.264  0.00  0.00    +0.000 HD
ATOM     19  H   UNL     1      46.686   4.049   4.995  0.00  0.00    +0.000 HD
ENDBRANCH   8  15
ENDBRANCH   7  11
ENDBRANCH   1   7
BRANCH   5  20
ATOM     20  C   UNL     1      46.718   4.135  14.279  0.00  0.00    +0.000 C 
BRANCH  20  21
ATOM     21  N   UNL     1      47.324   5.285  14.890  0.00  0.00    +0.000 N 
ATOM     22  C   UNL     1      48.172   5.158  15.958  0.00  0.00    +0.000 C 
ATOM     23  O   UNL     1      48.498   4.060  16.403  0.00  0.00    +0.000 OA
ATOM     24  H   UNL     1      46.901   6.189  14.697  0.00  0.00    +0.000 HD
BRANCH  22  25
ATOM     25  C   UNL     1      48.721   6.405  16.500  0.00  0.00    +0.000 A 
ATOM     26  C   UNL     1      49.617   7.149  15.746  0.00  0.00    +0.000 A 
ATOM     27  S   UNL     1      50.096   8.605  16.495  0.00  0.00    +0.000 S 
ATOM     28  C   UNL     1      49.167   8.262  17.879  0.00  0.00    +0.000 A 
ATOM     29  N   UNL     1      49.144   9.117  18.936  0.00  0.00    +0.000 NA
ATOM     30  C   UNL     1      48.427   8.716  19.933  0.00  0.00    +0.000 A 
ATOM     31  N   UNL     1      47.729   7.536  19.967  0.00  0.00    +0.000 N 
ATOM     32  C   UNL     1      47.691   6.661  18.908  0.00  0.00    +0.000 A 
ATOM     33  O   UNL     1      47.010   5.641  18.949  0.00  0.00    +0.000 OA
ATOM     34  C   UNL     1      48.492   7.060  17.766  0.00  0.00    +0.000 A 
ATOM     35  H   UNL     1      47.180   7.284  20.776  0.00  0.00    +0.000 HD
ENDBRANCH  22  25
ENDBRANCH  20  21
ENDBRANCH   5  20
TORSDOF 6
ENDMDL
MODEL 6
REMARK VINA RESULT:    -8.265      1.833      2.231
REMARK INTER + INTRA:         -11.865
REMARK INTER:                 -10.977
REMARK INTRA:                  -0.888
REMARK UNBOUND:                -0.702
REMARK  Name = 
REMARK  6 active torsions:
REMARK  status: ('A' for Active; 'I' for Inactive)
REMARK    1  A    between atoms: C_2  and  C_4
REMARK    2  A    between atoms: C_7  and  O_8
REMARK    3  A    between atoms: O_8  and  C_9
REMARK    4  A    between atoms: C_13  and  C_14
REMARK    5  A    between atoms: C_14  and  N_15
REMARK    6  A    between atoms: C_16  and  C_18
REMARK                            x       y       z     vdW  Elec       q    Type
REMARK                         _______ _______ _______ _____ _____    ______ ____
ROOT
ATOM      1  C   UNL     1      44.724   4.326  11.365  0.00  0.00    +0.000 A 
ATOM      2  C   UNL     1      44.942   3.551  12.495  0.00  0.00    +0.000 A 
ATOM      3  N   UNL     1      45.452   4.029  13.656  0.00  0.00    +0.000 NA
ATOM      4  C   UNL     1      45.779   5.340  13.680  0.00  0.00    +0.000 A 
ATOM      5  C   UNL     1      45.610   6.204  12.603  0.00  0.00    +0.000 A 
ATOM      6  C   UNL     1      45.012   5.687  11.449  0.00  0.00    +0.000 A 
ENDROOT
BRANCH   1   7
ATOM      7  O   UNL     1      44.189   3.712  10.261  0.00  0.00    +0.000 OA
BRANCH   7  11
ATOM      8  C   UNL     1      46.635   2.734   7.107  0.00  0.00    +0.000 A 
ATOM      9  C   UNL     1      46.235   1.690   7.929  0.00  0.00    +0.000 A 
ATOM     10  C   UNL     1      45.390   1.976   8.998  0.00  0.00    +0.000 A 
ATOM     11  C   UNL     1      45.018   3.295   9.243  0.00  0.00    +0.000 A 
ATOM     12  C   UNL     1      45.464   4.272   8.359  0.00  0.00    +0.000 A 
ATOM     13  N   UNL     1      46.275   4.033   7.297  0.00  0.00    +0.000 NA
BRANCH   8  15
ATOM     14  N   UNL     1      48.422   1.560   5.944  0.00  0.00    +0.000 NA
ATOM     15  C   UNL     1      47.494   2.463   5.903  0.00  0.00    +0.000 C 
ATOM     16  N   UNL     1      47.287   3.183   4.759  0.00  0.00    +0.000 N 
ATOM     17  H   UNL     1      48.858   1.493   5.022  0.00  0.00    +0.000 HD
ATOM     18  H   UNL     1      48.087   3.327   4.158  0.00  0.00    +0.000 HD
ATOM     19  H   UNL     1      46.730   4.024   4.907  0.00  0.00    +0.000 HD
ENDBRANCH   8  15
ENDBRANCH   7  11
ENDBRANCH   1   7
BRANCH   5  20
ATOM     20  C   UNL     1      46.033   7.639  12.688  0.00  0.00    +0.000 C 
BRANCH  20  21
ATOM     21  N   UNL     1      46.777   7.894  13.890  0.00  0.00    +0.000 N 
ATOM     22  C   UNL     1      47.889   8.694  13.881  0.00  0.00    +0.000 C 
ATOM     23  O   UNL     1      48.265   9.274  12.865  0.00  0.00    +0.000 OA
ATOM     24  H   UNL     1      46.629   7.260  14.670  0.00  0.00    +0.000 HD
BRANCH  22  25
ATOM     25  C   UNL     1      48.569   8.872  15.167  0.00  0.00    +0.000 A 
ATOM     26  C   UNL     1      48.803  10.151  15.653  0.00  0.00    +0.000 A 
ATOM     27  S   UNL     1      49.533  10.173  17.194  0.00  0.00    +0.000 S 
ATOM     28  C   UNL     1      49.615   8.474  17.240  0.00  0.00    +0.000 A 
ATOM     29  N   UNL     1      50.160   7.828  18.306  0.00  0.00    +0.000 NA
ATOM     30  C   UNL     1      50.191   6.541  18.192  0.00  0.00    +0.000 A 
ATOM     31  N   UNL     1      49.723   5.842  17.109  0.00  0.00    +0.000 N 
ATOM     32  C   UNL     1      49.130   6.449  16.029  0.00  0.00    +0.000 A 
ATOM     33  O   UNL     1      48.671   5.791  15.101  0.00  0.00    +0.000 OA
ATOM     34  C   UNL     1      49.082   7.898  16.102  0.00  0.00    +0.000 A 
ATOM     35  H   UNL     1      49.770   4.834  17.086  0.00  0.00    +0.000 HD
ENDBRANCH  22  25
ENDBRANCH  20  21
ENDBRANCH   5  20
TORSDOF 6
ENDMDL
MODEL 7
REMARK VINA RESULT:    -8.196      1.998      2.929
REMARK INTER + INTRA:         -11.772
REMARK INTER:                 -10.921
REMARK INTRA:                  -0.851
REMARK UNBOUND:                -0.702
REMARK  Name = 
REMARK  6 active torsions:
REMARK  status: ('A' for Active; 'I' for Inactive)
REMARK    1  A    between atoms: C_2  and  C_4
REMARK    2  A    between atoms: C_7  and  O_8
REMARK    3  A    between atoms: O_8  and  C_9
REMARK    4  A    between atoms: C_13  and  C_14
REMARK    5  A    between atoms: C_14  and  N_15
REMARK    6  A    between atoms: C_16  and  C_18
REMARK                            x       y       z     vdW  Elec       q    Type
REMARK                         _______ _______ _______ _____ _____    ______ ____
ROOT
ATOM      1  C   UNL     1      44.875   5.124  11.507  0.00  0.00    +0.000 A 
ATOM      2  C   UNL     1      44.805   6.483  11.778  0.00  0.00    +0.000 A 
ATOM      3  N   UNL     1      45.376   7.072  12.856  0.00  0.00    +0.000 NA
ATOM      4  C   UNL     1      46.032   6.261  13.714  0.00  0.00    +0.000 A 
ATOM      5  C   UNL     1      46.158   4.886  13.542  0.00  0.00    +0.000 A 
ATOM      6  C   UNL     1      45.616   4.329  12.379  0.00  0.00    +0.000 A 
ENDROOT
BRANCH   1   7
ATOM      7  O   UNL     1      44.259   4.665  10.371  0.00  0.00    +0.000 OA
BRANCH   7  11
ATOM      8  C   UNL     1      46.274   2.039   7.935  0.00  0.00    +0.000 A 
ATOM      9  C   UNL     1      46.409   3.388   7.640  0.00  0.00    +0.000 A 
ATOM     10  C   UNL     1      45.758   4.312   8.452  0.00  0.00    +0.000 A 
ATOM     11  C   UNL     1      44.953   3.861   9.495  0.00  0.00    +0.000 A 
ATOM     12  C   UNL     1      44.886   2.489   9.718  0.00  0.00    +0.000 A 
ATOM     13  N   UNL     1      45.517   1.557   8.959  0.00  0.00    +0.000 NA
BRANCH   8  15
ATOM     14  N   UNL     1      47.830   1.369   6.190  0.00  0.00    +0.000 NA
ATOM     15  C   UNL     1      47.010   1.009   7.125  0.00  0.00    +0.000 C 
ATOM     16  N   UNL     1      46.805  -0.318   7.386  0.00  0.00    +0.000 N 
ATOM     17  H   UNL     1      48.264   0.532   5.792  0.00  0.00    +0.000 HD
ATOM     18  H   UNL     1      46.920  -0.959   6.613  0.00  0.00    +0.000 HD
ATOM     19  H   UNL     1      45.970  -0.495   7.943  0.00  0.00    +0.000 HD
ENDBRANCH   8  15
ENDBRANCH   7  11
ENDBRANCH   1   7
BRANCH   5  20
ATOM     20  C   UNL     1      46.866   4.040  14.557  0.00  0.00    +0.000 C 
BRANCH  20  21
ATOM     21  N   UNL     1      47.288   4.821  15.686  0.00  0.00    +0.000 N 
ATOM     22  C   UNL     1      47.155   4.350  16.965  0.00  0.00    +0.000 C 
ATOM     23  O   UNL     1      46.728   3.223  17.202  0.00  0.00    +0.000 OA
ATOM     24  H   UNL     1      47.422   5.817  15.536  0.00  0.00    +0.000 HD
BRANCH  22  25
ATOM     25  C   UNL     1      47.612   5.243  18.034  0.00  0.00    +0.000 A 
ATOM     26  C   UNL     1      46.726   5.644  19.024  0.00  0.00    +0.000 A 
ATOM     27  S   UNL     1      47.442   6.618  20.228  0.00  0.00    +0.000 S 
ATOM     28  C   UNL     1      48.948   6.586  19.436  0.00  0.00    +0.000 A 
ATOM     29  N   UNL     1      50.020   7.250  19.942  0.00  0.00    +0.000 NA
ATOM     30  C   UNL     1      51.088   7.171  19.221  0.00  0.00    +0.000 A 
ATOM     31  N   UNL     1      51.182   6.483  18.038  0.00  0.00    +0.000 N 
ATOM     32  C   UNL     1      50.138   5.764  17.509  0.00  0.00    +0.000 A 
ATOM     33  O   UNL     1      50.271   5.113  16.478  0.00  0.00    +0.000 OA
ATOM     34  C   UNL     1      48.908   5.833  18.276  0.00  0.00    +0.000 A 
ATOM     35  H   UNL     1      52.051   6.453  17.525  0.00  0.00    +0.000 HD
ENDBRANCH  22  25
ENDBRANCH  20  21
ENDBRANCH   5  20
TORSDOF 6
ENDMDL
MODEL 8
REMARK VINA RESULT:    -8.010      4.081      6.043
REMARK INTER + INTRA:         -11.522
REMARK INTER:                 -10.411
REMARK INTRA:                  -1.110
REMARK UNBOUND:                -0.702
REMARK  Name = 
REMARK  6 active torsions:
REMARK  status: ('A' for Active; 'I' for Inactive)
REMARK    1  A    between atoms: C_2  and  C_4
REMARK    2  A    between atoms: C_7  and  O_8
REMARK    3  A    between atoms: O_8  and  C_9
REMARK    4  A    between atoms: C_13  and  C_14
REMARK    5  A    between atoms: C_14  and  N_15
REMARK    6  A    between atoms: C_16  and  C_18
REMARK                            x       y       z     vdW  Elec       q    Type
REMARK                         _______ _______ _______ _____ _____    ______ ____
ROOT
ATOM      1  C   UNL     1      45.222   4.887  11.724  0.00  0.00    +0.000 A 
ATOM      2  C   UNL     1      45.149   3.973  12.766  0.00  0.00    +0.000 A 
ATOM      3  N   UNL     1      45.756   4.141  13.966  0.00  0.00    +0.000 NA
ATOM      4  C   UNL     1      46.488   5.265  14.123  0.00  0.00    +0.000 A 
ATOM      5  C   UNL     1      46.635   6.242  13.143  0.00  0.00    +0.000 A 
ATOM      6  C   UNL     1      45.932   6.065  11.947  0.00  0.00    +0.000 A 
ENDROOT
BRANCH   1   7
ATOM      7  O   UNL     1      44.546   4.594  10.567  0.00  0.00    +0.000 OA
BRANCH   7  11
ATOM      8  C   UNL     1      46.528   2.914   7.383  0.00  0.00    +0.000 A 
ATOM      9  C   UNL     1      45.898   2.037   8.255  0.00  0.00    +0.000 A 
ATOM     10  C   UNL     1      45.199   2.566   9.336  0.00  0.00    +0.000 A 
ATOM     11  C   UNL     1      45.196   3.943   9.542  0.00  0.00    +0.000 A 
ATOM     12  C   UNL     1      45.851   4.742   8.610  0.00  0.00    +0.000 A 
ATOM     13  N   UNL     1      46.530   4.267   7.534  0.00  0.00    +0.000 NA
BRANCH   8  15
ATOM     14  N   UNL     1      47.984   1.334   6.241  0.00  0.00    +0.000 NA
ATOM     15  C   UNL     1      47.239   2.391   6.166  0.00  0.00    +0.000 C 
ATOM     16  N   UNL     1      47.093   3.045   4.974  0.00  0.00    +0.000 N 
ATOM     17  H   UNL     1      48.338   1.113   5.307  0.00  0.00    +0.000 HD
ATOM     18  H   UNL     1      47.864   2.988   4.323  0.00  0.00    +0.000 HD
ATOM     19  H   UNL     1      46.713   3.986   5.074  0.00  0.00    +0.000 HD
ENDBRANCH   8  15
ENDBRANCH   7  11
ENDBRANCH   1   7
BRANCH   5  20
ATOM     20  C   UNL     1      47.496   7.446  13.372  0.00  0.00    +0.000 C 
BRANCH  20  21
ATOM     21  N   UNL     1      47.212   8.481  12.418  0.00  0.00    +0.000 N 
ATOM     22  C   UNL     1      47.679   9.757  12.593  0.00  0.00    +0.000 C 
ATOM     23  O   UNL     1      48.406  10.060  13.536  0.00  0.00    +0.000 OA
ATOM     24  H   UNL     1      46.443   8.319  11.774  0.00  0.00    +0.000 HD
BRANCH  22  25
ATOM     25  C   UNL     1      47.315  10.727  11.556  0.00  0.00    +0.000 A 
ATOM     26  C   UNL     1      48.311  11.365  10.829  0.00  0.00    +0.000 A 
ATOM     27  S   UNL     1      47.711  12.403   9.615  0.00  0.00    +0.000 S 
ATOM     28  C   UNL     1      46.100  12.078  10.057  0.00  0.00    +0.000 A 
ATOM     29  N   UNL     1      45.063  12.672   9.408  0.00  0.00    +0.000 NA
ATOM     30  C   UNL     1      43.897  12.365   9.870  0.00  0.00    +0.000 A 
ATOM     31  N   UNL     1      43.674  11.514  10.922  0.00  0.00    +0.000 N 
ATOM     32  C   UNL     1      44.687  10.861  11.581  0.00  0.00    +0.000 A 
ATOM     33  O   UNL     1      44.450  10.062  12.482  0.00  0.00    +0.000 OA
ATOM     34  C   UNL     1      46.020  11.183  11.108  0.00  0.00    +0.000 A 
ATOM     35  H   UNL     1      42.735  11.309  11.231  0.00  0.00    +0.000 HD
ENDBRANCH  22  25
ENDBRANCH  20  21
ENDBRANCH   5  20
TORSDOF 6
ENDMDL
MODEL 9
REMARK VINA RESULT:    -7.989      3.065      3.908
REMARK INTER + INTRA:         -11.492
REMARK INTER:                 -10.703
REMARK INTRA:                  -0.789
REMARK UNBOUND:                -0.702
REMARK  Name = 
REMARK  6 active torsions:
REMARK  status: ('A' for Active; 'I' for Inactive)
REMARK    1  A    between atoms: C_2  and  C_4
REMARK    2  A    between atoms: C_7  and  O_8
REMARK    3  A    between atoms: O_8  and  C_9
REMARK    4  A    between atoms: C_13  and  C_14
REMARK    5  A    between atoms: C_14  and  N_15
REMARK    6  A    between atoms: C_16  and  C_18
REMARK                            x       y       z     vdW  Elec       q    Type
REMARK                         _______ _______ _______ _____ _____    ______ ____
ROOT
ATOM      1  C   UNL     1      44.199   4.172  11.117  0.00  0.00    +0.000 A 
ATOM      2  C   UNL     1      44.346   3.620  12.382  0.00  0.00    +0.000 A 
ATOM      3  N   UNL     1      44.667   4.334  13.488  0.00  0.00    +0.000 NA
ATOM      4  C   UNL     1      44.872   5.658  13.317  0.00  0.00    +0.000 A 
ATOM      5  C   UNL     1      44.758   6.311  12.094  0.00  0.00    +0.000 A 
ATOM      6  C   UNL     1      44.353   5.551  10.992  0.00  0.00    +0.000 A 
ENDROOT
BRANCH   1   7
ATOM      7  O   UNL     1      43.857   3.331  10.088  0.00  0.00    +0.000 OA
BRANCH   7  11
ATOM      8  C   UNL     1      46.587   2.644   7.095  0.00  0.00    +0.000 A 
ATOM      9  C   UNL     1      46.292   1.571   7.923  0.00  0.00    +0.000 A 
ATOM     10  C   UNL     1      45.358   1.757   8.939  0.00  0.00    +0.000 A 
ATOM     11  C   UNL     1      44.791   3.015   9.127  0.00  0.00    +0.000 A 
ATOM     12  C   UNL     1      45.145   4.026   8.240  0.00  0.00    +0.000 A 
ATOM     13  N   UNL     1      46.039   3.883   7.229  0.00  0.00    +0.000 NA
BRANCH   8  15
ATOM     14  N   UNL     1      48.546   1.662   6.038  0.00  0.00    +0.000 NA
ATOM     15  C   UNL     1      47.541   2.473   5.945  0.00  0.00    +0.000 C 
ATOM     16  N   UNL     1      47.337   3.186   4.796  0.00  0.00    +0.000 N 
ATOM     17  H   UNL     1      49.043   1.649   5.144  0.00  0.00    +0.000 HD
ATOM     18  H   UNL     1      48.155   3.414   4.248  0.00  0.00    +0.000 HD
ATOM     19  H   UNL     1      46.695   3.968   4.915  0.00  0.00    +0.000 HD
ENDBRANCH   8  15
ENDBRANCH   7  11
ENDBRANCH   1   7
BRANCH   5  20
ATOM     20  C   UNL     1      45.039   7.778  11.969  0.00  0.00    +0.000 C 
BRANCH  20  21
ATOM     21  N   UNL     1      46.451   8.043  11.983  0.00  0.00    +0.000 N 
ATOM     22  C   UNL     1      46.933   9.315  12.143  0.00  0.00    +0.000 C 
ATOM     23  O   UNL     1      46.190  10.273  12.342  0.00  0.00    +0.000 OA
ATOM     24  H   UNL     1      47.060   7.326  11.599  0.00  0.00    +0.000 HD
BRANCH  22  25
ATOM     25  C   UNL     1      48.392   9.459  12.130  0.00  0.00    +0.000 A 
ATOM     26  C   UNL     1      48.993  10.309  11.212  0.00  0.00    +0.000 A 
ATOM     27  S   UNL     1      50.687  10.415  11.386  0.00  0.00    +0.000 S 
ATOM     28  C   UNL     1      50.682   9.284  12.657  0.00  0.00    +0.000 A 
ATOM     29  N   UNL     1      51.839   8.905  13.262  0.00  0.00    +0.000 NA
ATOM     30  C   UNL     1      51.693   8.013  14.185  0.00  0.00    +0.000 A 
ATOM     31  N   UNL     1      50.492   7.468  14.561  0.00  0.00    +0.000 N 
ATOM     32  C   UNL     1      49.294   7.849  14.006  0.00  0.00    +0.000 A 
ATOM     33  O   UNL     1      48.232   7.383  14.404  0.00  0.00    +0.000 OA
ATOM     34  C   UNL     1      49.405   8.841  12.952  0.00  0.00    +0.000 A 
ATOM     35  H   UNL     1      50.445   6.779  15.297  0.00  0.00    +0.000 HD
ENDBRANCH  22  25
ENDBRANCH  20  21
ENDBRANCH   5  20
TORSDOF 6
ENDMDL
