MODEL 1
REMARK VINA RESULT:    -8.799      0.000      0.000
REMARK INTER + INTRA:         -12.919
REMARK INTER:                 -11.886
REMARK INTRA:                  -1.034
REMARK UNBOUND:                -1.034
REMARK  Name = 
REMARK  7 active torsions:
REMARK  status: ('A' for Active; 'I' for Inactive)
REMARK    1  A    between atoms: C_1  and  O_2
REMARK    2  A    between atoms: O_2  and  C_3
REMARK    3  A    between atoms: C_5  and  C_6
REMARK    4  A    between atoms: C_6  and  C_7
REMARK    5  A    between atoms: C_7  and  N_8
REMARK    6  A    between atoms: C_12  and  C_13
REMARK    7  A    between atoms: C_19  and  C_20
REMARK                            x       y       z     vdW  Elec       q    Type
REMARK                         _______ _______ _______ _____ _____    ______ ____
ROOT
ATOM      1  C   UNL     1      43.460   5.575  12.076  0.00  0.00    +0.000 C 
ENDROOT
BRANCH   1   4
ATOM      2  C   UNL     1      46.677   4.622  13.887  0.00  0.00    +0.000 A 
ATOM      3  C   UNL     1      45.362   4.588  13.427  0.00  0.00    +0.000 A 
ATOM      4  C   UNL     1      44.911   5.544  12.507  0.00  0.00    +0.000 A 
ATOM      5  C   UNL     1      45.796   6.540  12.066  0.00  0.00    +0.000 A 
ATOM      6  C   UNL     1      47.115   6.632  12.551  0.00  0.00    +0.000 A 
ATOM      7  C   UNL     1      47.539   5.633  13.444  0.00  0.00    +0.000 A 
BRANCH   6   8
ATOM      8  C   UNL     1      47.982   7.790  12.219  0.00  0.00    +0.000 A 
ATOM      9  C   UNL     1      49.334   7.599  11.869  0.00  0.00    +0.000 A 
ATOM     10  C   UNL     1      50.145   8.661  11.459  0.00  0.00    +0.000 A 
ATOM     11  C   UNL     1      49.621   9.944  11.379  0.00  0.00    +0.000 A 
ATOM     12  C   UNL     1      48.294  10.169  11.733  0.00  0.00    +0.000 A 
ATOM     13  C   UNL     1      47.487   9.106  12.158  0.00  0.00    +0.000 A 
ENDBRANCH   6   8
BRANCH   2  15
ATOM     14  C   UNL     1      47.376   4.222  16.122  0.00  0.00    +0.000 C 
ATOM     15  O   UNL     1      47.236   3.755  14.786  0.00  0.00    +0.000 OA
ENDBRANCH   2  15
ENDBRANCH   1   4
BRANCH   1  16
ATOM     16  C   UNL     1      43.312   5.045  10.645  0.00  0.00    +0.000 C 
BRANCH  16  17
ATOM     17  N   UNL     1      43.622   3.611  10.571  0.00  0.00    +0.000 N 
ATOM     18  C   UNL     1      44.557   3.314   9.560  0.00  0.00    +0.000 A 
ATOM     19  C   UNL     1      44.946   1.990   9.368  0.00  0.00    +0.000 A 
ATOM     20  C   UNL     1      45.874   1.684   8.368  0.00  0.00    +0.000 A 
ATOM     21  C   UNL     1      46.401   2.706   7.576  0.00  0.00    +0.000 A 
ATOM     22  C   UNL     1      45.974   3.992   7.848  0.00  0.00    +0.000 A 
ATOM     23  N   UNL     1      45.078   4.307   8.814  0.00  0.00    +0.000 NA
ATOM     24  H   UNL     1      42.793   3.042  10.421  0.00  0.00    +0.000 HD
BRANCH  21  25
ATOM     25  C   UNL     1      47.371   2.381   6.500  0.00  0.00    +0.000 C 
ATOM     26  N   UNL     1      47.419   3.175   5.387  0.00  0.00    +0.000 N 
ATOM     27  O   UNL     1      48.113   1.414   6.595  0.00  0.00    +0.000 OA
ATOM     28  H   UNL     1      46.851   3.986   5.204  0.00  0.00    +0.000 HD
ATOM     29  H   UNL     1      48.090   2.911   4.677  0.00  0.00    +0.000 HD
ENDBRANCH  21  25
ENDBRANCH  16  17
ENDBRANCH   1  16
TORSDOF 6
ENDMDL
MODEL 2
REMARK VINA RESULT:    -8.340      0.680      1.186
REMARK INTER + INTRA:         -12.299
REMARK INTER:                 -11.178
REMARK INTRA:                  -1.121
REMARK UNBOUND:                -1.034
REMARK  Name = 
REMARK  7 active torsions:
REMARK  status: ('A' for Active; 'I' for Inactive)
REMARK    1  A    between atoms: C_1  and  O_2
REMARK    2  A    between atoms: O_2  and  C_3
REMARK    3  A    between atoms: C_5  and  C_6
REMARK    4  A    between atoms: C_6  and  C_7
REMARK    5  A    between atoms: C_7  and  N_8
REMARK    6  A    between atoms: C_12  and  C_13
REMARK    7  A    between atoms: C_19  and  C_20
REMARK                            x       y       z     vdW  Elec       q    Type
REMARK                         _______ _______ _______ _____ _____    ______ ____
ROOT
ATOM      1  C   UNL     1      43.282   5.478  12.796  0.00  0.00    +0.000 C 
ENDROOT
BRANCH   1   4
ATOM      2  C   UNL     1      46.884   4.894  13.900  0.00  0.00    +0.000 A 
ATOM      3  C   UNL     1      45.516   4.708  13.706  0.00  0.00    +0.000 A 
ATOM      4  C   UNL     1      44.783   5.617  12.933  0.00  0.00    +0.000 A 
ATOM      5  C   UNL     1      45.440   6.721  12.368  0.00  0.00    +0.000 A 
ATOM      6  C   UNL     1      46.809   6.965  12.588  0.00  0.00    +0.000 A 
ATOM      7  C   UNL     1      47.516   6.010  13.339  0.00  0.00    +0.000 A 
BRANCH   6   8
ATOM      8  C   UNL     1      47.453   8.226  12.140  0.00  0.00    +0.000 A 
ATOM      9  C   UNL     1      46.740   9.441  12.152  0.00  0.00    +0.000 A 
ATOM     10  C   UNL     1      47.349  10.656  11.829  0.00  0.00    +0.000 A 
ATOM     11  C   UNL     1      48.696  10.688  11.492  0.00  0.00    +0.000 A 
ATOM     12  C   UNL     1      49.425   9.503  11.455  0.00  0.00    +0.000 A 
ATOM     13  C   UNL     1      48.808   8.285  11.765  0.00  0.00    +0.000 A 
ENDBRANCH   6   8
BRANCH   2  15
ATOM     14  C   UNL     1      47.389   3.933  16.013  0.00  0.00    +0.000 C 
ATOM     15  O   UNL     1      47.707   4.086  14.636  0.00  0.00    +0.000 OA
ENDBRANCH   2  15
ENDBRANCH   1   4
BRANCH   1  16
ATOM     16  C   UNL     1      42.909   5.027  11.379  0.00  0.00    +0.000 C 
BRANCH  16  17
ATOM     17  N   UNL     1      43.220   3.606  11.172  0.00  0.00    +0.000 N 
ATOM     18  C   UNL     1      44.143   3.403  10.127  0.00  0.00    +0.000 A 
ATOM     19  C   UNL     1      44.532   2.104   9.811  0.00  0.00    +0.000 A 
ATOM     20  C   UNL     1      45.448   1.892   8.777  0.00  0.00    +0.000 A 
ATOM     21  C   UNL     1      45.963   2.982   8.075  0.00  0.00    +0.000 A 
ATOM     22  C   UNL     1      45.538   4.237   8.467  0.00  0.00    +0.000 A 
ATOM     23  N   UNL     1      44.654   4.461   9.468  0.00  0.00    +0.000 NA
ATOM     24  H   UNL     1      42.390   3.050  10.981  0.00  0.00    +0.000 HD
BRANCH  21  25
ATOM     25  C   UNL     1      46.921   2.759   6.962  0.00  0.00    +0.000 C 
ATOM     26  N   UNL     1      47.045   3.712   5.990  0.00  0.00    +0.000 N 
ATOM     27  O   UNL     1      47.586   1.734   6.902  0.00  0.00    +0.000 OA
ATOM     28  H   UNL     1      46.543   4.584   5.938  0.00  0.00    +0.000 HD
ATOM     29  H   UNL     1      47.704   3.514   5.248  0.00  0.00    +0.000 HD
ENDBRANCH  21  25
ENDBRANCH  16  17
ENDBRANCH   1  16
TORSDOF 6
ENDMDL
MODEL 3
REMARK VINA RESULT:    -8.027      1.947      2.739
REMARK INTER + INTRA:         -11.876
REMARK INTER:                 -11.580
REMARK INTRA:                  -0.295
REMARK UNBOUND:                -1.034
REMARK  Name = 
REMARK  7 active torsions:
REMARK  status: ('A' for Active; 'I' for Inactive)
REMARK    1  A    between atoms: C_1  and  O_2
REMARK    2  A    between atoms: O_2  and  C_3
REMARK    3  A    between atoms: C_5  and  C_6
REMARK    4  A    between atoms: C_6  and  C_7
REMARK    5  A    between atoms: C_7  and  N_8
REMARK    6  A    between atoms: C_12  and  C_13
REMARK    7  A    between atoms: C_19  and  C_20
REMARK                            x       y       z     vdW  Elec       q    Type
REMARK                         _______ _______ _______ _____ _____    ______ ____
ROOT
ATOM      1  C   UNL     1      43.651   4.176  12.625  0.00  0.00    +0.000 C 
ENDROOT
BRANCH   1   4
ATOM      2  C   UNL     1      46.959   5.996  13.160  0.00  0.00    +0.000 A 
ATOM      3  C   UNL     1      45.996   4.988  13.132  0.00  0.00    +0.000 A 
ATOM      4  C   UNL     1      44.735   5.232  12.574  0.00  0.00    +0.000 A 
ATOM      5  C   UNL     1      44.450   6.506  12.056  0.00  0.00    +0.000 A 
ATOM      6  C   UNL     1      45.382   7.560  12.117  0.00  0.00    +0.000 A 
ATOM      7  C   UNL     1      46.648   7.263  12.651  0.00  0.00    +0.000 A 
BRANCH   6   8
ATOM      8  C   UNL     1      45.010   8.945  11.735  0.00  0.00    +0.000 A 
ATOM      9  C   UNL     1      45.858  10.027  12.040  0.00  0.00    +0.000 A 
ATOM     10  C   UNL     1      45.579  11.327  11.608  0.00  0.00    +0.000 A 
ATOM     11  C   UNL     1      44.444  11.576  10.848  0.00  0.00    +0.000 A 
ATOM     12  C   UNL     1      43.576  10.531  10.543  0.00  0.00    +0.000 A 
ATOM     13  C   UNL     1      43.851   9.233  10.990  0.00  0.00    +0.000 A 
ENDBRANCH   6   8
BRANCH   2  15
ATOM     14  C   UNL     1      49.052   7.036  13.582  0.00  0.00    +0.000 C 
ATOM     15  O   UNL     1      48.220   5.887  13.680  0.00  0.00    +0.000 OA
ENDBRANCH   2  15
ENDBRANCH   1   4
BRANCH   1  16
ATOM     16  C   UNL     1      43.219   3.778  11.209  0.00  0.00    +0.000 C 
BRANCH  16  17
ATOM     17  N   UNL     1      43.877   4.613  10.196  0.00  0.00    +0.000 N 
ATOM     18  C   UNL     1      44.754   3.874   9.376  0.00  0.00    +0.000 A 
ATOM     19  C   UNL     1      45.455   4.534   8.370  0.00  0.00    +0.000 A 
ATOM     20  C   UNL     1      46.325   3.811   7.550  0.00  0.00    +0.000 A 
ATOM     21  C   UNL     1      46.481   2.438   7.747  0.00  0.00    +0.000 A 
ATOM     22  C   UNL     1      45.733   1.861   8.755  0.00  0.00    +0.000 A 
ATOM     23  N   UNL     1      44.882   2.546   9.557  0.00  0.00    +0.000 NA
ATOM     24  H   UNL     1      44.395   5.386  10.606  0.00  0.00    +0.000 HD
BRANCH  21  25
ATOM     25  C   UNL     1      47.421   1.670   6.891  0.00  0.00    +0.000 C 
ATOM     26  N   UNL     1      48.513   2.305   6.368  0.00  0.00    +0.000 N 
ATOM     27  O   UNL     1      47.224   0.489   6.644  0.00  0.00    +0.000 OA
ATOM     28  H   UNL     1      48.765   3.272   6.499  0.00  0.00    +0.000 HD
ATOM     29  H   UNL     1      49.121   1.744   5.784  0.00  0.00    +0.000 HD
ENDBRANCH  21  25
ENDBRANCH  16  17
ENDBRANCH   1  16
TORSDOF 6
ENDMDL
MODEL 4
REMARK VINA RESULT:    -7.415      1.316      4.065
REMARK INTER + INTRA:         -11.050
REMARK INTER:                 -10.108
REMARK INTRA:                  -0.942
REMARK UNBOUND:                -1.034
REMARK  Name = 
REMARK  7 active torsions:
REMARK  status: ('A' for Active; 'I' for Inactive)
REMARK    1  A    between atoms: C_1  and  O_2
REMARK    2  A    between atoms: O_2  and  C_3
REMARK    3  A    between atoms: C_5  and  C_6
REMARK    4  A    between atoms: C_6  and  C_7
REMARK    5  A    between atoms: C_7  and  N_8
REMARK    6  A    between atoms: C_12  and  C_13
REMARK    7  A    between atoms: C_19  and  C_20
REMARK                            x       y       z     vdW  Elec       q    Type
REMARK                         _______ _______ _______ _____ _____    ______ ____
ROOT
ATOM      1  C   UNL     1      43.879   5.612  12.144  0.00  0.00    +0.000 C 
ENDROOT
BRANCH   1   4
ATOM      2  C   UNL     1      47.561   6.536  12.495  0.00  0.00    +0.000 A 
ATOM      3  C   UNL     1      46.258   6.470  12.006  0.00  0.00    +0.000 A 
ATOM      4  C   UNL     1      45.272   5.771  12.714  0.00  0.00    +0.000 A 
ATOM      5  C   UNL     1      45.616   5.130  13.914  0.00  0.00    +0.000 A 
ATOM      6  C   UNL     1      46.935   5.134  14.409  0.00  0.00    +0.000 A 
ATOM      7  C   UNL     1      47.886   5.877  13.688  0.00  0.00    +0.000 A 
BRANCH   6   8
ATOM      8  C   UNL     1      47.326   4.305  15.576  0.00  0.00    +0.000 A 
ATOM      9  C   UNL     1      47.934   3.047  15.394  0.00  0.00    +0.000 A 
ATOM     10  C   UNL     1      48.399   2.290  16.472  0.00  0.00    +0.000 A 
ATOM     11  C   UNL     1      48.277   2.779  17.766  0.00  0.00    +0.000 A 
ATOM     12  C   UNL     1      47.667   4.011  17.983  0.00  0.00    +0.000 A 
ATOM     13  C   UNL     1      47.187   4.760  16.901  0.00  0.00    +0.000 A 
ENDBRANCH   6   8
BRANCH   2  15
ATOM     14  C   UNL     1      48.420   8.549  11.573  0.00  0.00    +0.000 C 
ATOM     15  O   UNL     1      48.612   7.178  11.898  0.00  0.00    +0.000 OA
ENDBRANCH   2  15
ENDBRANCH   1   4
BRANCH   1  16
ATOM     16  C   UNL     1      43.943   5.226  10.662  0.00  0.00    +0.000 C 
BRANCH  16  17
ATOM     17  N   UNL     1      44.080   3.773  10.495  0.00  0.00    +0.000 N 
ATOM     18  C   UNL     1      44.958   3.432   9.446  0.00  0.00    +0.000 A 
ATOM     19  C   UNL     1      45.184   2.087   9.165  0.00  0.00    +0.000 A 
ATOM     20  C   UNL     1      46.054   1.737   8.128  0.00  0.00    +0.000 A 
ATOM     21  C   UNL     1      46.686   2.738   7.388  0.00  0.00    +0.000 A 
ATOM     22  C   UNL     1      46.419   4.045   7.747  0.00  0.00    +0.000 A 
ATOM     23  N   UNL     1      45.581   4.402   8.750  0.00  0.00    +0.000 NA
ATOM     24  H   UNL     1      43.187   3.315  10.329  0.00  0.00    +0.000 HD
BRANCH  21  25
ATOM     25  C   UNL     1      47.594   2.370   6.273  0.00  0.00    +0.000 C 
ATOM     26  N   UNL     1      47.455   2.999   5.067  0.00  0.00    +0.000 N 
ATOM     27  O   UNL     1      48.452   1.510   6.418  0.00  0.00    +0.000 OA
ATOM     28  H   UNL     1      46.780   3.711   4.836  0.00  0.00    +0.000 HD
ATOM     29  H   UNL     1      48.090   2.711   4.334  0.00  0.00    +0.000 HD
ENDBRANCH  21  25
ENDBRANCH  16  17
ENDBRANCH   1  16
TORSDOF 6
ENDMDL
MODEL 5
REMARK VINA RESULT:    -7.297      2.136      3.012
REMARK INTER + INTRA:         -10.890
REMARK INTER:                 -10.027
REMARK INTRA:                  -0.863
REMARK UNBOUND:                -1.034
REMARK  Name = 
REMARK  7 active torsions:
REMARK  status: ('A' for Active; 'I' for Inactive)
REMARK    1  A    between atoms: C_1  and  O_2
REMARK    2  A    between atoms: O_2  and  C_3
REMARK    3  A    between atoms: C_5  and  C_6
REMARK    4  A    between atoms: C_6  and  C_7
REMARK    5  A    between atoms: C_7  and  N_8
REMARK    6  A    between atoms: C_12  and  C_13
REMARK    7  A    between atoms: C_19  and  C_20
REMARK                            x       y       z     vdW  Elec       q    Type
REMARK                         _______ _______ _______ _____ _____    ______ ____
ROOT
ATOM      1  C   UNL     1      44.198   4.811  12.398  0.00  0.00    +0.000 C 
ENDROOT
BRANCH   1   4
ATOM      2  C   UNL     1      44.775   8.457  11.444  0.00  0.00    +0.000 A 
ATOM      3  C   UNL     1      44.152   7.224  11.630  0.00  0.00    +0.000 A 
ATOM      4  C   UNL     1      44.829   6.181  12.276  0.00  0.00    +0.000 A 
ATOM      5  C   UNL     1      46.144   6.390  12.719  0.00  0.00    +0.000 A 
ATOM      6  C   UNL     1      46.820   7.606  12.500  0.00  0.00    +0.000 A 
ATOM      7  C   UNL     1      46.093   8.639  11.882  0.00  0.00    +0.000 A 
BRANCH   6   8
ATOM      8  C   UNL     1      48.264   7.755  12.808  0.00  0.00    +0.000 A 
ATOM      9  C   UNL     1      49.152   8.286  11.851  0.00  0.00    +0.000 A 
ATOM     10  C   UNL     1      50.497   8.527  12.148  0.00  0.00    +0.000 A 
ATOM     11  C   UNL     1      50.987   8.251  13.418  0.00  0.00    +0.000 A 
ATOM     12  C   UNL     1      50.139   7.712  14.381  0.00  0.00    +0.000 A 
ATOM     13  C   UNL     1      48.797   7.457  14.076  0.00  0.00    +0.000 A 
ENDBRANCH   6   8
BRANCH   2  15
ATOM     14  C   UNL     1      42.815   9.550  10.667  0.00  0.00    +0.000 C 
ATOM     15  O   UNL     1      44.228   9.548  10.826  0.00  0.00    +0.000 OA
ENDBRANCH   2  15
ENDBRANCH   1   4
BRANCH   1  16
ATOM     16  C   UNL     1      43.502   4.419  11.089  0.00  0.00    +0.000 C 
BRANCH  16  17
ATOM     17  N   UNL     1      43.826   3.039  10.705  0.00  0.00    +0.000 N 
ATOM     18  C   UNL     1      44.693   2.977   9.596  0.00  0.00    +0.000 A 
ATOM     19  C   UNL     1      45.086   1.731   9.113  0.00  0.00    +0.000 A 
ATOM     20  C   UNL     1      45.946   1.659   8.014  0.00  0.00    +0.000 A 
ATOM     21  C   UNL     1      46.402   2.834   7.414  0.00  0.00    +0.000 A 
ATOM     22  C   UNL     1      45.977   4.026   7.969  0.00  0.00    +0.000 A 
ATOM     23  N   UNL     1      45.147   4.115   9.035  0.00  0.00    +0.000 NA
ATOM     24  H   UNL     1      42.997   2.488  10.497  0.00  0.00    +0.000 HD
BRANCH  21  25
ATOM     25  C   UNL     1      47.299   2.761   6.233  0.00  0.00    +0.000 C 
ATOM     26  N   UNL     1      48.634   2.538   6.426  0.00  0.00    +0.000 N 
ATOM     27  O   UNL     1      46.861   2.906   5.101  0.00  0.00    +0.000 OA
ATOM     28  H   UNL     1      49.100   2.414   7.311  0.00  0.00    +0.000 HD
ATOM     29  H   UNL     1      49.209   2.504   5.593  0.00  0.00    +0.000 HD
ENDBRANCH  21  25
ENDBRANCH  16  17
ENDBRANCH   1  16
TORSDOF 6
ENDMDL
MODEL 6
REMARK VINA RESULT:    -7.227      3.121      7.275
REMARK INTER + INTRA:         -10.796
REMARK INTER:                  -9.968
REMARK INTRA:                  -0.827
REMARK UNBOUND:                -1.034
REMARK  Name = 
REMARK  7 active torsions:
REMARK  status: ('A' for Active; 'I' for Inactive)
REMARK    1  A    between atoms: C_1  and  O_2
REMARK    2  A    between atoms: O_2  and  C_3
REMARK    3  A    between atoms: C_5  and  C_6
REMARK    4  A    between atoms: C_6  and  C_7
REMARK    5  A    between atoms: C_7  and  N_8
REMARK    6  A    between atoms: C_12  and  C_13
REMARK    7  A    between atoms: C_19  and  C_20
REMARK                            x       y       z     vdW  Elec       q    Type
REMARK                         _______ _______ _______ _____ _____    ______ ____
ROOT
ATOM      1  C   UNL     1      46.120   7.065  11.239  0.00  0.00    +0.000 C 
ENDROOT
BRANCH   1   4
ATOM      2  C   UNL     1      43.879   4.004  10.858  0.00  0.00    +0.000 A 
ATOM      3  C   UNL     1      44.412   5.197  11.342  0.00  0.00    +0.000 A 
ATOM      4  C   UNL     1      45.470   5.822  10.669  0.00  0.00    +0.000 A 
ATOM      5  C   UNL     1      45.992   5.225   9.511  0.00  0.00    +0.000 A 
ATOM      6  C   UNL     1      45.511   3.994   9.026  0.00  0.00    +0.000 A 
ATOM      7  C   UNL     1      44.425   3.419   9.708  0.00  0.00    +0.000 A 
BRANCH   6   8
ATOM      8  C   UNL     1      46.187   3.283   7.912  0.00  0.00    +0.000 A 
ATOM      9  C   UNL     1      46.470   1.906   8.004  0.00  0.00    +0.000 A 
ATOM     10  C   UNL     1      47.017   1.194   6.933  0.00  0.00    +0.000 A 
ATOM     11  C   UNL     1      47.287   1.841   5.735  0.00  0.00    +0.000 A 
ATOM     12  C   UNL     1      47.034   3.204   5.616  0.00  0.00    +0.000 A 
ATOM     13  C   UNL     1      46.501   3.919   6.696  0.00  0.00    +0.000 A 
ENDBRANCH   6   8
BRANCH   2  15
ATOM     14  C   UNL     1      43.203   2.078  12.073  0.00  0.00    +0.000 C 
ATOM     15  O   UNL     1      42.855   3.294  11.423  0.00  0.00    +0.000 OA
ENDBRANCH   2  15
ENDBRANCH   1   4
BRANCH   1  16
ATOM     16  C   UNL     1      47.610   6.822  11.504  0.00  0.00    +0.000 C 
BRANCH  16  17
ATOM     17  N   UNL     1      48.011   7.349  12.815  0.00  0.00    +0.000 N 
ATOM     18  C   UNL     1      47.895   6.388  13.839  0.00  0.00    +0.000 A 
ATOM     19  C   UNL     1      48.236   6.744  15.142  0.00  0.00    +0.000 A 
ATOM     20  C   UNL     1      48.126   5.798  16.165  0.00  0.00    +0.000 A 
ATOM     21  C   UNL     1      47.677   4.510  15.871  0.00  0.00    +0.000 A 
ATOM     22  C   UNL     1      47.379   4.237  14.550  0.00  0.00    +0.000 A 
ATOM     23  N   UNL     1      47.482   5.140  13.545  0.00  0.00    +0.000 NA
ATOM     24  H   UNL     1      47.477   8.171  13.083  0.00  0.00    +0.000 HD
BRANCH  21  25
ATOM     25  C   UNL     1      47.539   3.509  16.959  0.00  0.00    +0.000 C 
ATOM     26  N   UNL     1      48.666   3.029  17.567  0.00  0.00    +0.000 N 
ATOM     27  O   UNL     1      46.438   3.107  17.307  0.00  0.00    +0.000 OA
ATOM     28  H   UNL     1      49.617   3.284  17.355  0.00  0.00    +0.000 HD
ATOM     29  H   UNL     1      48.524   2.343  18.298  0.00  0.00    +0.000 HD
ENDBRANCH  21  25
ENDBRANCH  16  17
ENDBRANCH   1  16
TORSDOF 6
ENDMDL
MODEL 7
REMARK VINA RESULT:    -6.737      4.010      7.853
REMARK INTER + INTRA:         -10.133
REMARK INTER:                  -9.114
REMARK INTRA:                  -1.019
REMARK UNBOUND:                -1.034
REMARK  Name = 
REMARK  7 active torsions:
REMARK  status: ('A' for Active; 'I' for Inactive)
REMARK    1  A    between atoms: C_1  and  O_2
REMARK    2  A    between atoms: O_2  and  C_3
REMARK    3  A    between atoms: C_5  and  C_6
REMARK    4  A    between atoms: C_6  and  C_7
REMARK    5  A    between atoms: C_7  and  N_8
REMARK    6  A    between atoms: C_12  and  C_13
REMARK    7  A    between atoms: C_19  and  C_20
REMARK                            x       y       z     vdW  Elec       q    Type
REMARK                         _______ _______ _______ _____ _____    ______ ____
ROOT
ATOM      1  C   UNL     1      48.241   8.949  13.051  0.00  0.00    +0.000 C 
ENDROOT
BRANCH   1   4
ATOM      2  C   UNL     1      44.759   9.452  11.580  0.00  0.00    +0.000 A 
ATOM      3  C   UNL     1      46.023   9.721  12.104  0.00  0.00    +0.000 A 
ATOM      4  C   UNL     1      46.905   8.673  12.394  0.00  0.00    +0.000 A 
ATOM      5  C   UNL     1      46.496   7.350  12.162  0.00  0.00    +0.000 A 
ATOM      6  C   UNL     1      45.208   7.042  11.684  0.00  0.00    +0.000 A 
ATOM      7  C   UNL     1      44.367   8.123  11.371  0.00  0.00    +0.000 A 
BRANCH   6   8
ATOM      8  C   UNL     1      44.723   5.641  11.616  0.00  0.00    +0.000 A 
ATOM      9  C   UNL     1      44.093   5.043  12.725  0.00  0.00    +0.000 A 
ATOM     10  C   UNL     1      43.541   3.761  12.657  0.00  0.00    +0.000 A 
ATOM     11  C   UNL     1      43.598   3.044  11.469  0.00  0.00    +0.000 A 
ATOM     12  C   UNL     1      44.228   3.600  10.359  0.00  0.00    +0.000 A 
ATOM     13  C   UNL     1      44.793   4.878  10.435  0.00  0.00    +0.000 A 
ENDBRANCH   6   8
BRANCH   2  15
ATOM     14  C   UNL     1      42.661   9.908  10.566  0.00  0.00    +0.000 C 
ATOM     15  O   UNL     1      43.807  10.381  11.262  0.00  0.00    +0.000 OA
ENDBRANCH   2  15
ENDBRANCH   1   4
BRANCH   1  16
ATOM     16  C   UNL     1      49.059   7.658  13.172  0.00  0.00    +0.000 C 
BRANCH  16  17
ATOM     17  N   UNL     1      49.733   7.574  14.475  0.00  0.00    +0.000 N 
ATOM     18  C   UNL     1      49.204   6.553  15.290  0.00  0.00    +0.000 A 
ATOM     19  C   UNL     1      49.741   6.357  16.560  0.00  0.00    +0.000 A 
ATOM     20  C   UNL     1      49.224   5.346  17.376  0.00  0.00    +0.000 A 
ATOM     21  C   UNL     1      48.180   4.546  16.910  0.00  0.00    +0.000 A 
ATOM     22  C   UNL     1      47.721   4.798  15.631  0.00  0.00    +0.000 A 
ATOM     23  N   UNL     1      48.211   5.771  14.826  0.00  0.00    +0.000 NA
ATOM     24  H   UNL     1      49.693   8.450  14.990  0.00  0.00    +0.000 HD
BRANCH  21  25
ATOM     25  C   UNL     1      47.615   3.485  17.782  0.00  0.00    +0.000 C 
ATOM     26  N   UNL     1      48.272   3.154  18.935  0.00  0.00    +0.000 N 
ATOM     27  O   UNL     1      46.583   2.905  17.478  0.00  0.00    +0.000 OA
ATOM     28  H   UNL     1      49.129   3.560  19.275  0.00  0.00    +0.000 HD
ATOM     29  H   UNL     1      47.855   2.420  19.494  0.00  0.00    +0.000 HD
ENDBRANCH  21  25
ENDBRANCH  16  17
ENDBRANCH   1  16
TORSDOF 6
ENDMDL
MODEL 8
REMARK VINA RESULT:    -6.559      4.312      7.041
REMARK INTER + INTRA:          -9.894
REMARK INTER:                  -9.185
REMARK INTRA:                  -0.709
REMARK UNBOUND:                -1.034
REMARK  Name = 
REMARK  7 active torsions:
REMARK  status: ('A' for Active; 'I' for Inactive)
REMARK    1  A    between atoms: C_1  and  O_2
REMARK    2  A    between atoms: O_2  and  C_3
REMARK    3  A    between atoms: C_5  and  C_6
REMARK    4  A    between atoms: C_6  and  C_7
REMARK    5  A    between atoms: C_7  and  N_8
REMARK    6  A    between atoms: C_12  and  C_13
REMARK    7  A    between atoms: C_19  and  C_20
REMARK                            x       y       z     vdW  Elec       q    Type
REMARK                         _______ _______ _______ _____ _____    ______ ____
ROOT
ATOM      1  C   UNL     1      47.076   3.949  17.061  0.00  0.00    +0.000 C 
ENDROOT
BRANCH   1   4
ATOM      2  C   UNL     1      49.733   5.591  19.246  0.00  0.00    +0.000 A 
ATOM      3  C   UNL     1      48.514   5.328  18.624  0.00  0.00    +0.000 A 
ATOM      4  C   UNL     1      48.364   4.193  17.817  0.00  0.00    +0.000 A 
ATOM      5  C   UNL     1      49.459   3.334  17.634  0.00  0.00    +0.000 A 
ATOM      6  C   UNL     1      50.718   3.600  18.206  0.00  0.00    +0.000 A 
ATOM      7  C   UNL     1      50.816   4.728  19.039  0.00  0.00    +0.000 A 
BRANCH   6   8
ATOM      8  C   UNL     1      51.912   2.789  17.861  0.00  0.00    +0.000 A 
ATOM      9  C   UNL     1      53.207   3.334  17.967  0.00  0.00    +0.000 A 
ATOM     10  C   UNL     1      54.351   2.564  17.741  0.00  0.00    +0.000 A 
ATOM     11  C   UNL     1      54.229   1.221  17.411  0.00  0.00    +0.000 A 
ATOM     12  C   UNL     1      52.964   0.655  17.283  0.00  0.00    +0.000 A 
ATOM     13  C   UNL     1      51.819   1.433  17.494  0.00  0.00    +0.000 A 
ENDBRANCH   6   8
BRANCH   2  15
ATOM     14  C   UNL     1      49.671   7.948  19.541  0.00  0.00    +0.000 C 
ATOM     15  O   UNL     1      50.009   6.664  20.050  0.00  0.00    +0.000 OA
ENDBRANCH   2  15
ENDBRANCH   1   4
BRANCH   1  16
ATOM     16  C   UNL     1      47.343   3.866  15.553  0.00  0.00    +0.000 C 
BRANCH  16  17
ATOM     17  N   UNL     1      46.800   5.035  14.850  0.00  0.00    +0.000 N 
ATOM     18  C   UNL     1      46.160   4.689  13.643  0.00  0.00    +0.000 A 
ATOM     19  C   UNL     1      45.599   5.697  12.862  0.00  0.00    +0.000 A 
ATOM     20  C   UNL     1      44.961   5.364  11.664  0.00  0.00    +0.000 A 
ATOM     21  C   UNL     1      44.893   4.028  11.264  0.00  0.00    +0.000 A 
ATOM     22  C   UNL     1      45.459   3.093  12.108  0.00  0.00    +0.000 A 
ATOM     23  N   UNL     1      46.078   3.396  13.274  0.00  0.00    +0.000 NA
ATOM     24  H   UNL     1      47.512   5.732  14.648  0.00  0.00    +0.000 HD
BRANCH  21  25
ATOM     25  C   UNL     1      44.234   3.674   9.981  0.00  0.00    +0.000 C 
ATOM     26  N   UNL     1      43.933   4.668   9.092  0.00  0.00    +0.000 N 
ATOM     27  O   UNL     1      43.953   2.513   9.719  0.00  0.00    +0.000 OA
ATOM     28  H   UNL     1      44.112   5.653   9.210  0.00  0.00    +0.000 HD
ATOM     29  H   UNL     1      43.478   4.381   8.235  0.00  0.00    +0.000 HD
ENDBRANCH  21  25
ENDBRANCH  16  17
ENDBRANCH   1  16
TORSDOF 6
ENDMDL
MODEL 9
REMARK VINA RESULT:    -6.323      4.508      8.235
REMARK INTER + INTRA:          -9.575
REMARK INTER:                  -8.862
REMARK INTRA:                  -0.713
REMARK UNBOUND:                -1.034
REMARK  Name = 
REMARK  7 active torsions:
REMARK  status: ('A' for Active; 'I' for Inactive)
REMARK    1  A    between atoms: C_1  and  O_2
REMARK    2  A    between atoms: O_2  and  C_3
REMARK    3  A    between atoms: C_5  and  C_6
REMARK    4  A    between atoms: C_6  and  C_7
REMARK    5  A    between atoms: C_7  and  N_8
REMARK    6  A    between atoms: C_12  and  C_13
REMARK    7  A    between atoms: C_19  and  C_20
REMARK                            x       y       z     vdW  Elec       q    Type
REMARK                         _______ _______ _______ _____ _____    ______ ____
ROOT
ATOM      1  C   UNL     1      48.863   7.345  13.560  0.00  0.00    +0.000 C 
ENDROOT
BRANCH   1   4
ATOM      2  C   UNL     1      45.489   8.704  12.416  0.00  0.00    +0.000 A 
ATOM      3  C   UNL     1      46.734   8.614  13.036  0.00  0.00    +0.000 A 
ATOM      4  C   UNL     1      47.553   7.498  12.817  0.00  0.00    +0.000 A 
ATOM      5  C   UNL     1      47.098   6.470  11.976  0.00  0.00    +0.000 A 
ATOM      6  C   UNL     1      45.825   6.507  11.376  0.00  0.00    +0.000 A 
ATOM      7  C   UNL     1      45.050   7.660  11.592  0.00  0.00    +0.000 A 
BRANCH   6   8
ATOM      8  C   UNL     1      45.282   5.339  10.639  0.00  0.00    +0.000 A 
ATOM      9  C   UNL     1      45.629   5.113   9.293  0.00  0.00    +0.000 A 
ATOM     10  C   UNL     1      45.210   3.970   8.606  0.00  0.00    +0.000 A 
ATOM     11  C   UNL     1      44.438   3.016   9.254  0.00  0.00    +0.000 A 
ATOM     12  C   UNL     1      44.064   3.216  10.579  0.00  0.00    +0.000 A 
ATOM     13  C   UNL     1      44.472   4.369  11.260  0.00  0.00    +0.000 A 
ENDBRANCH   6   8
BRANCH   2  15
ATOM     14  C   UNL     1      44.021  10.241  11.356  0.00  0.00    +0.000 C 
ATOM     15  O   UNL     1      44.597   9.733  12.552  0.00  0.00    +0.000 OA
ENDBRANCH   2  15
ENDBRANCH   1   4
BRANCH   1  16
ATOM     16  C   UNL     1      48.667   7.606  15.058  0.00  0.00    +0.000 C 
BRANCH  16  17
ATOM     17  N   UNL     1      48.178   6.406  15.750  0.00  0.00    +0.000 N 
ATOM     18  C   UNL     1      49.207   5.714  16.420  0.00  0.00    +0.000 A 
ATOM     19  C   UNL     1      48.895   4.550  17.118  0.00  0.00    +0.000 A 
ATOM     20  C   UNL     1      49.908   3.858  17.787  0.00  0.00    +0.000 A 
ATOM     21  C   UNL     1      51.218   4.339  17.750  0.00  0.00    +0.000 A 
ATOM     22  C   UNL     1      51.434   5.510  17.050  0.00  0.00    +0.000 A 
ATOM     23  N   UNL     1      50.465   6.196  16.398  0.00  0.00    +0.000 NA
ATOM     24  H   UNL     1      47.712   5.758  15.120  0.00  0.00    +0.000 HD
BRANCH  21  25
ATOM     25  C   UNL     1      52.299   3.594  18.443  0.00  0.00    +0.000 C 
ATOM     26  N   UNL     1      52.514   3.820  19.774  0.00  0.00    +0.000 N 
ATOM     27  O   UNL     1      52.998   2.794  17.837  0.00  0.00    +0.000 OA
ATOM     28  H   UNL     1      52.006   4.459  20.364  0.00  0.00    +0.000 HD
ATOM     29  H   UNL     1      53.267   3.295  20.202  0.00  0.00    +0.000 HD
ENDBRANCH  21  25
ENDBRANCH  16  17
ENDBRANCH   1  16
TORSDOF 6
ENDMDL
