MODEL 1
REMARK VINA RESULT:    -8.345      0.000      0.000
REMARK INTER + INTRA:         -13.135
REMARK INTER:                 -12.248
REMARK INTRA:                  -0.887
REMARK UNBOUND:                -0.887
REMARK  Name = 
REMARK  9 active torsions:
REMARK  status: ('A' for Active; 'I' for Inactive)
REMARK    1  A    between atoms: C_1  and  O_2
REMARK    2  A    between atoms: O_2  and  C_3
REMARK    3  A    between atoms: C_3  and  C_4
REMARK    4  A    between atoms: C_4  and  N_5
REMARK    5  A    between atoms: C_4  and  C_18
REMARK    6  A    between atoms: C_6  and  C_8
REMARK    7  A    between atoms: C_21  and  O_22
REMARK    8  A    between atoms: O_22  and  C_23
REMARK    9  A    between atoms: C_23  and  C_24
REMARK                            x       y       z     vdW  Elec       q    Type
REMARK                         _______ _______ _______ _____ _____    ______ ____
ROOT
ATOM      1  C   UNL     1      46.632   7.923  12.760  0.00  0.00    +0.000 C 
ENDROOT
BRANCH   1   2
ATOM      2  C   UNL     1      46.020   6.756  11.999  0.00  0.00    +0.000 A 
ATOM      3  C   UNL     1      45.000   5.975  12.555  0.00  0.00    +0.000 A 
ATOM      4  C   UNL     1      44.396   4.963  11.799  0.00  0.00    +0.000 A 
ATOM      5  C   UNL     1      44.790   4.737  10.480  0.00  0.00    +0.000 A 
ATOM      6  C   UNL     1      45.856   5.456   9.948  0.00  0.00    +0.000 A 
ATOM      7  C   UNL     1      46.457   6.460  10.698  0.00  0.00    +0.000 A 
BRANCH   5   8
ATOM      8  O   UNL     1      44.072   3.810   9.774  0.00  0.00    +0.000 OA
BRANCH   8   9
ATOM      9  C   UNL     1      44.697   2.518   9.713  0.00  0.00    +0.000 C 
BRANCH   9  10
ATOM     10  C   UNL     1      45.520   2.342   8.460  0.00  0.00    +0.000 A 
ATOM     11  C   UNL     1      45.591   3.349   7.501  0.00  0.00    +0.000 A 
ATOM     12  C   UNL     1      46.429   3.175   6.405  0.00  0.00    +0.000 A 
ATOM     13  C   UNL     1      47.184   2.013   6.301  0.00  0.00    +0.000 A 
ATOM     14  C   UNL     1      47.071   1.069   7.306  0.00  0.00    +0.000 A 
ATOM     15  N   UNL     1      46.265   1.207   8.380  0.00  0.00    +0.000 NA
ENDBRANCH   9  10
ENDBRANCH   8   9
ENDBRANCH   5   8
ENDBRANCH   1   2
BRANCH   1  16
ATOM     16  N   UNL     1      47.135   7.446  14.045  0.00  0.00    +0.000 N 
ATOM     17  C   UNL     1      48.385   6.909  14.212  0.00  0.00    +0.000 C 
ATOM     18  O   UNL     1      49.229   6.901  13.324  0.00  0.00    +0.000 OA
ATOM     19  H   UNL     1      46.438   7.281  14.761  0.00  0.00    +0.000 HD
BRANCH  17  20
ATOM     20  C   UNL     1      48.673   6.371  15.551  0.00  0.00    +0.000 A 
ATOM     21  C   UNL     1      49.584   7.020  16.373  0.00  0.00    +0.000 A 
ATOM     22  S   UNL     1      49.811   6.255  17.882  0.00  0.00    +0.000 S 
ATOM     23  C   UNL     1      48.743   4.998  17.466  0.00  0.00    +0.000 A 
ATOM     24  N   UNL     1      48.521   3.957  18.316  0.00  0.00    +0.000 NA
ATOM     25  C   UNL     1      47.729   3.048  17.854  0.00  0.00    +0.000 A 
ATOM     26  N   UNL     1      47.121   3.095  16.625  0.00  0.00    +0.000 N 
ATOM     27  C   UNL     1      47.235   4.175  15.785  0.00  0.00    +0.000 A 
ATOM     28  O   UNL     1      46.532   4.267  14.783  0.00  0.00    +0.000 OA
ATOM     29  C   UNL     1      48.178   5.186  16.219  0.00  0.00    +0.000 A 
ATOM     30  H   UNL     1      46.474   2.374  16.344  0.00  0.00    +0.000 HD
ENDBRANCH  17  20
ENDBRANCH   1  16
BRANCH   1  31
ATOM     31  C   UNL     1      45.569   9.029  12.960  0.00  0.00    +0.000 C 
BRANCH  31  33
ATOM     32  C   UNL     1      44.317  10.611  11.752  0.00  0.00    +0.000 C 
ATOM     33  O   UNL     1      45.573   9.956  11.868  0.00  0.00    +0.000 OA
ENDBRANCH  31  33
ENDBRANCH   1  31
TORSDOF 8
ENDMDL
MODEL 2
REMARK VINA RESULT:    -8.068      1.991      2.550
REMARK INTER + INTRA:         -12.728
REMARK INTER:                 -11.454
REMARK INTRA:                  -1.274
REMARK UNBOUND:                -0.887
REMARK  Name = 
REMARK  9 active torsions:
REMARK  status: ('A' for Active; 'I' for Inactive)
REMARK    1  A    between atoms: C_1  and  O_2
REMARK    2  A    between atoms: O_2  and  C_3
REMARK    3  A    between atoms: C_3  and  C_4
REMARK    4  A    between atoms: C_4  and  N_5
REMARK    5  A    between atoms: C_4  and  C_18
REMARK    6  A    between atoms: C_6  and  C_8
REMARK    7  A    between atoms: C_21  and  O_22
REMARK    8  A    between atoms: O_22  and  C_23
REMARK    9  A    between atoms: C_23  and  C_24
REMARK                            x       y       z     vdW  Elec       q    Type
REMARK                         _______ _______ _______ _____ _____    ______ ____
ROOT
ATOM      1  C   UNL     1      48.212   6.955  13.292  0.00  0.00    +0.000 C 
ENDROOT
BRANCH   1   2
ATOM      2  C   UNL     1      47.051   6.163  12.709  0.00  0.00    +0.000 A 
ATOM      3  C   UNL     1      46.342   6.622  11.592  0.00  0.00    +0.000 A 
ATOM      4  C   UNL     1      45.335   5.833  11.024  0.00  0.00    +0.000 A 
ATOM      5  C   UNL     1      45.044   4.573  11.550  0.00  0.00    +0.000 A 
ATOM      6  C   UNL     1      45.691   4.145  12.706  0.00  0.00    +0.000 A 
ATOM      7  C   UNL     1      46.689   4.929  13.271  0.00  0.00    +0.000 A 
BRANCH   5   8
ATOM      8  O   UNL     1      44.130   3.818  10.867  0.00  0.00    +0.000 OA
BRANCH   8   9
ATOM      9  C   UNL     1      44.077   4.106   9.460  0.00  0.00    +0.000 C 
BRANCH   9  10
ATOM     10  C   UNL     1      45.170   3.401   8.693  0.00  0.00    +0.000 A 
ATOM     11  C   UNL     1      45.381   2.032   8.841  0.00  0.00    +0.000 A 
ATOM     12  C   UNL     1      46.343   1.413   8.051  0.00  0.00    +0.000 A 
ATOM     13  C   UNL     1      47.055   2.167   7.125  0.00  0.00    +0.000 A 
ATOM     14  C   UNL     1      46.771   3.518   7.026  0.00  0.00    +0.000 A 
ATOM     15  N   UNL     1      45.847   4.148   7.781  0.00  0.00    +0.000 NA
ENDBRANCH   9  10
ENDBRANCH   8   9
ENDBRANCH   5   8
ENDBRANCH   1   2
BRANCH   1  16
ATOM     16  N   UNL     1      48.074   7.007  14.746  0.00  0.00    +0.000 N 
ATOM     17  C   UNL     1      49.132   6.884  15.608  0.00  0.00    +0.000 C 
ATOM     18  O   UNL     1      50.297   6.848  15.229  0.00  0.00    +0.000 OA
ATOM     19  H   UNL     1      47.137   6.875  15.107  0.00  0.00    +0.000 HD
BRANCH  17  20
ATOM     20  C   UNL     1      48.787   6.840  17.037  0.00  0.00    +0.000 A 
ATOM     21  C   UNL     1      48.451   8.011  17.702  0.00  0.00    +0.000 A 
ATOM     22  S   UNL     1      48.093   7.781  19.356  0.00  0.00    +0.000 S 
ATOM     23  C   UNL     1      48.432   6.117  19.253  0.00  0.00    +0.000 A 
ATOM     24  N   UNL     1      48.369   5.320  20.356  0.00  0.00    +0.000 NA
ATOM     25  C   UNL     1      48.700   4.090  20.146  0.00  0.00    +0.000 A 
ATOM     26  N   UNL     1      49.068   3.578  18.928  0.00  0.00    +0.000 N 
ATOM     27  C   UNL     1      49.041   4.322  17.775  0.00  0.00    +0.000 A 
ATOM     28  O   UNL     1      49.194   3.789  16.680  0.00  0.00    +0.000 OA
ATOM     29  C   UNL     1      48.758   5.731  17.967  0.00  0.00    +0.000 A 
ATOM     30  H   UNL     1      49.269   2.595  18.823  0.00  0.00    +0.000 HD
ENDBRANCH  17  20
ENDBRANCH   1  16
BRANCH   1  31
ATOM     31  C   UNL     1      48.229   8.378  12.688  0.00  0.00    +0.000 C 
BRANCH  31  33
ATOM     32  C   UNL     1      50.214   7.716  11.614  0.00  0.00    +0.000 C 
ATOM     33  O   UNL     1      49.555   8.766  12.310  0.00  0.00    +0.000 OA
ENDBRANCH  31  33
ENDBRANCH   1  31
TORSDOF 8
ENDMDL
MODEL 3
REMARK VINA RESULT:    -7.948      2.066      2.804
REMARK INTER + INTRA:         -12.552
REMARK INTER:                 -11.297
REMARK INTRA:                  -1.255
REMARK UNBOUND:                -0.887
REMARK  Name = 
REMARK  9 active torsions:
REMARK  status: ('A' for Active; 'I' for Inactive)
REMARK    1  A    between atoms: C_1  and  O_2
REMARK    2  A    between atoms: O_2  and  C_3
REMARK    3  A    between atoms: C_3  and  C_4
REMARK    4  A    between atoms: C_4  and  N_5
REMARK    5  A    between atoms: C_4  and  C_18
REMARK    6  A    between atoms: C_6  and  C_8
REMARK    7  A    between atoms: C_21  and  O_22
REMARK    8  A    between atoms: O_22  and  C_23
REMARK    9  A    between atoms: C_23  and  C_24
REMARK                            x       y       z     vdW  Elec       q    Type
REMARK                         _______ _______ _______ _____ _____    ______ ____
ROOT
ATOM      1  C   UNL     1      47.751   6.658  13.548  0.00  0.00    +0.000 C 
ENDROOT
BRANCH   1   2
ATOM      2  C   UNL     1      46.747   5.816  12.776  0.00  0.00    +0.000 A 
ATOM      3  C   UNL     1      46.197   6.259  11.567  0.00  0.00    +0.000 A 
ATOM      4  C   UNL     1      45.343   5.426  10.834  0.00  0.00    +0.000 A 
ATOM      5  C   UNL     1      45.048   4.141  11.290  0.00  0.00    +0.000 A 
ATOM      6  C   UNL     1      45.528   3.724  12.528  0.00  0.00    +0.000 A 
ATOM      7  C   UNL     1      46.375   4.550  13.256  0.00  0.00    +0.000 A 
BRANCH   5   8
ATOM      8  O   UNL     1      44.301   3.350  10.460  0.00  0.00    +0.000 OA
BRANCH   8   9
ATOM      9  C   UNL     1      44.355   3.747   9.080  0.00  0.00    +0.000 C 
BRANCH   9  10
ATOM     10  C   UNL     1      45.401   2.980   8.307  0.00  0.00    +0.000 A 
ATOM     11  C   UNL     1      46.266   3.630   7.430  0.00  0.00    +0.000 A 
ATOM     12  C   UNL     1      47.267   2.894   6.806  0.00  0.00    +0.000 A 
ATOM     13  C   UNL     1      47.390   1.538   7.083  0.00  0.00    +0.000 A 
ATOM     14  C   UNL     1      46.503   0.971   7.981  0.00  0.00    +0.000 A 
ATOM     15  N   UNL     1      45.519   1.658   8.599  0.00  0.00    +0.000 NA
ENDBRANCH   9  10
ENDBRANCH   8   9
ENDBRANCH   5   8
ENDBRANCH   1   2
BRANCH   1  16
ATOM     16  N   UNL     1      47.753   6.239  14.947  0.00  0.00    +0.000 N 
ATOM     17  C   UNL     1      48.879   6.225  15.728  0.00  0.00    +0.000 C 
ATOM     18  O   UNL     1      49.953   6.683  15.354  0.00  0.00    +0.000 OA
ATOM     19  H   UNL     1      46.946   5.709  15.252  0.00  0.00    +0.000 HD
BRANCH  17  20
ATOM     20  C   UNL     1      48.714   5.658  17.075  0.00  0.00    +0.000 A 
ATOM     21  C   UNL     1      48.906   4.298  17.279  0.00  0.00    +0.000 A 
ATOM     22  S   UNL     1      48.660   3.807  18.895  0.00  0.00    +0.000 S 
ATOM     23  C   UNL     1      48.233   5.384  19.367  0.00  0.00    +0.000 A 
ATOM     24  N   UNL     1      47.848   5.654  20.646  0.00  0.00    +0.000 NA
ATOM     25  C   UNL     1      47.502   6.880  20.853  0.00  0.00    +0.000 A 
ATOM     26  N   UNL     1      47.525   7.869  19.902  0.00  0.00    +0.000 N 
ATOM     27  C   UNL     1      48.006   7.662  18.633  0.00  0.00    +0.000 A 
ATOM     28  O   UNL     1      48.188   8.606  17.869  0.00  0.00    +0.000 OA
ATOM     29  C   UNL     1      48.329   6.284  18.322  0.00  0.00    +0.000 A 
ATOM     30  H   UNL     1      47.288   8.819  20.143  0.00  0.00    +0.000 HD
ENDBRANCH  17  20
ENDBRANCH   1  16
BRANCH   1  31
ATOM     31  C   UNL     1      47.383   8.155  13.421  0.00  0.00    +0.000 C 
BRANCH  31  33
ATOM     32  C   UNL     1      49.408   8.094  12.226  0.00  0.00    +0.000 C 
ATOM     33  O   UNL     1      48.487   8.921  12.926  0.00  0.00    +0.000 OA
ENDBRANCH  31  33
ENDBRANCH   1  31
TORSDOF 8
ENDMDL
MODEL 4
REMARK VINA RESULT:    -7.641      2.425      4.822
REMARK INTER + INTRA:         -12.102
REMARK INTER:                 -10.760
REMARK INTRA:                  -1.342
REMARK UNBOUND:                -0.887
REMARK  Name = 
REMARK  9 active torsions:
REMARK  status: ('A' for Active; 'I' for Inactive)
REMARK    1  A    between atoms: C_1  and  O_2
REMARK    2  A    between atoms: O_2  and  C_3
REMARK    3  A    between atoms: C_3  and  C_4
REMARK    4  A    between atoms: C_4  and  N_5
REMARK    5  A    between atoms: C_4  and  C_18
REMARK    6  A    between atoms: C_6  and  C_8
REMARK    7  A    between atoms: C_21  and  O_22
REMARK    8  A    between atoms: O_22  and  C_23
REMARK    9  A    between atoms: C_23  and  C_24
REMARK                            x       y       z     vdW  Elec       q    Type
REMARK                         _______ _______ _______ _____ _____    ______ ____
ROOT
ATOM      1  C   UNL     1      46.858   5.514  14.053  0.00  0.00    +0.000 C 
ENDROOT
BRANCH   1   2
ATOM      2  C   UNL     1      46.034   5.060  12.858  0.00  0.00    +0.000 A 
ATOM      3  C   UNL     1      46.033   5.778  11.656  0.00  0.00    +0.000 A 
ATOM      4  C   UNL     1      45.335   5.291  10.545  0.00  0.00    +0.000 A 
ATOM      5  C   UNL     1      44.651   4.077  10.617  0.00  0.00    +0.000 A 
ATOM      6  C   UNL     1      44.583   3.398  11.831  0.00  0.00    +0.000 A 
ATOM      7  C   UNL     1      45.275   3.882  12.934  0.00  0.00    +0.000 A 
BRANCH   5   8
ATOM      8  O   UNL     1      44.093   3.615   9.456  0.00  0.00    +0.000 OA
BRANCH   8   9
ATOM      9  C   UNL     1      44.469   2.268   9.129  0.00  0.00    +0.000 C 
BRANCH   9  10
ATOM     10  C   UNL     1      45.581   2.218   8.109  0.00  0.00    +0.000 A 
ATOM     11  C   UNL     1      45.846   3.308   7.283  0.00  0.00    +0.000 A 
ATOM     12  C   UNL     1      46.933   3.246   6.419  0.00  0.00    +0.000 A 
ATOM     13  C   UNL     1      47.735   2.111   6.411  0.00  0.00    +0.000 A 
ATOM     14  C   UNL     1      47.416   1.079   7.276  0.00  0.00    +0.000 A 
ATOM     15  N   UNL     1      46.365   1.108   8.124  0.00  0.00    +0.000 NA
ENDBRANCH   9  10
ENDBRANCH   8   9
ENDBRANCH   5   8
ENDBRANCH   1   2
BRANCH   1  16
ATOM     16  N   UNL     1      47.958   6.354  13.586  0.00  0.00    +0.000 N 
ATOM     17  C   UNL     1      48.639   7.223  14.397  0.00  0.00    +0.000 C 
ATOM     18  O   UNL     1      48.468   7.274  15.610  0.00  0.00    +0.000 OA
ATOM     19  H   UNL     1      48.032   6.469  12.583  0.00  0.00    +0.000 HD
BRANCH  17  20
ATOM     20  C   UNL     1      49.634   8.074  13.727  0.00  0.00    +0.000 A 
ATOM     21  C   UNL     1      50.966   8.014  14.114  0.00  0.00    +0.000 A 
ATOM     22  S   UNL     1      51.980   9.077  13.243  0.00  0.00    +0.000 S 
ATOM     23  C   UNL     1      50.665   9.695  12.359  0.00  0.00    +0.000 A 
ATOM     24  N   UNL     1      50.838  10.699  11.455  0.00  0.00    +0.000 NA
ATOM     25  C   UNL     1      49.749  11.107  10.894  0.00  0.00    +0.000 A 
ATOM     26  N   UNL     1      48.504  10.588  11.138  0.00  0.00    +0.000 N 
ATOM     27  C   UNL     1      48.302   9.507  11.961  0.00  0.00    +0.000 A 
ATOM     28  O   UNL     1      47.208   8.952  12.011  0.00  0.00    +0.000 OA
ATOM     29  C   UNL     1      49.478   9.063  12.681  0.00  0.00    +0.000 A 
ATOM     30  H   UNL     1      47.699  10.921  10.629  0.00  0.00    +0.000 HD
ENDBRANCH  17  20
ENDBRANCH   1  16
BRANCH   1  31
ATOM     31  C   UNL     1      47.393   4.280  14.817  0.00  0.00    +0.000 C 
BRANCH  31  33
ATOM     32  C   UNL     1      47.518   4.118  17.160  0.00  0.00    +0.000 C 
ATOM     33  O   UNL     1      46.660   4.061  16.028  0.00  0.00    +0.000 OA
ENDBRANCH  31  33
ENDBRANCH   1  31
TORSDOF 8
ENDMDL
MODEL 5
REMARK VINA RESULT:    -7.256      2.479      3.409
REMARK INTER + INTRA:         -11.537
REMARK INTER:                  -9.980
REMARK INTRA:                  -1.556
REMARK UNBOUND:                -0.887
REMARK  Name = 
REMARK  9 active torsions:
REMARK  status: ('A' for Active; 'I' for Inactive)
REMARK    1  A    between atoms: C_1  and  O_2
REMARK    2  A    between atoms: O_2  and  C_3
REMARK    3  A    between atoms: C_3  and  C_4
REMARK    4  A    between atoms: C_4  and  N_5
REMARK    5  A    between atoms: C_4  and  C_18
REMARK    6  A    between atoms: C_6  and  C_8
REMARK    7  A    between atoms: C_21  and  O_22
REMARK    8  A    between atoms: O_22  and  C_23
REMARK    9  A    between atoms: C_23  and  C_24
REMARK                            x       y       z     vdW  Elec       q    Type
REMARK                         _______ _______ _______ _____ _____    ______ ____
ROOT
ATOM      1  C   UNL     1      48.368   7.048  14.235  0.00  0.00    +0.000 C 
ENDROOT
BRANCH   1   2
ATOM      2  C   UNL     1      47.257   6.288  13.526  0.00  0.00    +0.000 A 
ATOM      3  C   UNL     1      47.095   4.908  13.693  0.00  0.00    +0.000 A 
ATOM      4  C   UNL     1      46.013   4.249  13.098  0.00  0.00    +0.000 A 
ATOM      5  C   UNL     1      45.074   4.963  12.352  0.00  0.00    +0.000 A 
ATOM      6  C   UNL     1      45.273   6.321  12.117  0.00  0.00    +0.000 A 
ATOM      7  C   UNL     1      46.348   6.975  12.706  0.00  0.00    +0.000 A 
BRANCH   5   8
ATOM      8  O   UNL     1      43.986   4.266  11.903  0.00  0.00    +0.000 OA
BRANCH   8   9
ATOM      9  C   UNL     1      43.632   4.559  10.542  0.00  0.00    +0.000 C 
BRANCH   9  10
ATOM     10  C   UNL     1      44.497   3.813   9.555  0.00  0.00    +0.000 A 
ATOM     11  C   UNL     1      45.355   4.494   8.694  0.00  0.00    +0.000 A 
ATOM     12  C   UNL     1      46.193   3.759   7.863  0.00  0.00    +0.000 A 
ATOM     13  C   UNL     1      46.168   2.371   7.922  0.00  0.00    +0.000 A 
ATOM     14  C   UNL     1      45.300   1.771   8.818  0.00  0.00    +0.000 A 
ATOM     15  N   UNL     1      44.472   2.456   9.635  0.00  0.00    +0.000 NA
ENDBRANCH   9  10
ENDBRANCH   8   9
ENDBRANCH   5   8
ENDBRANCH   1   2
BRANCH   1  16
ATOM     16  N   UNL     1      48.270   6.810  15.673  0.00  0.00    +0.000 N 
ATOM     17  C   UNL     1      49.307   6.329  16.428  0.00  0.00    +0.000 C 
ATOM     18  O   UNL     1      50.440   6.179  15.985  0.00  0.00    +0.000 OA
ATOM     19  H   UNL     1      47.332   6.763  16.051  0.00  0.00    +0.000 HD
BRANCH  17  20
ATOM     20  C   UNL     1      48.988   6.037  17.835  0.00  0.00    +0.000 A 
ATOM     21  C   UNL     1      49.211   4.764  18.342  0.00  0.00    +0.000 A 
ATOM     22  S   UNL     1      48.774   4.595  19.984  0.00  0.00    +0.000 S 
ATOM     23  C   UNL     1      48.218   6.201  20.057  0.00  0.00    +0.000 A 
ATOM     24  N   UNL     1      47.653   6.697  21.193  0.00  0.00    +0.000 NA
ATOM     25  C   UNL     1      47.229   7.911  21.094  0.00  0.00    +0.000 A 
ATOM     26  N   UNL     1      47.335   8.685  19.967  0.00  0.00    +0.000 N 
ATOM     27  C   UNL     1      47.990   8.260  18.837  0.00  0.00    +0.000 A 
ATOM     28  O   UNL     1      48.230   9.039  17.920  0.00  0.00    +0.000 OA
ATOM     29  C   UNL     1      48.413   6.874  18.865  0.00  0.00    +0.000 A 
ATOM     30  H   UNL     1      47.025   9.645  19.971  0.00  0.00    +0.000 HD
ENDBRANCH  17  20
ENDBRANCH   1  16
BRANCH   1  31
ATOM     31  C   UNL     1      48.253   8.558  13.917  0.00  0.00    +0.000 C 
BRANCH  31  33
ATOM     32  C   UNL     1      50.414   8.384  13.005  0.00  0.00    +0.000 C 
ATOM     33  O   UNL     1      49.545   9.167  13.814  0.00  0.00    +0.000 OA
ENDBRANCH  31  33
ENDBRANCH   1  31
TORSDOF 8
ENDMDL
MODEL 6
REMARK VINA RESULT:    -7.178      3.311      5.474
REMARK INTER + INTRA:         -11.421
REMARK INTER:                 -10.082
REMARK INTRA:                  -1.340
REMARK UNBOUND:                -0.887
REMARK  Name = 
REMARK  9 active torsions:
REMARK  status: ('A' for Active; 'I' for Inactive)
REMARK    1  A    between atoms: C_1  and  O_2
REMARK    2  A    between atoms: O_2  and  C_3
REMARK    3  A    between atoms: C_3  and  C_4
REMARK    4  A    between atoms: C_4  and  N_5
REMARK    5  A    between atoms: C_4  and  C_18
REMARK    6  A    between atoms: C_6  and  C_8
REMARK    7  A    between atoms: C_21  and  O_22
REMARK    8  A    between atoms: O_22  and  C_23
REMARK    9  A    between atoms: C_23  and  C_24
REMARK                            x       y       z     vdW  Elec       q    Type
REMARK                         _______ _______ _______ _____ _____    ______ ____
ROOT
ATOM      1  C   UNL     1      47.239   6.705  13.399  0.00  0.00    +0.000 C 
ENDROOT
BRANCH   1   2
ATOM      2  C   UNL     1      46.301   5.910  12.504  0.00  0.00    +0.000 A 
ATOM      3  C   UNL     1      45.844   6.424  11.284  0.00  0.00    +0.000 A 
ATOM      4  C   UNL     1      45.052   5.637  10.440  0.00  0.00    +0.000 A 
ATOM      5  C   UNL     1      44.728   4.327  10.795  0.00  0.00    +0.000 A 
ATOM      6  C   UNL     1      45.113   3.837  12.040  0.00  0.00    +0.000 A 
ATOM      7  C   UNL     1      45.898   4.619  12.879  0.00  0.00    +0.000 A 
BRANCH   5   8
ATOM      8  O   UNL     1      44.050   3.588   9.864  0.00  0.00    +0.000 OA
BRANCH   8   9
ATOM      9  C   UNL     1      44.605   2.280   9.649  0.00  0.00    +0.000 C 
BRANCH   9  10
ATOM     10  C   UNL     1      45.513   2.238   8.443  0.00  0.00    +0.000 A 
ATOM     11  C   UNL     1      45.648   3.344   7.608  0.00  0.00    +0.000 A 
ATOM     12  C   UNL     1      46.560   3.286   6.560  0.00  0.00    +0.000 A 
ATOM     13  C   UNL     1      47.324   2.139   6.383  0.00  0.00    +0.000 A 
ATOM     14  C   UNL     1      47.144   1.091   7.268  0.00  0.00    +0.000 A 
ATOM     15  N   UNL     1      46.264   1.115   8.292  0.00  0.00    +0.000 NA
ENDBRANCH   9  10
ENDBRANCH   8   9
ENDBRANCH   5   8
ENDBRANCH   1   2
BRANCH   1  16
ATOM     16  N   UNL     1      47.839   7.789  12.624  0.00  0.00    +0.000 N 
ATOM     17  C   UNL     1      48.039   9.049  13.122  0.00  0.00    +0.000 C 
ATOM     18  O   UNL     1      47.851   9.337  14.298  0.00  0.00    +0.000 OA
ATOM     19  H   UNL     1      47.862   7.655  11.620  0.00  0.00    +0.000 HD
BRANCH  17  20
ATOM     20  C   UNL     1      48.542  10.042  12.159  0.00  0.00    +0.000 A 
ATOM     21  C   UNL     1      47.741  11.116  11.795  0.00  0.00    +0.000 A 
ATOM     22  S   UNL     1      48.471  12.161  10.660  0.00  0.00    +0.000 S 
ATOM     23  C   UNL     1      49.861  11.184  10.574  0.00  0.00    +0.000 A 
ATOM     24  N   UNL     1      50.882  11.490   9.725  0.00  0.00    +0.000 NA
ATOM     25  C   UNL     1      51.850  10.637   9.723  0.00  0.00    +0.000 A 
ATOM     26  N   UNL     1      51.902   9.513  10.508  0.00  0.00    +0.000 N 
ATOM     27  C   UNL     1      50.945   9.226  11.451  0.00  0.00    +0.000 A 
ATOM     28  O   UNL     1      51.116   8.320  12.262  0.00  0.00    +0.000 OA
ATOM     29  C   UNL     1      49.794  10.106  11.437  0.00  0.00    +0.000 A 
ATOM     30  H   UNL     1      52.711   8.912  10.493  0.00  0.00    +0.000 HD
ENDBRANCH  17  20
ENDBRANCH   1  16
BRANCH   1  31
ATOM     31  C   UNL     1      48.330   5.770  13.974  0.00  0.00    +0.000 C 
BRANCH  31  33
ATOM     32  C   UNL     1      48.953   6.511  16.117  0.00  0.00    +0.000 C 
ATOM     33  O   UNL     1      48.163   5.584  15.384  0.00  0.00    +0.000 OA
ENDBRANCH  31  33
ENDBRANCH   1  31
TORSDOF 8
ENDMDL
MODEL 7
REMARK VINA RESULT:    -7.042      3.361      7.713
REMARK INTER + INTRA:         -11.223
REMARK INTER:                  -9.825
REMARK INTRA:                  -1.397
REMARK UNBOUND:                -0.887
REMARK  Name = 
REMARK  9 active torsions:
REMARK  status: ('A' for Active; 'I' for Inactive)
REMARK    1  A    between atoms: C_1  and  O_2
REMARK    2  A    between atoms: O_2  and  C_3
REMARK    3  A    between atoms: C_3  and  C_4
REMARK    4  A    between atoms: C_4  and  N_5
REMARK    5  A    between atoms: C_4  and  C_18
REMARK    6  A    between atoms: C_6  and  C_8
REMARK    7  A    between atoms: C_21  and  O_22
REMARK    8  A    between atoms: O_22  and  C_23
REMARK    9  A    between atoms: C_23  and  C_24
REMARK                            x       y       z     vdW  Elec       q    Type
REMARK                         _______ _______ _______ _____ _____    ______ ____
ROOT
ATOM      1  C   UNL     1      48.132   7.351  13.427  0.00  0.00    +0.000 C 
ENDROOT
BRANCH   1   2
ATOM      2  C   UNL     1      48.454   6.624  14.723  0.00  0.00    +0.000 A 
ATOM      3  C   UNL     1      47.715   5.511  15.140  0.00  0.00    +0.000 A 
ATOM      4  C   UNL     1      48.087   4.808  16.292  0.00  0.00    +0.000 A 
ATOM      5  C   UNL     1      49.211   5.196  17.023  0.00  0.00    +0.000 A 
ATOM      6  C   UNL     1      49.904   6.347  16.659  0.00  0.00    +0.000 A 
ATOM      7  C   UNL     1      49.533   7.046  15.517  0.00  0.00    +0.000 A 
BRANCH   5   8
ATOM      8  O   UNL     1      49.574   4.388  18.067  0.00  0.00    +0.000 OA
BRANCH   8   9
ATOM      9  C   UNL     1      49.668   2.998  17.717  0.00  0.00    +0.000 C 
BRANCH   9  10
ATOM     10  C   UNL     1      51.098   2.518  17.669  0.00  0.00    +0.000 A 
ATOM     11  C   UNL     1      52.147   3.347  18.057  0.00  0.00    +0.000 A 
ATOM     12  C   UNL     1      53.439   2.833  18.076  0.00  0.00    +0.000 A 
ATOM     13  C   UNL     1      53.649   1.504  17.725  0.00  0.00    +0.000 A 
ATOM     14  C   UNL     1      52.551   0.741  17.369  0.00  0.00    +0.000 A 
ATOM     15  N   UNL     1      51.287   1.213  17.337  0.00  0.00    +0.000 NA
ENDBRANCH   9  10
ENDBRANCH   8   9
ENDBRANCH   5   8
ENDBRANCH   1   2
BRANCH   1  16
ATOM     16  N   UNL     1      47.459   6.430  12.515  0.00  0.00    +0.000 N 
ATOM     17  C   UNL     1      46.351   6.770  11.784  0.00  0.00    +0.000 C 
ATOM     18  O   UNL     1      45.909   7.912  11.738  0.00  0.00    +0.000 OA
ATOM     19  H   UNL     1      47.678   5.449  12.635  0.00  0.00    +0.000 HD
BRANCH  17  20
ATOM     20  C   UNL     1      45.737   5.677  11.013  0.00  0.00    +0.000 A 
ATOM     21  C   UNL     1      45.835   5.672   9.628  0.00  0.00    +0.000 A 
ATOM     22  S   UNL     1      45.056   4.343   8.892  0.00  0.00    +0.000 S 
ATOM     23  C   UNL     1      44.512   3.760  10.395  0.00  0.00    +0.000 A 
ATOM     24  N   UNL     1      43.724   2.652  10.474  0.00  0.00    +0.000 NA
ATOM     25  C   UNL     1      43.342   2.351  11.669  0.00  0.00    +0.000 A 
ATOM     26  N   UNL     1      43.693   3.045  12.799  0.00  0.00    +0.000 N 
ATOM     27  C   UNL     1      44.569   4.102  12.774  0.00  0.00    +0.000 A 
ATOM     28  O   UNL     1      45.007   4.579  13.816  0.00  0.00    +0.000 OA
ATOM     29  C   UNL     1      44.963   4.534  11.448  0.00  0.00    +0.000 A 
ATOM     30  H   UNL     1      43.398   2.728  13.709  0.00  0.00    +0.000 HD
ENDBRANCH  17  20
ENDBRANCH   1  16
BRANCH   1  31
ATOM     31  C   UNL     1      49.435   7.898  12.797  0.00  0.00    +0.000 C 
BRANCH  31  33
ATOM     32  C   UNL     1      48.545  10.073  12.709  0.00  0.00    +0.000 C 
ATOM     33  O   UNL     1      49.173   9.035  11.967  0.00  0.00    +0.000 OA
ENDBRANCH  31  33
ENDBRANCH   1  31
TORSDOF 8
ENDMDL
MODEL 8
REMARK VINA RESULT:    -7.026      2.875      7.866
REMARK INTER + INTRA:         -11.198
REMARK INTER:                 -10.036
REMARK INTRA:                  -1.163
REMARK UNBOUND:                -0.887
REMARK  Name = 
REMARK  9 active torsions:
REMARK  status: ('A' for Active; 'I' for Inactive)
REMARK    1  A    between atoms: C_1  and  O_2
REMARK    2  A    between atoms: O_2  and  C_3
REMARK    3  A    between atoms: C_3  and  C_4
REMARK    4  A    between atoms: C_4  and  N_5
REMARK    5  A    between atoms: C_4  and  C_18
REMARK    6  A    between atoms: C_6  and  C_8
REMARK    7  A    between atoms: C_21  and  O_22
REMARK    8  A    between atoms: O_22  and  C_23
REMARK    9  A    between atoms: C_23  and  C_24
REMARK                            x       y       z     vdW  Elec       q    Type
REMARK                         _______ _______ _______ _____ _____    ______ ____
ROOT
ATOM      1  C   UNL     1      48.031   7.691  12.621  0.00  0.00    +0.000 C 
ENDROOT
BRANCH   1   2
ATOM      2  C   UNL     1      48.784   7.390  13.908  0.00  0.00    +0.000 A 
ATOM      3  C   UNL     1      48.196   6.656  14.945  0.00  0.00    +0.000 A 
ATOM      4  C   UNL     1      48.941   6.320  16.081  0.00  0.00    +0.000 A 
ATOM      5  C   UNL     1      50.282   6.694  16.181  0.00  0.00    +0.000 A 
ATOM      6  C   UNL     1      50.850   7.490  15.191  0.00  0.00    +0.000 A 
ATOM      7  C   UNL     1      50.110   7.825  14.064  0.00  0.00    +0.000 A 
BRANCH   5   8
ATOM      8  O   UNL     1      50.971   6.227  17.268  0.00  0.00    +0.000 OA
BRANCH   8   9
ATOM      9  C   UNL     1      50.290   5.180  17.978  0.00  0.00    +0.000 C 
BRANCH   9  10
ATOM     10  C   UNL     1      50.943   3.834  17.771  0.00  0.00    +0.000 A 
ATOM     11  C   UNL     1      52.224   3.576  18.253  0.00  0.00    +0.000 A 
ATOM     12  C   UNL     1      52.749   2.297  18.113  0.00  0.00    +0.000 A 
ATOM     13  C   UNL     1      51.980   1.306  17.513  0.00  0.00    +0.000 A 
ATOM     14  C   UNL     1      50.709   1.638  17.078  0.00  0.00    +0.000 A 
ATOM     15  N   UNL     1      50.173   2.871  17.197  0.00  0.00    +0.000 NA
ENDBRANCH   9  10
ENDBRANCH   8   9
ENDBRANCH   5   8
ENDBRANCH   1   2
BRANCH   1  16
ATOM     16  N   UNL     1      47.180   6.552  12.286  0.00  0.00    +0.000 N 
ATOM     17  C   UNL     1      45.877   6.678  11.883  0.00  0.00    +0.000 C 
ATOM     18  O   UNL     1      45.356   7.762  11.646  0.00  0.00    +0.000 OA
ATOM     19  H   UNL     1      47.500   5.648  12.613  0.00  0.00    +0.000 HD
BRANCH  17  20
ATOM     20  C   UNL     1      45.139   5.417  11.706  0.00  0.00    +0.000 A 
ATOM     21  C   UNL     1      44.418   4.887  12.767  0.00  0.00    +0.000 A 
ATOM     22  S   UNL     1      43.635   3.415  12.395  0.00  0.00    +0.000 S 
ATOM     23  C   UNL     1      44.280   3.408  10.821  0.00  0.00    +0.000 A 
ATOM     24  N   UNL     1      44.038   2.372   9.970  0.00  0.00    +0.000 NA
ATOM     25  C   UNL     1      44.630   2.471   8.827  0.00  0.00    +0.000 A 
ATOM     26  N   UNL     1      45.427   3.521   8.448  0.00  0.00    +0.000 N 
ATOM     27  C   UNL     1      45.610   4.631   9.235  0.00  0.00    +0.000 A 
ATOM     28  O   UNL     1      46.171   5.629   8.793  0.00  0.00    +0.000 OA
ATOM     29  C   UNL     1      45.036   4.536  10.563  0.00  0.00    +0.000 A 
ATOM     30  H   UNL     1      45.822   3.559   7.521  0.00  0.00    +0.000 HD
ENDBRANCH  17  20
ENDBRANCH   1  16
BRANCH   1  31
ATOM     31  C   UNL     1      49.037   7.980  11.482  0.00  0.00    +0.000 C 
BRANCH  31  33
ATOM     32  C   UNL     1      48.028  10.074  11.844  0.00  0.00    +0.000 C 
ATOM     33  O   UNL     1      49.023   9.365  11.117  0.00  0.00    +0.000 OA
ENDBRANCH  31  33
ENDBRANCH   1  31
TORSDOF 8
ENDMDL
MODEL 9
REMARK VINA RESULT:    -6.819      2.681      7.684
REMARK INTER + INTRA:         -10.895
REMARK INTER:                  -9.464
REMARK INTRA:                  -1.431
REMARK UNBOUND:                -0.887
REMARK  Name = 
REMARK  9 active torsions:
REMARK  status: ('A' for Active; 'I' for Inactive)
REMARK    1  A    between atoms: C_1  and  O_2
REMARK    2  A    between atoms: O_2  and  C_3
REMARK    3  A    between atoms: C_3  and  C_4
REMARK    4  A    between atoms: C_4  and  N_5
REMARK    5  A    between atoms: C_4  and  C_18
REMARK    6  A    between atoms: C_6  and  C_8
REMARK    7  A    between atoms: C_21  and  O_22
REMARK    8  A    between atoms: O_22  and  C_23
REMARK    9  A    between atoms: C_23  and  C_24
REMARK                            x       y       z     vdW  Elec       q    Type
REMARK                         _______ _______ _______ _____ _____    ______ ____
ROOT
ATOM      1  C   UNL     1      47.954   7.923  12.222  0.00  0.00    +0.000 C 
ENDROOT
BRANCH   1   2
ATOM      2  C   UNL     1      48.360   7.911  13.687  0.00  0.00    +0.000 A 
ATOM      3  C   UNL     1      47.838   8.837  14.598  0.00  0.00    +0.000 A 
ATOM      4  C   UNL     1      48.162   8.749  15.957  0.00  0.00    +0.000 A 
ATOM      5  C   UNL     1      48.991   7.725  16.420  0.00  0.00    +0.000 A 
ATOM      6  C   UNL     1      49.576   6.850  15.510  0.00  0.00    +0.000 A 
ATOM      7  C   UNL     1      49.255   6.938  14.161  0.00  0.00    +0.000 A 
BRANCH   5   8
ATOM      8  O   UNL     1      49.164   7.641  17.775  0.00  0.00    +0.000 OA
BRANCH   8   9
ATOM      9  C   UNL     1      48.167   6.845  18.437  0.00  0.00    +0.000 C 
BRANCH   9  10
ATOM     10  C   UNL     1      48.301   5.377  18.110  0.00  0.00    +0.000 A 
ATOM     11  C   UNL     1      47.267   4.683  17.486  0.00  0.00    +0.000 A 
ATOM     12  C   UNL     1      47.470   3.355  17.130  0.00  0.00    +0.000 A 
ATOM     13  C   UNL     1      48.698   2.759  17.387  0.00  0.00    +0.000 A 
ATOM     14  C   UNL     1      49.681   3.522  17.993  0.00  0.00    +0.000 A 
ATOM     15  N   UNL     1      49.513   4.812  18.355  0.00  0.00    +0.000 NA
ENDBRANCH   9  10
ENDBRANCH   8   9
ENDBRANCH   5   8
ENDBRANCH   1   2
BRANCH   1  16
ATOM     16  N   UNL     1      47.078   6.783  11.958  0.00  0.00    +0.000 N 
ATOM     17  C   UNL     1      45.712   6.849  12.036  0.00  0.00    +0.000 C 
ATOM     18  O   UNL     1      45.106   7.901  12.209  0.00  0.00    +0.000 OA
ATOM     19  H   UNL     1      47.521   5.873  11.970  0.00  0.00    +0.000 HD
BRANCH  17  20
ATOM     20  C   UNL     1      45.001   5.574  11.856  0.00  0.00    +0.000 A 
ATOM     21  C   UNL     1      44.256   5.047  12.902  0.00  0.00    +0.000 A 
ATOM     22  S   UNL     1      43.510   3.557  12.528  0.00  0.00    +0.000 S 
ATOM     23  C   UNL     1      44.204   3.537  10.976  0.00  0.00    +0.000 A 
ATOM     24  N   UNL     1      44.006   2.485  10.133  0.00  0.00    +0.000 NA
ATOM     25  C   UNL     1      44.633   2.577   9.008  0.00  0.00    +0.000 A 
ATOM     26  N   UNL     1      45.423   3.635   8.638  0.00  0.00    +0.000 N 
ATOM     27  C   UNL     1      45.563   4.759   9.414  0.00  0.00    +0.000 A 
ATOM     28  O   UNL     1      46.122   5.759   8.974  0.00  0.00    +0.000 OA
ATOM     29  C   UNL     1      44.949   4.675  10.724  0.00  0.00    +0.000 A 
ATOM     30  H   UNL     1      45.847   3.665   7.724  0.00  0.00    +0.000 HD
ENDBRANCH  17  20
ENDBRANCH   1  16
BRANCH   1  31
ATOM     31  C   UNL     1      49.216   7.867  11.329  0.00  0.00    +0.000 C 
BRANCH  31  33
ATOM     32  C   UNL     1      51.383   8.749  11.091  0.00  0.00    +0.000 C 
ATOM     33  O   UNL     1      50.063   8.999  11.556  0.00  0.00    +0.000 OA
ENDBRANCH  31  33
ENDBRANCH   1  31
TORSDOF 8
ENDMDL
