MODEL 1
REMARK VINA RESULT:    -8.030      0.000      0.000
REMARK INTER + INTRA:         -11.194
REMARK INTER:                 -10.142
REMARK INTRA:                  -1.052
REMARK UNBOUND:                -1.052
REMARK  Name = 
REMARK  5 active torsions:
REMARK  status: ('A' for Active; 'I' for Inactive)
REMARK    1  A    between atoms: N_1  and  C_2
REMARK    2  A    between atoms: C_4  and  N_5
REMARK    3  A    between atoms: N_5  and  C_6
REMARK    4  A    between atoms: C_6  and  C_7
REMARK    5  A    between atoms: C_11  and  C_12
REMARK                            x       y       z     vdW  Elec       q    Type
REMARK                         _______ _______ _______ _____ _____    ______ ____
ROOT
ATOM      1  C   UNL     1      43.416   4.774  11.361  0.00  0.00    +0.000 C 
ENDROOT
BRANCH   1   2
ATOM      2  C   UNL     1      44.707   5.062  12.092  0.00  0.00    +0.000 A 
ATOM      3  C   UNL     1      45.327   4.087  12.878  0.00  0.00    +0.000 A 
ATOM      4  C   UNL     1      46.547   4.360  13.493  0.00  0.00    +0.000 A 
ATOM      5  C   UNL     1      47.162   5.603  13.320  0.00  0.00    +0.000 A 
ATOM      6  C   UNL     1      46.577   6.607  12.528  0.00  0.00    +0.000 A 
ATOM      7  C   UNL     1      45.327   6.319  11.950  0.00  0.00    +0.000 A 
BRANCH   6   8
ATOM      8  C   UNL     1      47.276   7.885  12.244  0.00  0.00    +0.000 A 
ATOM      9  C   UNL     1      48.637   7.903  11.881  0.00  0.00    +0.000 A 
ATOM     10  C   UNL     1      49.287   9.091  11.533  0.00  0.00    +0.000 A 
ATOM     11  C   UNL     1      48.589  10.293  11.534  0.00  0.00    +0.000 A 
ATOM     12  C   UNL     1      47.247  10.309  11.902  0.00  0.00    +0.000 A 
ATOM     13  C   UNL     1      46.602   9.120  12.263  0.00  0.00    +0.000 A 
ENDBRANCH   6   8
ENDBRANCH   1   2
BRANCH   1  14
ATOM     14  N   UNL     1      43.620   4.858   9.919  0.00  0.00    +0.000 N 
ATOM     15  H   UNL     1      42.739   4.919   9.416  0.00  0.00    +0.000 HD
BRANCH  14  18
ATOM     16  C   UNL     1      46.299   3.432   7.706  0.00  0.00    +0.000 A 
ATOM     17  C   UNL     1      45.498   4.362   8.389  0.00  0.00    +0.000 A 
ATOM     18  C   UNL     1      44.519   3.967   9.316  0.00  0.00    +0.000 A 
ATOM     19  C   UNL     1      44.349   2.592   9.533  0.00  0.00    +0.000 A 
ATOM     20  C   UNL     1      45.175   1.651   8.913  0.00  0.00    +0.000 A 
ATOM     21  C   UNL     1      46.159   2.072   8.021  0.00  0.00    +0.000 A 
ATOM     22 CL   UNL     1      47.158   0.881   7.266  0.00  0.00    +0.000 Cl
BRANCH  16  23
ATOM     23  N   UNL     1      47.351   3.903   6.892  0.00  0.00    +0.000 N 
ATOM     24  H   UNL     1      47.534   3.322   6.080  0.00  0.00    +0.000 HD
ATOM     25  H   UNL     1      48.194   4.101   7.430  0.00  0.00    +0.000 HD
ENDBRANCH  16  23
ENDBRANCH  14  18
ENDBRANCH   1  14
TORSDOF 5
ENDMDL
MODEL 2
REMARK VINA RESULT:    -7.788      3.049      6.755
REMARK INTER + INTRA:         -10.889
REMARK INTER:                 -10.036
REMARK INTRA:                  -0.853
REMARK UNBOUND:                -1.052
REMARK  Name = 
REMARK  5 active torsions:
REMARK  status: ('A' for Active; 'I' for Inactive)
REMARK    1  A    between atoms: N_1  and  C_2
REMARK    2  A    between atoms: C_4  and  N_5
REMARK    3  A    between atoms: N_5  and  C_6
REMARK    4  A    between atoms: C_6  and  C_7
REMARK    5  A    between atoms: C_11  and  C_12
REMARK                            x       y       z     vdW  Elec       q    Type
REMARK                         _______ _______ _______ _____ _____    ______ ____
ROOT
ATOM      1  C   UNL     1      43.927   6.547  11.418  0.00  0.00    +0.000 C 
ENDROOT
BRANCH   1   2
ATOM      2  C   UNL     1      44.008   5.069  11.113  0.00  0.00    +0.000 A 
ATOM      3  C   UNL     1      43.249   4.139  11.832  0.00  0.00    +0.000 A 
ATOM      4  C   UNL     1      43.297   2.789  11.491  0.00  0.00    +0.000 A 
ATOM      5  C   UNL     1      44.094   2.358  10.426  0.00  0.00    +0.000 A 
ATOM      6  C   UNL     1      44.863   3.261   9.672  0.00  0.00    +0.000 A 
ATOM      7  C   UNL     1      44.825   4.614  10.061  0.00  0.00    +0.000 A 
BRANCH   6   8
ATOM      8  C   UNL     1      45.618   2.832   8.469  0.00  0.00    +0.000 A 
ATOM      9  C   UNL     1      45.903   3.738   7.429  0.00  0.00    +0.000 A 
ATOM     10  C   UNL     1      46.682   3.369   6.328  0.00  0.00    +0.000 A 
ATOM     11  C   UNL     1      47.202   2.083   6.243  0.00  0.00    +0.000 A 
ATOM     12  C   UNL     1      46.926   1.161   7.248  0.00  0.00    +0.000 A 
ATOM     13  C   UNL     1      46.135   1.530   8.343  0.00  0.00    +0.000 A 
ENDBRANCH   6   8
ENDBRANCH   1   2
BRANCH   1  14
ATOM     14  N   UNL     1      44.714   6.864  12.605  0.00  0.00    +0.000 N 
ATOM     15  H   UNL     1      44.129   7.189  13.369  0.00  0.00    +0.000 HD
BRANCH  14  18
ATOM     16  C   UNL     1      47.041   9.796  12.284  0.00  0.00    +0.000 A 
ATOM     17  C   UNL     1      45.892   9.037  12.567  0.00  0.00    +0.000 A 
ATOM     18  C   UNL     1      45.873   7.637  12.453  0.00  0.00    +0.000 A 
ATOM     19  C   UNL     1      47.051   7.006  12.024  0.00  0.00    +0.000 A 
ATOM     20  C   UNL     1      48.222   7.731  11.798  0.00  0.00    +0.000 A 
ATOM     21  C   UNL     1      48.222   9.116  11.948  0.00  0.00    +0.000 A 
ATOM     22 CL   UNL     1      49.687   9.984  11.650  0.00  0.00    +0.000 Cl
BRANCH  16  23
ATOM     23  N   UNL     1      47.029  11.181  12.549  0.00  0.00    +0.000 N 
ATOM     24  H   UNL     1      47.590  11.728  11.904  0.00  0.00    +0.000 HD
ATOM     25  H   UNL     1      47.240  11.387  13.525  0.00  0.00    +0.000 HD
ENDBRANCH  16  23
ENDBRANCH  14  18
ENDBRANCH   1  14
TORSDOF 5
ENDMDL
MODEL 3
REMARK VINA RESULT:    -7.703      1.412      2.161
REMARK INTER + INTRA:         -10.781
REMARK INTER:                  -9.739
REMARK INTRA:                  -1.041
REMARK UNBOUND:                -1.052
REMARK  Name = 
REMARK  5 active torsions:
REMARK  status: ('A' for Active; 'I' for Inactive)
REMARK    1  A    between atoms: N_1  and  C_2
REMARK    2  A    between atoms: C_4  and  N_5
REMARK    3  A    between atoms: N_5  and  C_6
REMARK    4  A    between atoms: C_6  and  C_7
REMARK    5  A    between atoms: C_11  and  C_12
REMARK                            x       y       z     vdW  Elec       q    Type
REMARK                         _______ _______ _______ _____ _____    ______ ____
ROOT
ATOM      1  C   UNL     1      44.056   3.080  11.419  0.00  0.00    +0.000 C 
ENDROOT
BRANCH   1   2
ATOM      2  C   UNL     1      45.027   3.992  12.133  0.00  0.00    +0.000 A 
ATOM      3  C   UNL     1      46.034   3.476  12.954  0.00  0.00    +0.000 A 
ATOM      4  C   UNL     1      46.953   4.336  13.553  0.00  0.00    +0.000 A 
ATOM      5  C   UNL     1      46.880   5.714  13.329  0.00  0.00    +0.000 A 
ATOM      6  C   UNL     1      45.889   6.272  12.502  0.00  0.00    +0.000 A 
ATOM      7  C   UNL     1      44.951   5.385  11.940  0.00  0.00    +0.000 A 
BRANCH   6   8
ATOM      8  C   UNL     1      45.873   7.717  12.166  0.00  0.00    +0.000 A 
ATOM      9  C   UNL     1      44.732   8.317  11.598  0.00  0.00    +0.000 A 
ATOM     10  C   UNL     1      44.674   9.692  11.350  0.00  0.00    +0.000 A 
ATOM     11  C   UNL     1      45.756  10.503  11.670  0.00  0.00    +0.000 A 
ATOM     12  C   UNL     1      46.902   9.937  12.219  0.00  0.00    +0.000 A 
ATOM     13  C   UNL     1      46.962   8.559  12.454  0.00  0.00    +0.000 A 
ENDBRANCH   6   8
ENDBRANCH   1   2
BRANCH   1  14
ATOM     14  N   UNL     1      43.856   3.528  10.045  0.00  0.00    +0.000 N 
ATOM     15  H   UNL     1      42.907   3.356   9.727  0.00  0.00    +0.000 HD
BRANCH  14  18
ATOM     16  C   UNL     1      46.335   1.574   8.007  0.00  0.00    +0.000 A 
ATOM     17  C   UNL     1      45.283   1.871   8.891  0.00  0.00    +0.000 A 
ATOM     18  C   UNL     1      44.814   3.182   9.082  0.00  0.00    +0.000 A 
ATOM     19  C   UNL     1      45.448   4.208   8.366  0.00  0.00    +0.000 A 
ATOM     20  C   UNL     1      46.453   3.931   7.436  0.00  0.00    +0.000 A 
ATOM     21  C   UNL     1      46.878   2.618   7.243  0.00  0.00    +0.000 A 
ATOM     22 CL   UNL     1      48.130   2.313   6.091  0.00  0.00    +0.000 Cl
BRANCH  16  23
ATOM     23  N   UNL     1      46.664   0.224   7.764  0.00  0.00    +0.000 N 
ATOM     24  H   UNL     1      46.715  -0.015   6.779  0.00  0.00    +0.000 HD
ATOM     25  H   UNL     1      46.073  -0.416   8.293  0.00  0.00    +0.000 HD
ENDBRANCH  16  23
ENDBRANCH  14  18
ENDBRANCH   1  14
TORSDOF 5
ENDMDL
MODEL 4
REMARK VINA RESULT:    -7.509      2.253      4.090
REMARK INTER + INTRA:         -10.536
REMARK INTER:                  -9.728
REMARK INTRA:                  -0.807
REMARK UNBOUND:                -1.052
REMARK  Name = 
REMARK  5 active torsions:
REMARK  status: ('A' for Active; 'I' for Inactive)
REMARK    1  A    between atoms: N_1  and  C_2
REMARK    2  A    between atoms: C_4  and  N_5
REMARK    3  A    between atoms: N_5  and  C_6
REMARK    4  A    between atoms: C_6  and  C_7
REMARK    5  A    between atoms: C_11  and  C_12
REMARK                            x       y       z     vdW  Elec       q    Type
REMARK                         _______ _______ _______ _____ _____    ______ ____
ROOT
ATOM      1  C   UNL     1      44.605   3.263  11.544  0.00  0.00    +0.000 C 
ENDROOT
BRANCH   1   2
ATOM      2  C   UNL     1      45.475   4.319  12.184  0.00  0.00    +0.000 A 
ATOM      3  C   UNL     1      45.536   5.618  11.669  0.00  0.00    +0.000 A 
ATOM      4  C   UNL     1      46.300   6.588  12.313  0.00  0.00    +0.000 A 
ATOM      5  C   UNL     1      47.001   6.274  13.482  0.00  0.00    +0.000 A 
ATOM      6  C   UNL     1      46.957   4.984  14.039  0.00  0.00    +0.000 A 
ATOM      7  C   UNL     1      46.208   4.013  13.347  0.00  0.00    +0.000 A 
BRANCH   6   8
ATOM      8  C   UNL     1      47.601   4.671  15.338  0.00  0.00    +0.000 A 
ATOM      9  C   UNL     1      47.544   3.373  15.882  0.00  0.00    +0.000 A 
ATOM     10  C   UNL     1      48.213   3.043  17.065  0.00  0.00    +0.000 A 
ATOM     11  C   UNL     1      48.962   4.006  17.732  0.00  0.00    +0.000 A 
ATOM     12  C   UNL     1      49.026   5.301  17.227  0.00  0.00    +0.000 A 
ATOM     13  C   UNL     1      48.344   5.631  16.049  0.00  0.00    +0.000 A 
ENDBRANCH   6   8
ENDBRANCH   1   2
BRANCH   1  14
ATOM     14  N   UNL     1      44.246   3.657  10.185  0.00  0.00    +0.000 N 
ATOM     15  H   UNL     1      43.261   3.495   9.994  0.00  0.00    +0.000 HD
BRANCH  14  18
ATOM     16  C   UNL     1      46.408   1.558   7.944  0.00  0.00    +0.000 A 
ATOM     17  C   UNL     1      45.479   1.918   8.934  0.00  0.00    +0.000 A 
ATOM     18  C   UNL     1      45.071   3.248   9.129  0.00  0.00    +0.000 A 
ATOM     19  C   UNL     1      45.640   4.228   8.302  0.00  0.00    +0.000 A 
ATOM     20  C   UNL     1      46.517   3.888   7.270  0.00  0.00    +0.000 A 
ATOM     21  C   UNL     1      46.882   2.557   7.079  0.00  0.00    +0.000 A 
ATOM     22 CL   UNL     1      47.977   2.172   5.798  0.00  0.00    +0.000 Cl
BRANCH  16  23
ATOM     23  N   UNL     1      46.670   0.191   7.715  0.00  0.00    +0.000 N 
ATOM     24  H   UNL     1      46.664  -0.375   8.557  0.00  0.00    +0.000 HD
ATOM     25  H   UNL     1      47.509   0.049   7.154  0.00  0.00    +0.000 HD
ENDBRANCH  16  23
ENDBRANCH  14  18
ENDBRANCH   1  14
TORSDOF 5
ENDMDL
MODEL 5
REMARK VINA RESULT:    -7.315      3.175      6.859
REMARK INTER + INTRA:         -10.291
REMARK INTER:                  -9.663
REMARK INTRA:                  -0.629
REMARK UNBOUND:                -1.052
REMARK  Name = 
REMARK  5 active torsions:
REMARK  status: ('A' for Active; 'I' for Inactive)
REMARK    1  A    between atoms: N_1  and  C_2
REMARK    2  A    between atoms: C_4  and  N_5
REMARK    3  A    between atoms: N_5  and  C_6
REMARK    4  A    between atoms: C_6  and  C_7
REMARK    5  A    between atoms: C_11  and  C_12
REMARK                            x       y       z     vdW  Elec       q    Type
REMARK                         _______ _______ _______ _____ _____    ______ ____
ROOT
ATOM      1  C   UNL     1      44.968   6.686  11.606  0.00  0.00    +0.000 C 
ENDROOT
BRANCH   1   2
ATOM      2  C   UNL     1      44.662   5.269  11.181  0.00  0.00    +0.000 A 
ATOM      3  C   UNL     1      43.645   4.532  11.797  0.00  0.00    +0.000 A 
ATOM      4  C   UNL     1      43.343   3.249  11.346  0.00  0.00    +0.000 A 
ATOM      5  C   UNL     1      44.046   2.695  10.272  0.00  0.00    +0.000 A 
ATOM      6  C   UNL     1      45.068   3.406   9.619  0.00  0.00    +0.000 A 
ATOM      7  C   UNL     1      45.378   4.685  10.118  0.00  0.00    +0.000 A 
BRANCH   6   8
ATOM      8  C   UNL     1      45.739   2.874   8.407  0.00  0.00    +0.000 A 
ATOM      9  C   UNL     1      46.020   3.709   7.308  0.00  0.00    +0.000 A 
ATOM     10  C   UNL     1      46.722   3.243   6.192  0.00  0.00    +0.000 A 
ATOM     11  C   UNL     1      47.168   1.927   6.152  0.00  0.00    +0.000 A 
ATOM     12  C   UNL     1      46.894   1.074   7.217  0.00  0.00    +0.000 A 
ATOM     13  C   UNL     1      46.179   1.541   8.326  0.00  0.00    +0.000 A 
ENDBRANCH   6   8
ENDBRANCH   1   2
BRANCH   1  14
ATOM     14  N   UNL     1      46.411   6.887  11.698  0.00  0.00    +0.000 N 
ATOM     15  H   UNL     1      46.890   6.562  10.863  0.00  0.00    +0.000 HD
BRANCH  14  18
ATOM     16  C   UNL     1      47.326   5.059  14.849  0.00  0.00    +0.000 A 
ATOM     17  C   UNL     1      46.739   5.350  13.606  0.00  0.00    +0.000 A 
ATOM     18  C   UNL     1      47.067   6.505  12.876  0.00  0.00    +0.000 A 
ATOM     19  C   UNL     1      48.003   7.384  13.440  0.00  0.00    +0.000 A 
ATOM     20  C   UNL     1      48.646   7.086  14.643  0.00  0.00    +0.000 A 
ATOM     21  C   UNL     1      48.324   5.919  15.332  0.00  0.00    +0.000 A 
ATOM     22 CL   UNL     1      49.133   5.586  16.823  0.00  0.00    +0.000 Cl
BRANCH  16  23
ATOM     23  N   UNL     1      47.050   3.819  15.463  0.00  0.00    +0.000 N 
ATOM     24  H   UNL     1      47.450   3.023  14.978  0.00  0.00    +0.000 HD
ATOM     25  H   UNL     1      46.058   3.700  15.660  0.00  0.00    +0.000 HD
ENDBRANCH  16  23
ENDBRANCH  14  18
ENDBRANCH   1  14
TORSDOF 5
ENDMDL
MODEL 6
REMARK VINA RESULT:    -7.265      3.132      6.827
REMARK INTER + INTRA:         -10.228
REMARK INTER:                  -9.431
REMARK INTRA:                  -0.796
REMARK UNBOUND:                -1.052
REMARK  Name = 
REMARK  5 active torsions:
REMARK  status: ('A' for Active; 'I' for Inactive)
REMARK    1  A    between atoms: N_1  and  C_2
REMARK    2  A    between atoms: C_4  and  N_5
REMARK    3  A    between atoms: N_5  and  C_6
REMARK    4  A    between atoms: C_6  and  C_7
REMARK    5  A    between atoms: C_11  and  C_12
REMARK                            x       y       z     vdW  Elec       q    Type
REMARK                         _______ _______ _______ _____ _____    ______ ____
ROOT
ATOM      1  C   UNL     1      44.236   6.791  11.427  0.00  0.00    +0.000 C 
ENDROOT
BRANCH   1   2
ATOM      2  C   UNL     1      44.189   5.311  11.128  0.00  0.00    +0.000 A 
ATOM      3  C   UNL     1      43.341   4.455  11.838  0.00  0.00    +0.000 A 
ATOM      4  C   UNL     1      43.272   3.105  11.501  0.00  0.00    +0.000 A 
ATOM      5  C   UNL     1      44.041   2.600  10.448  0.00  0.00    +0.000 A 
ATOM      6  C   UNL     1      44.897   3.429   9.702  0.00  0.00    +0.000 A 
ATOM      7  C   UNL     1      44.976   4.781  10.087  0.00  0.00    +0.000 A 
BRANCH   6   8
ATOM      8  C   UNL     1      45.627   2.929   8.511  0.00  0.00    +0.000 A 
ATOM      9  C   UNL     1      45.950   3.790   7.444  0.00  0.00    +0.000 A 
ATOM     10  C   UNL     1      46.707   3.352   6.352  0.00  0.00    +0.000 A 
ATOM     11  C   UNL     1      47.165   2.041   6.304  0.00  0.00    +0.000 A 
ATOM     12  C   UNL     1      46.850   1.163   7.336  0.00  0.00    +0.000 A 
ATOM     13  C   UNL     1      46.082   1.601   8.421  0.00  0.00    +0.000 A 
ENDBRANCH   6   8
ENDBRANCH   1   2
BRANCH   1  14
ATOM     14  N   UNL     1      44.966   7.034  12.668  0.00  0.00    +0.000 N 
ATOM     15  H   UNL     1      44.364   7.423  13.388  0.00  0.00    +0.000 HD
BRANCH  14  18
ATOM     16  C   UNL     1      48.607   7.842  13.116  0.00  0.00    +0.000 A 
ATOM     17  C   UNL     1      47.402   7.120  13.082  0.00  0.00    +0.000 A 
ATOM     18  C   UNL     1      46.207   7.681  12.599  0.00  0.00    +0.000 A 
ATOM     19  C   UNL     1      46.248   9.013  12.159  0.00  0.00    +0.000 A 
ATOM     20  C   UNL     1      47.446   9.730  12.125  0.00  0.00    +0.000 A 
ATOM     21  C   UNL     1      48.622   9.139  12.581  0.00  0.00    +0.000 A 
ATOM     22 CL   UNL     1      50.085  10.059  12.533  0.00  0.00    +0.000 Cl
BRANCH  16  23
ATOM     23  N   UNL     1      49.793   7.175  13.487  0.00  0.00    +0.000 N 
ATOM     24  H   UNL     1      50.402   6.955  12.706  0.00  0.00    +0.000 HD
ATOM     25  H   UNL     1      49.610   6.368  14.081  0.00  0.00    +0.000 HD
ENDBRANCH  16  23
ENDBRANCH  14  18
ENDBRANCH   1  14
TORSDOF 5
ENDMDL
MODEL 7
REMARK VINA RESULT:    -7.241      1.354      2.224
REMARK INTER + INTRA:         -10.197
REMARK INTER:                  -9.276
REMARK INTRA:                  -0.921
REMARK UNBOUND:                -1.052
REMARK  Name = 
REMARK  5 active torsions:
REMARK  status: ('A' for Active; 'I' for Inactive)
REMARK    1  A    between atoms: N_1  and  C_2
REMARK    2  A    between atoms: C_4  and  N_5
REMARK    3  A    between atoms: N_5  and  C_6
REMARK    4  A    between atoms: C_6  and  C_7
REMARK    5  A    between atoms: C_11  and  C_12
REMARK                            x       y       z     vdW  Elec       q    Type
REMARK                         _______ _______ _______ _____ _____    ______ ____
ROOT
ATOM      1  C   UNL     1      43.797   5.090  11.495  0.00  0.00    +0.000 C 
ENDROOT
BRANCH   1   2
ATOM      2  C   UNL     1      44.909   6.030  11.900  0.00  0.00    +0.000 A 
ATOM      3  C   UNL     1      46.143   5.543  12.344  0.00  0.00    +0.000 A 
ATOM      4  C   UNL     1      47.171   6.430  12.653  0.00  0.00    +0.000 A 
ATOM      5  C   UNL     1      46.981   7.809  12.513  0.00  0.00    +0.000 A 
ATOM      6  C   UNL     1      45.760   8.338  12.060  0.00  0.00    +0.000 A 
ATOM      7  C   UNL     1      44.726   7.422  11.790  0.00  0.00    +0.000 A 
BRANCH   6   8
ATOM      8  C   UNL     1      45.586   9.788  11.797  0.00  0.00    +0.000 A 
ATOM      9  C   UNL     1      44.322  10.320  11.473  0.00  0.00    +0.000 A 
ATOM     10  C   UNL     1      44.127  11.694  11.301  0.00  0.00    +0.000 A 
ATOM     11  C   UNL     1      45.193  12.572  11.456  0.00  0.00    +0.000 A 
ATOM     12  C   UNL     1      46.456  12.076  11.763  0.00  0.00    +0.000 A 
ATOM     13  C   UNL     1      46.650  10.699  11.921  0.00  0.00    +0.000 A 
ENDBRANCH   6   8
ENDBRANCH   1   2
BRANCH   1  14
ATOM     14  N   UNL     1      43.726   4.984  10.042  0.00  0.00    +0.000 N 
ATOM     15  H   UNL     1      42.766   4.925   9.715  0.00  0.00    +0.000 HD
BRANCH  14  18
ATOM     16  C   UNL     1      46.273   3.494   7.716  0.00  0.00    +0.000 A 
ATOM     17  C   UNL     1      45.531   4.442   8.440  0.00  0.00    +0.000 A 
ATOM     18  C   UNL     1      44.569   4.069   9.395  0.00  0.00    +0.000 A 
ATOM     19  C   UNL     1      44.355   2.698   9.597  0.00  0.00    +0.000 A 
ATOM     20  C   UNL     1      45.123   1.738   8.935  0.00  0.00    +0.000 A 
ATOM     21  C   UNL     1      46.091   2.135   8.016  0.00  0.00    +0.000 A 
ATOM     22 CL   UNL     1      47.017   0.919   7.208  0.00  0.00    +0.000 Cl
BRANCH  16  23
ATOM     23  N   UNL     1      47.313   3.938   6.873  0.00  0.00    +0.000 N 
ATOM     24  H   UNL     1      47.420   3.387   6.028  0.00  0.00    +0.000 HD
ATOM     25  H   UNL     1      48.191   4.057   7.377  0.00  0.00    +0.000 HD
ENDBRANCH  16  23
ENDBRANCH  14  18
ENDBRANCH   1  14
TORSDOF 5
ENDMDL
MODEL 8
REMARK VINA RESULT:    -7.183      1.641      2.536
REMARK INTER + INTRA:         -10.125
REMARK INTER:                  -9.266
REMARK INTRA:                  -0.859
REMARK UNBOUND:                -1.052
REMARK  Name = 
REMARK  5 active torsions:
REMARK  status: ('A' for Active; 'I' for Inactive)
REMARK    1  A    between atoms: N_1  and  C_2
REMARK    2  A    between atoms: C_4  and  N_5
REMARK    3  A    between atoms: N_5  and  C_6
REMARK    4  A    between atoms: C_6  and  C_7
REMARK    5  A    between atoms: C_11  and  C_12
REMARK                            x       y       z     vdW  Elec       q    Type
REMARK                         _______ _______ _______ _____ _____    ______ ____
ROOT
ATOM      1  C   UNL     1      44.614   3.713  11.554  0.00  0.00    +0.000 C 
ENDROOT
BRANCH   1   2
ATOM      2  C   UNL     1      44.927   5.189  11.627  0.00  0.00    +0.000 A 
ATOM      3  C   UNL     1      43.934   6.151  11.420  0.00  0.00    +0.000 A 
ATOM      4  C   UNL     1      44.236   7.505  11.551  0.00  0.00    +0.000 A 
ATOM      5  C   UNL     1      45.529   7.909  11.899  0.00  0.00    +0.000 A 
ATOM      6  C   UNL     1      46.554   6.973  12.126  0.00  0.00    +0.000 A 
ATOM      7  C   UNL     1      46.230   5.614  11.950  0.00  0.00    +0.000 A 
BRANCH   6   8
ATOM      8  C   UNL     1      47.895   7.384  12.608  0.00  0.00    +0.000 A 
ATOM      9  C   UNL     1      48.180   7.459  13.985  0.00  0.00    +0.000 A 
ATOM     10  C   UNL     1      49.461   7.768  14.454  0.00  0.00    +0.000 A 
ATOM     11  C   UNL     1      50.493   8.003  13.553  0.00  0.00    +0.000 A 
ATOM     12  C   UNL     1      50.239   7.951  12.186  0.00  0.00    +0.000 A 
ATOM     13  C   UNL     1      48.953   7.655  11.721  0.00  0.00    +0.000 A 
ENDBRANCH   6   8
ENDBRANCH   1   2
BRANCH   1  14
ATOM     14  N   UNL     1      44.034   3.380  10.258  0.00  0.00    +0.000 N 
ATOM     15  H   UNL     1      43.276   2.709  10.345  0.00  0.00    +0.000 HD
BRANCH  14  18
ATOM     16  C   UNL     1      46.363   1.542   7.954  0.00  0.00    +0.000 A 
ATOM     17  C   UNL     1      45.401   1.790   8.948  0.00  0.00    +0.000 A 
ATOM     18  C   UNL     1      44.896   3.078   9.195  0.00  0.00    +0.000 A 
ATOM     19  C   UNL     1      45.401   4.132   8.419  0.00  0.00    +0.000 A 
ATOM     20  C   UNL     1      46.311   3.901   7.385  0.00  0.00    +0.000 A 
ATOM     21  C   UNL     1      46.772   2.610   7.140  0.00  0.00    +0.000 A 
ATOM     22 CL   UNL     1      47.904   2.362   5.858  0.00  0.00    +0.000 Cl
BRANCH  16  23
ATOM     23  N   UNL     1      46.725   0.209   7.670  0.00  0.00    +0.000 N 
ATOM     24  H   UNL     1      47.298  -0.224   8.388  0.00  0.00    +0.000 HD
ATOM     25  H   UNL     1      47.124   0.110   6.738  0.00  0.00    +0.000 HD
ENDBRANCH  16  23
ENDBRANCH  14  18
ENDBRANCH   1  14
TORSDOF 5
ENDMDL
MODEL 9
REMARK VINA RESULT:    -7.084      3.168      6.699
REMARK INTER + INTRA:         -10.000
REMARK INTER:                  -9.128
REMARK INTRA:                  -0.872
REMARK UNBOUND:                -1.052
REMARK  Name = 
REMARK  5 active torsions:
REMARK  status: ('A' for Active; 'I' for Inactive)
REMARK    1  A    between atoms: N_1  and  C_2
REMARK    2  A    between atoms: C_4  and  N_5
REMARK    3  A    between atoms: N_5  and  C_6
REMARK    4  A    between atoms: C_6  and  C_7
REMARK    5  A    between atoms: C_11  and  C_12
REMARK                            x       y       z     vdW  Elec       q    Type
REMARK                         _______ _______ _______ _____ _____    ______ ____
ROOT
ATOM      1  C   UNL     1      45.894   4.425  13.551  0.00  0.00    +0.000 C 
ENDROOT
BRANCH   1   2
ATOM      2  C   UNL     1      45.101   4.364  12.267  0.00  0.00    +0.000 A 
ATOM      3  C   UNL     1      43.869   5.014  12.145  0.00  0.00    +0.000 A 
ATOM      4  C   UNL     1      43.186   4.991  10.931  0.00  0.00    +0.000 A 
ATOM      5  C   UNL     1      43.731   4.328   9.826  0.00  0.00    +0.000 A 
ATOM      6  C   UNL     1      44.972   3.671   9.904  0.00  0.00    +0.000 A 
ATOM      7  C   UNL     1      45.623   3.678  11.153  0.00  0.00    +0.000 A 
BRANCH   6   8
ATOM      8  C   UNL     1      45.612   3.066   8.711  0.00  0.00    +0.000 A 
ATOM      9  C   UNL     1      46.018   3.863   7.622  0.00  0.00    +0.000 A 
ATOM     10  C   UNL     1      46.694   3.318   6.526  0.00  0.00    +0.000 A 
ATOM     11  C   UNL     1      46.987   1.959   6.495  0.00  0.00    +0.000 A 
ATOM     12  C   UNL     1      46.587   1.144   7.549  0.00  0.00    +0.000 A 
ATOM     13  C   UNL     1      45.899   1.690   8.639  0.00  0.00    +0.000 A 
ENDBRANCH   6   8
ENDBRANCH   1   2
BRANCH   1  14
ATOM     14  N   UNL     1      46.179   5.812  13.906  0.00  0.00    +0.000 N 
ATOM     15  H   UNL     1      45.361   6.404  13.795  0.00  0.00    +0.000 HD
BRANCH  14  18
ATOM     16  C   UNL     1      49.587   7.376  13.681  0.00  0.00    +0.000 A 
ATOM     17  C   UNL     1      48.483   6.663  14.181  0.00  0.00    +0.000 A 
ATOM     18  C   UNL     1      47.343   6.407  13.401  0.00  0.00    +0.000 A 
ATOM     19  C   UNL     1      47.329   6.905  12.090  0.00  0.00    +0.000 A 
ATOM     20  C   UNL     1      48.438   7.561  11.551  0.00  0.00    +0.000 A 
ATOM     21  C   UNL     1      49.568   7.776  12.336  0.00  0.00    +0.000 A 
ATOM     22 CL   UNL     1      50.919   8.599  11.639  0.00  0.00    +0.000 Cl
BRANCH  16  23
ATOM     23  N   UNL     1      50.750   7.480  14.473  0.00  0.00    +0.000 N 
ATOM     24  H   UNL     1      51.213   6.593  14.642  0.00  0.00    +0.000 HD
ATOM     25  H   UNL     1      50.584   8.006  15.330  0.00  0.00    +0.000 HD
ENDBRANCH  16  23
ENDBRANCH  14  18
ENDBRANCH   1  14
TORSDOF 5
ENDMDL
