MODEL 1
REMARK VINA RESULT:    -8.493      0.000      0.000
REMARK INTER + INTRA:         -12.113
REMARK INTER:                 -11.224
REMARK INTRA:                  -0.889
REMARK UNBOUND:                -0.889
REMARK  Name = 
REMARK  6 active torsions:
REMARK  status: ('A' for Active; 'I' for Inactive)
REMARK    1  A    between atoms: N_1  and  C_2
REMARK    2  A    between atoms: C_6  and  C_7
REMARK    3  A    between atoms: C_7  and  C_8
REMARK    4  A    between atoms: C_11  and  C_12
REMARK    5  A    between atoms: C_12  and  N_13
REMARK    6  A    between atoms: C_14  and  C_16
REMARK                            x       y       z     vdW  Elec       q    Type
REMARK                         _______ _______ _______ _____ _____    ______ ____
ROOT
ATOM      1  C   UNL     1      44.794   4.625  10.271  0.00  0.00    +0.000 A 
ATOM      2  C   UNL     1      44.332   4.705  11.581  0.00  0.00    +0.000 A 
ATOM      3  C   UNL     1      44.874   5.668  12.431  0.00  0.00    +0.000 A 
ATOM      4  C   UNL     1      45.872   6.525  11.965  0.00  0.00    +0.000 A 
ATOM      5  C   UNL     1      46.281   6.363  10.647  0.00  0.00    +0.000 A 
ATOM      6  N   UNL     1      45.775   5.436   9.799  0.00  0.00    +0.000 NA
ENDROOT
BRANCH   1   7
ATOM      7  C   UNL     1      44.151   3.667   9.289  0.00  0.00    +0.000 C 
BRANCH   7  12
ATOM      8  C   UNL     1      46.613   2.834   6.472  0.00  0.00    +0.000 A 
ATOM      9  C   UNL     1      47.076   1.585   6.892  0.00  0.00    +0.000 A 
ATOM     10  C   UNL     1      46.540   0.972   8.025  0.00  0.00    +0.000 A 
ATOM     11  C   UNL     1      45.572   1.632   8.780  0.00  0.00    +0.000 A 
ATOM     12  C   UNL     1      45.154   2.923   8.429  0.00  0.00    +0.000 A 
ATOM     13  C   UNL     1      45.693   3.516   7.276  0.00  0.00    +0.000 A 
BRANCH   8  14
ATOM     14  N   UNL     1      47.231   3.488   5.397  0.00  0.00    +0.000 N 
ATOM     15  H   UNL     1      48.213   3.689   5.561  0.00  0.00    +0.000 HD
ATOM     16  H   UNL     1      47.084   3.021   4.507  0.00  0.00    +0.000 HD
ENDBRANCH   8  14
ENDBRANCH   7  12
ENDBRANCH   1   7
BRANCH   4  17
ATOM     17  C   UNL     1      46.433   7.622  12.822  0.00  0.00    +0.000 C 
BRANCH  17  18
ATOM     18  N   UNL     1      46.999   7.092  14.038  0.00  0.00    +0.000 N 
ATOM     19  C   UNL     1      48.278   6.600  14.083  0.00  0.00    +0.000 C 
ATOM     20  O   UNL     1      49.016   6.611  13.100  0.00  0.00    +0.000 OA
ATOM     21  H   UNL     1      46.351   6.850  14.781  0.00  0.00    +0.000 HD
BRANCH  19  22
ATOM     22  C   UNL     1      48.747   6.123  15.390  0.00  0.00    +0.000 A 
ATOM     23  C   UNL     1      49.806   6.762  16.022  0.00  0.00    +0.000 A 
ATOM     24  S   UNL     1      50.160   6.133  17.567  0.00  0.00    +0.000 S 
ATOM     25  C   UNL     1      48.952   4.943  17.421  0.00  0.00    +0.000 A 
ATOM     26  N   UNL     1      48.733   4.039  18.415  0.00  0.00    +0.000 NA
ATOM     27  C   UNL     1      47.809   3.177  18.157  0.00  0.00    +0.000 A 
ATOM     28  N   UNL     1      47.080   3.134  16.994  0.00  0.00    +0.000 N 
ATOM     29  C   UNL     1      47.250   4.040  15.976  0.00  0.00    +0.000 A 
ATOM     30  O   UNL     1      46.562   3.996  14.961  0.00  0.00    +0.000 OA
ATOM     31  C   UNL     1      48.281   5.032  16.216  0.00  0.00    +0.000 A 
ATOM     32  H   UNL     1      46.369   2.434  16.856  0.00  0.00    +0.000 HD
ENDBRANCH  19  22
ENDBRANCH  17  18
ENDBRANCH   4  17
TORSDOF 6
ENDMDL
MODEL 2
REMARK VINA RESULT:    -8.073      1.387      2.025
REMARK INTER + INTRA:         -11.557
REMARK INTER:                 -10.716
REMARK INTRA:                  -0.841
REMARK UNBOUND:                -0.889
REMARK  Name = 
REMARK  6 active torsions:
REMARK  status: ('A' for Active; 'I' for Inactive)
REMARK    1  A    between atoms: N_1  and  C_2
REMARK    2  A    between atoms: C_6  and  C_7
REMARK    3  A    between atoms: C_7  and  C_8
REMARK    4  A    between atoms: C_11  and  C_12
REMARK    5  A    between atoms: C_12  and  N_13
REMARK    6  A    between atoms: C_14  and  C_16
REMARK                            x       y       z     vdW  Elec       q    Type
REMARK                         _______ _______ _______ _____ _____    ______ ____
ROOT
ATOM      1  C   UNL     1      44.943   4.544   9.532  0.00  0.00    +0.000 A 
ATOM      2  C   UNL     1      44.334   4.325  10.765  0.00  0.00    +0.000 A 
ATOM      3  C   UNL     1      44.716   5.106  11.855  0.00  0.00    +0.000 A 
ATOM      4  C   UNL     1      45.703   6.081  11.701  0.00  0.00    +0.000 A 
ATOM      5  C   UNL     1      46.265   6.219  10.438  0.00  0.00    +0.000 A 
ATOM      6  N   UNL     1      45.917   5.474   9.361  0.00  0.00    +0.000 NA
ENDROOT
BRANCH   1   7
ATOM      7  C   UNL     1      44.476   3.791   8.303  0.00  0.00    +0.000 C 
BRANCH   7  12
ATOM      8  C   UNL     1      47.281   2.341   6.131  0.00  0.00    +0.000 A 
ATOM      9  C   UNL     1      47.507   1.123   6.775  0.00  0.00    +0.000 A 
ATOM     10  C   UNL     1      46.707   0.728   7.848  0.00  0.00    +0.000 A 
ATOM     11  C   UNL     1      45.707   1.577   8.320  0.00  0.00    +0.000 A 
ATOM     12  C   UNL     1      45.518   2.842   7.746  0.00  0.00    +0.000 A 
ATOM     13  C   UNL     1      46.322   3.215   6.657  0.00  0.00    +0.000 A 
BRANCH   8  14
ATOM     14  N   UNL     1      48.155   2.777   5.125  0.00  0.00    +0.000 N 
ATOM     15  H   UNL     1      47.772   2.677   4.190  0.00  0.00    +0.000 HD
ATOM     16  H   UNL     1      48.517   3.713   5.288  0.00  0.00    +0.000 HD
ENDBRANCH   8  14
ENDBRANCH   7  12
ENDBRANCH   1   7
BRANCH   4  17
ATOM     17  C   UNL     1      46.094   6.992  12.827  0.00  0.00    +0.000 C 
BRANCH  17  18
ATOM     18  N   UNL     1      46.411   6.240  14.016  0.00  0.00    +0.000 N 
ATOM     19  C   UNL     1      47.694   5.848  14.300  0.00  0.00    +0.000 C 
ATOM     20  O   UNL     1      48.641   6.140  13.574  0.00  0.00    +0.000 OA
ATOM     21  H   UNL     1      45.639   5.785  14.493  0.00  0.00    +0.000 HD
BRANCH  19  22
ATOM     22  C   UNL     1      47.889   5.119  15.560  0.00  0.00    +0.000 A 
ATOM     23  C   UNL     1      47.301   3.873  15.738  0.00  0.00    +0.000 A 
ATOM     24  S   UNL     1      47.703   3.134  17.221  0.00  0.00    +0.000 S 
ATOM     25  C   UNL     1      48.627   4.478  17.705  0.00  0.00    +0.000 A 
ATOM     26  N   UNL     1      49.251   4.503  18.916  0.00  0.00    +0.000 NA
ATOM     27  C   UNL     1      49.890   5.595  19.163  0.00  0.00    +0.000 A 
ATOM     28  N   UNL     1      49.965   6.669  18.311  0.00  0.00    +0.000 N 
ATOM     29  C   UNL     1      49.373   6.679  17.072  0.00  0.00    +0.000 A 
ATOM     30  O   UNL     1      49.484   7.641  16.319  0.00  0.00    +0.000 OA
ATOM     31  C   UNL     1      48.638   5.471  16.744  0.00  0.00    +0.000 A 
ATOM     32  H   UNL     1      50.484   7.495  18.565  0.00  0.00    +0.000 HD
ENDBRANCH  19  22
ENDBRANCH  17  18
ENDBRANCH   4  17
TORSDOF 6
ENDMDL
MODEL 3
REMARK VINA RESULT:    -7.967      2.474      4.060
REMARK INTER + INTRA:         -11.418
REMARK INTER:                 -10.422
REMARK INTRA:                  -0.996
REMARK UNBOUND:                -0.889
REMARK  Name = 
REMARK  6 active torsions:
REMARK  status: ('A' for Active; 'I' for Inactive)
REMARK    1  A    between atoms: N_1  and  C_2
REMARK    2  A    between atoms: C_6  and  C_7
REMARK    3  A    between atoms: C_7  and  C_8
REMARK    4  A    between atoms: C_11  and  C_12
REMARK    5  A    between atoms: C_12  and  N_13
REMARK    6  A    between atoms: C_14  and  C_16
REMARK                            x       y       z     vdW  Elec       q    Type
REMARK                         _______ _______ _______ _____ _____    ______ ____
ROOT
ATOM      1  C   UNL     1      45.136   4.537  10.173  0.00  0.00    +0.000 A 
ATOM      2  C   UNL     1      45.791   5.747  10.384  0.00  0.00    +0.000 A 
ATOM      3  C   UNL     1      46.253   6.050  11.664  0.00  0.00    +0.000 A 
ATOM      4  C   UNL     1      46.045   5.151  12.711  0.00  0.00    +0.000 A 
ATOM      5  C   UNL     1      45.369   3.975  12.410  0.00  0.00    +0.000 A 
ATOM      6  N   UNL     1      44.907   3.653  11.178  0.00  0.00    +0.000 NA
ENDROOT
BRANCH   1   7
ATOM      7  C   UNL     1      44.720   4.125   8.776  0.00  0.00    +0.000 C 
BRANCH   7  12
ATOM      8  C   UNL     1      47.449   2.424   6.691  0.00  0.00    +0.000 A 
ATOM      9  C   UNL     1      47.321   1.102   7.123  0.00  0.00    +0.000 A 
ATOM     10  C   UNL     1      46.310   0.740   8.013  0.00  0.00    +0.000 A 
ATOM     11  C   UNL     1      45.449   1.712   8.522  0.00  0.00    +0.000 A 
ATOM     12  C   UNL     1      45.612   3.059   8.171  0.00  0.00    +0.000 A 
ATOM     13  C   UNL     1      46.626   3.402   7.260  0.00  0.00    +0.000 A 
BRANCH   8  14
ATOM     14  N   UNL     1      48.531   2.798   5.882  0.00  0.00    +0.000 N 
ATOM     15  H   UNL     1      49.275   2.107   5.862  0.00  0.00    +0.000 HD
ATOM     16  H   UNL     1      48.252   3.080   4.946  0.00  0.00    +0.000 HD
ENDBRANCH   8  14
ENDBRANCH   7  12
ENDBRANCH   1   7
BRANCH   4  17
ATOM     17  C   UNL     1      46.587   5.403  14.087  0.00  0.00    +0.000 C 
BRANCH  17  18
ATOM     18  N   UNL     1      47.331   6.638  14.133  0.00  0.00    +0.000 N 
ATOM     19  C   UNL     1      48.475   6.763  14.878  0.00  0.00    +0.000 C 
ATOM     20  O   UNL     1      48.939   5.824  15.521  0.00  0.00    +0.000 OA
ATOM     21  H   UNL     1      46.851   7.476  13.820  0.00  0.00    +0.000 HD
BRANCH  19  22
ATOM     22  C   UNL     1      49.158   8.060  14.811  0.00  0.00    +0.000 A 
ATOM     23  C   UNL     1      49.264   8.848  15.949  0.00  0.00    +0.000 A 
ATOM     24  S   UNL     1      50.162  10.278  15.710  0.00  0.00    +0.000 S 
ATOM     25  C   UNL     1      50.389   9.926  14.060  0.00  0.00    +0.000 A 
ATOM     26  N   UNL     1      51.079  10.775  13.250  0.00  0.00    +0.000 NA
ATOM     27  C   UNL     1      51.147  10.397  12.019  0.00  0.00    +0.000 A 
ATOM     28  N   UNL     1      50.588   9.247  11.520  0.00  0.00    +0.000 N 
ATOM     29  C   UNL     1      49.904   8.351  12.304  0.00  0.00    +0.000 A 
ATOM     30  O   UNL     1      49.443   7.315  11.836  0.00  0.00    +0.000 OA
ATOM     31  C   UNL     1      49.798   8.730  13.701  0.00  0.00    +0.000 A 
ATOM     32  H   UNL     1      50.679   9.009  10.544  0.00  0.00    +0.000 HD
ENDBRANCH  19  22
ENDBRANCH  17  18
ENDBRANCH   4  17
TORSDOF 6
ENDMDL
MODEL 4
REMARK VINA RESULT:    -7.866      2.152      2.777
REMARK INTER + INTRA:         -11.284
REMARK INTER:                 -10.630
REMARK INTRA:                  -0.653
REMARK UNBOUND:                -0.889
REMARK  Name = 
REMARK  6 active torsions:
REMARK  status: ('A' for Active; 'I' for Inactive)
REMARK    1  A    between atoms: N_1  and  C_2
REMARK    2  A    between atoms: C_6  and  C_7
REMARK    3  A    between atoms: C_7  and  C_8
REMARK    4  A    between atoms: C_11  and  C_12
REMARK    5  A    between atoms: C_12  and  N_13
REMARK    6  A    between atoms: C_14  and  C_16
REMARK                            x       y       z     vdW  Elec       q    Type
REMARK                         _______ _______ _______ _____ _____    ______ ____
ROOT
ATOM      1  C   UNL     1      45.080   4.480  10.804  0.00  0.00    +0.000 A 
ATOM      2  C   UNL     1      45.467   5.778  10.485  0.00  0.00    +0.000 A 
ATOM      3  C   UNL     1      46.207   6.510  11.412  0.00  0.00    +0.000 A 
ATOM      4  C   UNL     1      46.540   5.941  12.642  0.00  0.00    +0.000 A 
ATOM      5  C   UNL     1      46.099   4.645  12.880  0.00  0.00    +0.000 A 
ATOM      6  N   UNL     1      45.377   3.911  12.001  0.00  0.00    +0.000 NA
ENDROOT
BRANCH   1   7
ATOM      7  C   UNL     1      44.372   3.617   9.780  0.00  0.00    +0.000 C 
BRANCH   7  12
ATOM      8  C   UNL     1      46.514   1.160   7.765  0.00  0.00    +0.000 A 
ATOM      9  C   UNL     1      46.941   1.982   6.720  0.00  0.00    +0.000 A 
ATOM     10  C   UNL     1      46.616   3.339   6.707  0.00  0.00    +0.000 A 
ATOM     11  C   UNL     1      45.813   3.873   7.713  0.00  0.00    +0.000 A 
ATOM     12  C   UNL     1      45.300   3.050   8.724  0.00  0.00    +0.000 A 
ATOM     13  C   UNL     1      45.651   1.690   8.731  0.00  0.00    +0.000 A 
BRANCH   8  14
ATOM     14  N   UNL     1      46.754  -0.221   7.717  0.00  0.00    +0.000 N 
ATOM     15  H   UNL     1      46.325  -0.674   6.915  0.00  0.00    +0.000 HD
ATOM     16  H   UNL     1      47.737  -0.459   7.805  0.00  0.00    +0.000 HD
ENDBRANCH   8  14
ENDBRANCH   7  12
ENDBRANCH   1   7
BRANCH   4  17
ATOM     17  C   UNL     1      47.395   6.665  13.640  0.00  0.00    +0.000 C 
BRANCH  17  18
ATOM     18  N   UNL     1      47.461   5.942  14.887  0.00  0.00    +0.000 N 
ATOM     19  C   UNL     1      48.580   5.969  15.678  0.00  0.00    +0.000 C 
ATOM     20  O   UNL     1      49.572   6.631  15.381  0.00  0.00    +0.000 OA
ATOM     21  H   UNL     1      46.771   5.211  15.033  0.00  0.00    +0.000 HD
BRANCH  19  22
ATOM     22  C   UNL     1      48.506   5.221  16.939  0.00  0.00    +0.000 A 
ATOM     23  C   UNL     1      48.425   3.834  16.919  0.00  0.00    +0.000 A 
ATOM     24  S   UNL     1      48.434   3.127  18.470  0.00  0.00    +0.000 S 
ATOM     25  C   UNL     1      48.483   4.650  19.226  0.00  0.00    +0.000 A 
ATOM     26  N   UNL     1      48.494   4.761  20.584  0.00  0.00    +0.000 NA
ATOM     27  C   UNL     1      48.500   5.975  21.018  0.00  0.00    +0.000 A 
ATOM     28  N   UNL     1      48.499   7.093  20.222  0.00  0.00    +0.000 N 
ATOM     29  C   UNL     1      48.513   7.029  18.850  0.00  0.00    +0.000 A 
ATOM     30  O   UNL     1      48.543   8.046  18.165  0.00  0.00    +0.000 OA
ATOM     31  C   UNL     1      48.504   5.683  18.308  0.00  0.00    +0.000 A 
ATOM     32  H   UNL     1      48.506   8.016  20.627  0.00  0.00    +0.000 HD
ENDBRANCH  19  22
ENDBRANCH  17  18
ENDBRANCH   4  17
TORSDOF 6
ENDMDL
MODEL 5
REMARK VINA RESULT:    -7.303      2.323      2.916
REMARK INTER + INTRA:         -10.540
REMARK INTER:                  -9.518
REMARK INTRA:                  -1.022
REMARK UNBOUND:                -0.889
REMARK  Name = 
REMARK  6 active torsions:
REMARK  status: ('A' for Active; 'I' for Inactive)
REMARK    1  A    between atoms: N_1  and  C_2
REMARK    2  A    between atoms: C_6  and  C_7
REMARK    3  A    between atoms: C_7  and  C_8
REMARK    4  A    between atoms: C_11  and  C_12
REMARK    5  A    between atoms: C_12  and  N_13
REMARK    6  A    between atoms: C_14  and  C_16
REMARK                            x       y       z     vdW  Elec       q    Type
REMARK                         _______ _______ _______ _____ _____    ______ ____
ROOT
ATOM      1  C   UNL     1      45.206   5.981  11.456  0.00  0.00    +0.000 A 
ATOM      2  C   UNL     1      46.134   5.236  12.177  0.00  0.00    +0.000 A 
ATOM      3  C   UNL     1      47.046   5.901  12.996  0.00  0.00    +0.000 A 
ATOM      4  C   UNL     1      47.024   7.295  13.074  0.00  0.00    +0.000 A 
ATOM      5  C   UNL     1      46.072   7.956  12.308  0.00  0.00    +0.000 A 
ATOM      6  N   UNL     1      45.176   7.338  11.502  0.00  0.00    +0.000 NA
ENDROOT
BRANCH   1   7
ATOM      7  C   UNL     1      44.132   5.288  10.643  0.00  0.00    +0.000 C 
BRANCH   7  12
ATOM      8  C   UNL     1      46.049   3.588   7.794  0.00  0.00    +0.000 A 
ATOM      9  C   UNL     1      45.752   2.246   8.043  0.00  0.00    +0.000 A 
ATOM     10  C   UNL     1      44.872   1.893   9.066  0.00  0.00    +0.000 A 
ATOM     11  C   UNL     1      44.323   2.878   9.885  0.00  0.00    +0.000 A 
ATOM     12  C   UNL     1      44.675   4.224   9.710  0.00  0.00    +0.000 A 
ATOM     13  C   UNL     1      45.549   4.562   8.665  0.00  0.00    +0.000 A 
BRANCH   8  14
ATOM     14  N   UNL     1      47.014   3.927   6.836  0.00  0.00    +0.000 N 
ATOM     15  H   UNL     1      47.964   3.719   7.131  0.00  0.00    +0.000 HD
ATOM     16  H   UNL     1      46.814   3.550   5.914  0.00  0.00    +0.000 HD
ENDBRANCH   8  14
ENDBRANCH   7  12
ENDBRANCH   1   7
BRANCH   4  17
ATOM     17  C   UNL     1      47.937   8.048  13.995  0.00  0.00    +0.000 C 
BRANCH  17  18
ATOM     18  N   UNL     1      47.942   7.461  15.313  0.00  0.00    +0.000 N 
ATOM     19  C   UNL     1      49.049   6.827  15.815  0.00  0.00    +0.000 C 
ATOM     20  O   UNL     1      50.100   6.750  15.181  0.00  0.00    +0.000 OA
ATOM     21  H   UNL     1      47.040   7.297  15.748  0.00  0.00    +0.000 HD
BRANCH  19  22
ATOM     22  C   UNL     1      48.937   6.304  17.182  0.00  0.00    +0.000 A 
ATOM     23  C   UNL     1      49.317   4.997  17.458  0.00  0.00    +0.000 A 
ATOM     24  S   UNL     1      49.203   4.587  19.110  0.00  0.00    +0.000 S 
ATOM     25  C   UNL     1      48.583   6.121  19.506  0.00  0.00    +0.000 A 
ATOM     26  N   UNL     1      48.249   6.434  20.789  0.00  0.00    +0.000 NA
ATOM     27  C   UNL     1      47.764   7.619  20.938  0.00  0.00    +0.000 A 
ATOM     28  N   UNL     1      47.580   8.525  19.923  0.00  0.00    +0.000 N 
ATOM     29  C   UNL     1      47.925   8.261  18.620  0.00  0.00    +0.000 A 
ATOM     30  O   UNL     1      47.779   9.103  17.739  0.00  0.00    +0.000 OA
ATOM     31  C   UNL     1      48.476   6.938  18.396  0.00  0.00    +0.000 A 
ATOM     32  H   UNL     1      47.197   9.438  20.109  0.00  0.00    +0.000 HD
ENDBRANCH  19  22
ENDBRANCH  17  18
ENDBRANCH   4  17
TORSDOF 6
ENDMDL
MODEL 6
REMARK VINA RESULT:    -7.166      2.073      2.511
REMARK INTER + INTRA:         -10.360
REMARK INTER:                  -9.445
REMARK INTRA:                  -0.915
REMARK UNBOUND:                -0.889
REMARK  Name = 
REMARK  6 active torsions:
REMARK  status: ('A' for Active; 'I' for Inactive)
REMARK    1  A    between atoms: N_1  and  C_2
REMARK    2  A    between atoms: C_6  and  C_7
REMARK    3  A    between atoms: C_7  and  C_8
REMARK    4  A    between atoms: C_11  and  C_12
REMARK    5  A    between atoms: C_12  and  N_13
REMARK    6  A    between atoms: C_14  and  C_16
REMARK                            x       y       z     vdW  Elec       q    Type
REMARK                         _______ _______ _______ _____ _____    ______ ____
ROOT
ATOM      1  C   UNL     1      44.904   5.976  11.486  0.00  0.00    +0.000 A 
ATOM      2  C   UNL     1      45.955   5.547  12.291  0.00  0.00    +0.000 A 
ATOM      3  C   UNL     1      46.762   6.498  12.914  0.00  0.00    +0.000 A 
ATOM      4  C   UNL     1      46.515   7.858  12.714  0.00  0.00    +0.000 A 
ATOM      5  C   UNL     1      45.454   8.193  11.883  0.00  0.00    +0.000 A 
ATOM      6  N   UNL     1      44.654   7.292  11.263  0.00  0.00    +0.000 NA
ENDROOT
BRANCH   1   7
ATOM      7  C   UNL     1      43.940   4.974  10.885  0.00  0.00    +0.000 C 
BRANCH   7  12
ATOM      8  C   UNL     1      46.028   3.756   7.910  0.00  0.00    +0.000 A 
ATOM      9  C   UNL     1      45.841   2.375   8.008  0.00  0.00    +0.000 A 
ATOM     10  C   UNL     1      44.981   1.842   8.968  0.00  0.00    +0.000 A 
ATOM     11  C   UNL     1      44.342   2.684   9.877  0.00  0.00    +0.000 A 
ATOM     12  C   UNL     1      44.582   4.065   9.855  0.00  0.00    +0.000 A 
ATOM     13  C   UNL     1      45.437   4.586   8.870  0.00  0.00    +0.000 A 
BRANCH   8  14
ATOM     14  N   UNL     1      46.972   4.276   7.014  0.00  0.00    +0.000 N 
ATOM     15  H   UNL     1      47.865   4.488   7.451  0.00  0.00    +0.000 HD
ATOM     16  H   UNL     1      47.085   3.709   6.179  0.00  0.00    +0.000 HD
ENDBRANCH   8  14
ENDBRANCH   7  12
ENDBRANCH   1   7
BRANCH   4  17
ATOM     17  C   UNL     1      47.311   8.916  13.419  0.00  0.00    +0.000 C 
BRANCH  17  18
ATOM     18  N   UNL     1      47.346   8.677  14.841  0.00  0.00    +0.000 N 
ATOM     19  C   UNL     1      48.525   8.659  15.541  0.00  0.00    +0.000 C 
ATOM     20  O   UNL     1      49.607   8.873  14.999  0.00  0.00    +0.000 OA
ATOM     21  H   UNL     1      46.517   8.265  15.259  0.00  0.00    +0.000 HD
BRANCH  19  22
ATOM     22  C   UNL     1      48.420   8.442  16.989  0.00  0.00    +0.000 A 
ATOM     23  C   UNL     1      48.161   9.513  17.834  0.00  0.00    +0.000 A 
ATOM     24  S   UNL     1      47.986   9.066  19.471  0.00  0.00    +0.000 S 
ATOM     25  C   UNL     1      48.311   7.433  19.117  0.00  0.00    +0.000 A 
ATOM     26  N   UNL     1      48.332   6.493  20.102  0.00  0.00    +0.000 NA
ATOM     27  C   UNL     1      48.621   5.304  19.695  0.00  0.00    +0.000 A 
ATOM     28  N   UNL     1      48.892   4.965  18.393  0.00  0.00    +0.000 N 
ATOM     29  C   UNL     1      48.858   5.875  17.365  0.00  0.00    +0.000 A 
ATOM     30  O   UNL     1      49.073   5.536  16.206  0.00  0.00    +0.000 OA
ATOM     31  C   UNL     1      48.538   7.231  17.769  0.00  0.00    +0.000 A 
ATOM     32  H   UNL     1      49.110   4.013  18.141  0.00  0.00    +0.000 HD
ENDBRANCH  19  22
ENDBRANCH  17  18
ENDBRANCH   4  17
TORSDOF 6
ENDMDL
MODEL 7
REMARK VINA RESULT:    -6.986      3.393      8.240
REMARK INTER + INTRA:         -10.121
REMARK INTER:                  -9.279
REMARK INTRA:                  -0.842
REMARK UNBOUND:                -0.889
REMARK  Name = 
REMARK  6 active torsions:
REMARK  status: ('A' for Active; 'I' for Inactive)
REMARK    1  A    between atoms: N_1  and  C_2
REMARK    2  A    between atoms: C_6  and  C_7
REMARK    3  A    between atoms: C_7  and  C_8
REMARK    4  A    between atoms: C_11  and  C_12
REMARK    5  A    between atoms: C_12  and  N_13
REMARK    6  A    between atoms: C_14  and  C_16
REMARK                            x       y       z     vdW  Elec       q    Type
REMARK                         _______ _______ _______ _____ _____    ______ ____
ROOT
ATOM      1  C   UNL     1      49.927   6.539  16.254  0.00  0.00    +0.000 A 
ATOM      2  C   UNL     1      50.702   7.403  15.486  0.00  0.00    +0.000 A 
ATOM      3  C   UNL     1      50.238   7.791  14.230  0.00  0.00    +0.000 A 
ATOM      4  C   UNL     1      49.018   7.304  13.757  0.00  0.00    +0.000 A 
ATOM      5  C   UNL     1      48.320   6.436  14.586  0.00  0.00    +0.000 A 
ATOM      6  N   UNL     1      48.745   6.039  15.809  0.00  0.00    +0.000 NA
ENDROOT
BRANCH   1   7
ATOM      7  C   UNL     1      50.345   6.184  17.666  0.00  0.00    +0.000 C 
BRANCH   7  12
ATOM      8  C   UNL     1      51.333   2.484  17.529  0.00  0.00    +0.000 A 
ATOM      9  C   UNL     1      52.697   2.567  17.815  0.00  0.00    +0.000 A 
ATOM     10  C   UNL     1      53.282   3.793  18.136  0.00  0.00    +0.000 A 
ATOM     11  C   UNL     1      52.514   4.956  18.119  0.00  0.00    +0.000 A 
ATOM     12  C   UNL     1      51.163   4.911  17.750  0.00  0.00    +0.000 A 
ATOM     13  C   UNL     1      50.588   3.666  17.446  0.00  0.00    +0.000 A 
BRANCH   8  14
ATOM     14  N   UNL     1      50.776   1.269  17.105  0.00  0.00    +0.000 N 
ATOM     15  H   UNL     1      51.162   0.462  17.585  0.00  0.00    +0.000 HD
ATOM     16  H   UNL     1      49.760   1.268  17.118  0.00  0.00    +0.000 HD
ENDBRANCH   8  14
ENDBRANCH   7  12
ENDBRANCH   1   7
BRANCH   4  17
ATOM     17  C   UNL     1      48.446   7.750  12.444  0.00  0.00    +0.000 C 
BRANCH  17  18
ATOM     18  N   UNL     1      47.672   6.698  11.832  0.00  0.00    +0.000 N 
ATOM     19  C   UNL     1      46.345   6.862  11.530  0.00  0.00    +0.000 C 
ATOM     20  O   UNL     1      45.755   7.920  11.739  0.00  0.00    +0.000 OA
ATOM     21  H   UNL     1      48.057   5.760  11.873  0.00  0.00    +0.000 HD
BRANCH  19  22
ATOM     22  C   UNL     1      45.680   5.728  10.876  0.00  0.00    +0.000 A 
ATOM     23  C   UNL     1      45.815   5.542   9.506  0.00  0.00    +0.000 A 
ATOM     24  S   UNL     1      45.051   4.130   8.930  0.00  0.00    +0.000 S 
ATOM     25  C   UNL     1      44.460   3.750  10.480  0.00  0.00    +0.000 A 
ATOM     26  N   UNL     1      43.694   2.643  10.688  0.00  0.00    +0.000 NA
ATOM     27  C   UNL     1      43.291   2.496  11.904  0.00  0.00    +0.000 A 
ATOM     28  N   UNL     1      43.582   3.353  12.936  0.00  0.00    +0.000 N 
ATOM     29  C   UNL     1      44.370   4.468  12.778  0.00  0.00    +0.000 A 
ATOM     30  O   UNL     1      44.640   5.198  13.726  0.00  0.00    +0.000 OA
ATOM     31  C   UNL     1      44.850   4.681  11.425  0.00  0.00    +0.000 A 
ATOM     32  H   UNL     1      43.236   3.179  13.866  0.00  0.00    +0.000 HD
ENDBRANCH  19  22
ENDBRANCH  17  18
ENDBRANCH   4  17
TORSDOF 6
ENDMDL
MODEL 8
REMARK VINA RESULT:    -6.866      2.607      3.695
REMARK INTER + INTRA:          -9.963
REMARK INTER:                  -8.577
REMARK INTRA:                  -1.386
REMARK UNBOUND:                -0.889
REMARK  Name = 
REMARK  6 active torsions:
REMARK  status: ('A' for Active; 'I' for Inactive)
REMARK    1  A    between atoms: N_1  and  C_2
REMARK    2  A    between atoms: C_6  and  C_7
REMARK    3  A    between atoms: C_7  and  C_8
REMARK    4  A    between atoms: C_11  and  C_12
REMARK    5  A    between atoms: C_12  and  N_13
REMARK    6  A    between atoms: C_14  and  C_16
REMARK                            x       y       z     vdW  Elec       q    Type
REMARK                         _______ _______ _______ _____ _____    ______ ____
ROOT
ATOM      1  C   UNL     1      45.932   7.484  11.900  0.00  0.00    +0.000 A 
ATOM      2  C   UNL     1      47.142   6.835  11.669  0.00  0.00    +0.000 A 
ATOM      3  C   UNL     1      48.259   7.200  12.420  0.00  0.00    +0.000 A 
ATOM      4  C   UNL     1      48.154   8.211  13.377  0.00  0.00    +0.000 A 
ATOM      5  C   UNL     1      46.910   8.813  13.528  0.00  0.00    +0.000 A 
ATOM      6  N   UNL     1      45.809   8.481  12.813  0.00  0.00    +0.000 NA
ENDROOT
BRANCH   1   7
ATOM      7  C   UNL     1      44.675   7.038  11.182  0.00  0.00    +0.000 C 
BRANCH   7  12
ATOM      8  C   UNL     1      44.087   3.263  10.877  0.00  0.00    +0.000 A 
ATOM      9  C   UNL     1      43.597   2.971  12.151  0.00  0.00    +0.000 A 
ATOM     10  C   UNL     1      43.374   3.991  13.077  0.00  0.00    +0.000 A 
ATOM     11  C   UNL     1      43.692   5.309  12.752  0.00  0.00    +0.000 A 
ATOM     12  C   UNL     1      44.267   5.615  11.510  0.00  0.00    +0.000 A 
ATOM     13  C   UNL     1      44.469   4.578  10.586  0.00  0.00    +0.000 A 
BRANCH   8  14
ATOM     14  N   UNL     1      44.409   2.224   9.992  0.00  0.00    +0.000 N 
ATOM     15  H   UNL     1      45.241   2.411   9.440  0.00  0.00    +0.000 HD
ATOM     16  H   UNL     1      44.450   1.314  10.443  0.00  0.00    +0.000 HD
ENDBRANCH   8  14
ENDBRANCH   7  12
ENDBRANCH   1   7
BRANCH   4  17
ATOM     17  C   UNL     1      49.309   8.588  14.257  0.00  0.00    +0.000 C 
BRANCH  17  18
ATOM     18  N   UNL     1      49.432   7.677  15.369  0.00  0.00    +0.000 N 
ATOM     19  C   UNL     1      48.874   7.951  16.591  0.00  0.00    +0.000 C 
ATOM     20  O   UNL     1      48.219   8.970  16.794  0.00  0.00    +0.000 OA
ATOM     21  H   UNL     1      50.154   6.966  15.304  0.00  0.00    +0.000 HD
BRANCH  19  22
ATOM     22  C   UNL     1      49.041   6.925  17.628  0.00  0.00    +0.000 A 
ATOM     23  C   UNL     1      49.603   7.262  18.852  0.00  0.00    +0.000 A 
ATOM     24  S   UNL     1      49.639   5.971  19.966  0.00  0.00    +0.000 S 
ATOM     25  C   UNL     1      48.962   4.899  18.831  0.00  0.00    +0.000 A 
ATOM     26  N   UNL     1      48.736   3.594  19.146  0.00  0.00    +0.000 NA
ATOM     27  C   UNL     1      48.247   2.891  18.181  0.00  0.00    +0.000 A 
ATOM     28  N   UNL     1      47.962   3.371  16.928  0.00  0.00    +0.000 N 
ATOM     29  C   UNL     1      48.151   4.685  16.573  0.00  0.00    +0.000 A 
ATOM     30  O   UNL     1      47.856   5.092  15.455  0.00  0.00    +0.000 OA
ATOM     31  C   UNL     1      48.701   5.520  17.624  0.00  0.00    +0.000 A 
ATOM     32  H   UNL     1      47.578   2.767  16.218  0.00  0.00    +0.000 HD
ENDBRANCH  19  22
ENDBRANCH  17  18
ENDBRANCH   4  17
TORSDOF 6
ENDMDL
MODEL 9
REMARK VINA RESULT:    -6.746      3.976      9.594
REMARK INTER + INTRA:          -9.805
REMARK INTER:                  -9.136
REMARK INTRA:                  -0.669
REMARK UNBOUND:                -0.889
REMARK  Name = 
REMARK  6 active torsions:
REMARK  status: ('A' for Active; 'I' for Inactive)
REMARK    1  A    between atoms: N_1  and  C_2
REMARK    2  A    between atoms: C_6  and  C_7
REMARK    3  A    between atoms: C_7  and  C_8
REMARK    4  A    between atoms: C_11  and  C_12
REMARK    5  A    between atoms: C_12  and  N_13
REMARK    6  A    between atoms: C_14  and  C_16
REMARK                            x       y       z     vdW  Elec       q    Type
REMARK                         _______ _______ _______ _____ _____    ______ ____
ROOT
ATOM      1  C   UNL     1      51.308   2.667  17.450  0.00  0.00    +0.000 A 
ATOM      2  C   UNL     1      50.797   3.893  17.865  0.00  0.00    +0.000 A 
ATOM      3  C   UNL     1      49.447   4.170  17.651  0.00  0.00    +0.000 A 
ATOM      4  C   UNL     1      48.635   3.227  17.019  0.00  0.00    +0.000 A 
ATOM      5  C   UNL     1      49.235   2.037  16.627  0.00  0.00    +0.000 A 
ATOM      6  N   UNL     1      50.542   1.741  16.819  0.00  0.00    +0.000 NA
ENDROOT
BRANCH   1   7
ATOM      7  C   UNL     1      52.741   2.288  17.765  0.00  0.00    +0.000 C 
BRANCH   7  12
ATOM      8  C   UNL     1      54.152   4.410  20.628  0.00  0.00    +0.000 A 
ATOM      9  C   UNL     1      54.966   5.296  19.919  0.00  0.00    +0.000 A 
ATOM     10  C   UNL     1      54.997   5.271  18.525  0.00  0.00    +0.000 A 
ATOM     11  C   UNL     1      54.253   4.320  17.828  0.00  0.00    +0.000 A 
ATOM     12  C   UNL     1      53.496   3.364  18.520  0.00  0.00    +0.000 A 
ATOM     13  C   UNL     1      53.465   3.415  19.923  0.00  0.00    +0.000 A 
BRANCH   8  14
ATOM     14  N   UNL     1      54.208   4.370  22.028  0.00  0.00    +0.000 N 
ATOM     15  H   UNL     1      55.139   4.176  22.387  0.00  0.00    +0.000 HD
ATOM     16  H   UNL     1      53.796   5.187  22.468  0.00  0.00    +0.000 HD
ENDBRANCH   8  14
ENDBRANCH   7  12
ENDBRANCH   1   7
BRANCH   4  17
ATOM     17  C   UNL     1      47.163   3.452  16.832  0.00  0.00    +0.000 C 
BRANCH  17  18
ATOM     18  N   UNL     1      46.917   4.495  15.867  0.00  0.00    +0.000 N 
ATOM     19  C   UNL     1      46.976   4.257  14.518  0.00  0.00    +0.000 C 
ATOM     20  O   UNL     1      47.213   3.141  14.063  0.00  0.00    +0.000 OA
ATOM     21  H   UNL     1      46.961   5.452  16.202  0.00  0.00    +0.000 HD
BRANCH  19  22
ATOM     22  C   UNL     1      46.668   5.395  13.642  0.00  0.00    +0.000 A 
ATOM     23  C   UNL     1      47.640   6.353  13.383  0.00  0.00    +0.000 A 
ATOM     24  S   UNL     1      47.140   7.552  12.279  0.00  0.00    +0.000 S 
ATOM     25  C   UNL     1      45.586   6.869  12.154  0.00  0.00    +0.000 A 
ATOM     26  N   UNL     1      44.633   7.432  11.361  0.00  0.00    +0.000 NA
ATOM     27  C   UNL     1      43.494   6.828  11.387  0.00  0.00    +0.000 A 
ATOM     28  N   UNL     1      43.218   5.709  12.133  0.00  0.00    +0.000 N 
ATOM     29  C   UNL     1      44.154   5.094  12.927  0.00  0.00    +0.000 A 
ATOM     30  O   UNL     1      43.887   4.076  13.557  0.00  0.00    +0.000 OA
ATOM     31  C   UNL     1      45.455   5.736  12.935  0.00  0.00    +0.000 A 
ATOM     32  H   UNL     1      42.304   5.283  12.106  0.00  0.00    +0.000 HD
ENDBRANCH  19  22
ENDBRANCH  17  18
ENDBRANCH   4  17
TORSDOF 6
ENDMDL
