MODEL 1
REMARK VINA RESULT:    -8.560      0.000      0.000
REMARK INTER + INTRA:         -11.609
REMARK INTER:                 -11.062
REMARK INTRA:                  -0.547
REMARK UNBOUND:                -0.547
REMARK  Name = 
REMARK  6 active torsions:
REMARK  status: ('A' for Active; 'I' for Inactive)
REMARK    1  A    between atoms: C_1  and  C_2
REMARK    2  A    between atoms: N_7  and  C_8
REMARK    3  A    between atoms: C_8  and  C_9
REMARK    4  A    between atoms: C_12  and  C_13
REMARK    5  A    between atoms: C_13  and  N_14
REMARK    6  A    between atoms: C_15  and  C_17
REMARK                            x       y       z     vdW  Elec       q    Type
REMARK                         _______ _______ _______ _____ _____    ______ ____
ROOT
ATOM      1  C   UNL     1      44.989   5.033  11.407  0.00  0.00    +0.000 A 
ATOM      2  C   UNL     1      45.527   6.249  10.963  0.00  0.00    +0.000 A 
ATOM      3  C   UNL     1      46.591   6.854  11.646  0.00  0.00    +0.000 A 
ATOM      4  C   UNL     1      47.154   6.244  12.775  0.00  0.00    +0.000 A 
ATOM      5  C   UNL     1      46.612   5.034  13.224  0.00  0.00    +0.000 A 
ATOM      6  C   UNL     1      45.551   4.429  12.542  0.00  0.00    +0.000 A 
ENDROOT
BRANCH   1   7
ATOM      7  C   UNL     1      43.832   4.382  10.675  0.00  0.00    +0.000 C 
BRANCH   7  14
ATOM      8  C   UNL     1      46.783   0.062   7.665  0.00  0.00    +0.000 C 
ATOM      9  C   UNL     1      46.321   1.467   7.910  0.00  0.00    +0.000 A 
ATOM     10  C   UNL     1      46.649   2.481   7.038  0.00  0.00    +0.000 A 
ATOM     11  C   UNL     1      46.134   3.716   7.347  0.00  0.00    +0.000 A 
ATOM     12  N   UNL     1      45.338   3.951   8.408  0.00  0.00    +0.000 NA
ATOM     13  C   UNL     1      45.057   2.907   9.201  0.00  0.00    +0.000 A 
ATOM     14  N   UNL     1      44.190   3.047  10.263  0.00  0.00    +0.000 N 
ATOM     15  N   UNL     1      45.551   1.675   9.003  0.00  0.00    +0.000 NA
ATOM     16  H   UNL     1      44.379   2.354  10.973  0.00  0.00    +0.000 HD
ENDBRANCH   7  14
ENDBRANCH   1   7
BRANCH   4  17
ATOM     17  C   UNL     1      48.313   6.882  13.500  0.00  0.00    +0.000 C 
BRANCH  17  18
ATOM     18  N   UNL     1      48.086   6.960  14.919  0.00  0.00    +0.000 N 
ATOM     19  C   UNL     1      49.120   6.789  15.810  0.00  0.00    +0.000 C 
ATOM     20  O   UNL     1      50.278   6.630  15.433  0.00  0.00    +0.000 OA
ATOM     21  H   UNL     1      47.125   6.863  15.242  0.00  0.00    +0.000 HD
BRANCH  19  22
ATOM     22  C   UNL     1      48.785   6.854  17.238  0.00  0.00    +0.000 A 
ATOM     23  C   UNL     1      48.390   8.062  17.796  0.00  0.00    +0.000 A 
ATOM     24  S   UNL     1      47.997   7.957  19.452  0.00  0.00    +0.000 S 
ATOM     25  C   UNL     1      48.388   6.302  19.495  0.00  0.00    +0.000 A 
ATOM     26  N   UNL     1      48.290   5.593  20.651  0.00  0.00    +0.000 NA
ATOM     27  C   UNL     1      48.649   4.356  20.548  0.00  0.00    +0.000 A 
ATOM     28  N   UNL     1      49.091   3.765  19.392  0.00  0.00    +0.000 N 
ATOM     29  C   UNL     1      49.174   4.434  18.195  0.00  0.00    +0.000 A 
ATOM     30  O   UNL     1      49.531   3.864  17.169  0.00  0.00    +0.000 OA
ATOM     31  C   UNL     1      48.794   5.832  18.259  0.00  0.00    +0.000 A 
ATOM     32  H   UNL     1      49.349   2.790  19.376  0.00  0.00    +0.000 HD
ENDBRANCH  19  22
ENDBRANCH  17  18
ENDBRANCH   4  17
TORSDOF 5
ENDMDL
MODEL 2
REMARK VINA RESULT:    -8.257      1.386      2.254
REMARK INTER + INTRA:         -11.217
REMARK INTER:                 -10.433
REMARK INTRA:                  -0.784
REMARK UNBOUND:                -0.547
REMARK  Name = 
REMARK  6 active torsions:
REMARK  status: ('A' for Active; 'I' for Inactive)
REMARK    1  A    between atoms: C_1  and  C_2
REMARK    2  A    between atoms: N_7  and  C_8
REMARK    3  A    between atoms: C_8  and  C_9
REMARK    4  A    between atoms: C_12  and  C_13
REMARK    5  A    between atoms: C_13  and  N_14
REMARK    6  A    between atoms: C_15  and  C_17
REMARK                            x       y       z     vdW  Elec       q    Type
REMARK                         _______ _______ _______ _____ _____    ______ ____
ROOT
ATOM      1  C   UNL     1      44.973   4.888  11.790  0.00  0.00    +0.000 A 
ATOM      2  C   UNL     1      45.557   4.170  12.844  0.00  0.00    +0.000 A 
ATOM      3  C   UNL     1      46.620   4.713  13.578  0.00  0.00    +0.000 A 
ATOM      4  C   UNL     1      47.107   5.994  13.289  0.00  0.00    +0.000 A 
ATOM      5  C   UNL     1      46.531   6.709  12.231  0.00  0.00    +0.000 A 
ATOM      6  C   UNL     1      45.468   6.167  11.499  0.00  0.00    +0.000 A 
ENDROOT
BRANCH   1   7
ATOM      7  C   UNL     1      43.830   4.298  10.989  0.00  0.00    +0.000 C 
BRANCH   7  14
ATOM      8  C   UNL     1      46.740   0.233   7.606  0.00  0.00    +0.000 C 
ATOM      9  C   UNL     1      46.264   1.611   7.956  0.00  0.00    +0.000 A 
ATOM     10  C   UNL     1      46.542   2.684   7.139  0.00  0.00    +0.000 A 
ATOM     11  C   UNL     1      46.017   3.887   7.544  0.00  0.00    +0.000 A 
ATOM     12  N   UNL     1      45.258   4.039   8.646  0.00  0.00    +0.000 NA
ATOM     13  C   UNL     1      45.024   2.943   9.380  0.00  0.00    +0.000 A 
ATOM     14  N   UNL     1      44.194   2.998  10.480  0.00  0.00    +0.000 N 
ATOM     15  N   UNL     1      45.531   1.735   9.087  0.00  0.00    +0.000 NA
ATOM     16  H   UNL     1      44.422   2.266  11.137  0.00  0.00    +0.000 HD
ENDBRANCH   7  14
ENDBRANCH   1   7
BRANCH   4  17
ATOM     17  C   UNL     1      48.237   6.591  14.090  0.00  0.00    +0.000 C 
BRANCH  17  18
ATOM     18  N   UNL     1      48.038   6.431  15.507  0.00  0.00    +0.000 N 
ATOM     19  C   UNL     1      49.103   6.210  16.349  0.00  0.00    +0.000 C 
ATOM     20  O   UNL     1      50.262   6.206  15.939  0.00  0.00    +0.000 OA
ATOM     21  H   UNL     1      47.096   6.207  15.821  0.00  0.00    +0.000 HD
BRANCH  19  22
ATOM     22  C   UNL     1      48.798   6.026  17.773  0.00  0.00    +0.000 A 
ATOM     23  C   UNL     1      49.016   4.790  18.367  0.00  0.00    +0.000 A 
ATOM     24  S   UNL     1      48.651   4.756  20.033  0.00  0.00    +0.000 S 
ATOM     25  C   UNL     1      48.141   6.379  20.009  0.00  0.00    +0.000 A 
ATOM     26  N   UNL     1      47.674   6.979  21.137  0.00  0.00    +0.000 NA
ATOM     27  C   UNL     1      47.291   8.201  20.969  0.00  0.00    +0.000 A 
ATOM     28  N   UNL     1      47.339   8.877  19.777  0.00  0.00    +0.000 N 
ATOM     29  C   UNL     1      47.833   8.322  18.621  0.00  0.00    +0.000 A 
ATOM     30  O   UNL     1      47.904   8.970  17.582  0.00  0.00    +0.000 OA
ATOM     31  C   UNL     1      48.266   6.944  18.753  0.00  0.00    +0.000 A 
ATOM     32  H   UNL     1      47.031   9.836  19.714  0.00  0.00    +0.000 HD
ENDBRANCH  19  22
ENDBRANCH  17  18
ENDBRANCH   4  17
TORSDOF 5
ENDMDL
MODEL 3
REMARK VINA RESULT:    -7.880      1.499      2.097
REMARK INTER + INTRA:         -10.730
REMARK INTER:                  -9.770
REMARK INTRA:                  -0.961
REMARK UNBOUND:                -0.547
REMARK  Name = 
REMARK  6 active torsions:
REMARK  status: ('A' for Active; 'I' for Inactive)
REMARK    1  A    between atoms: C_1  and  C_2
REMARK    2  A    between atoms: N_7  and  C_8
REMARK    3  A    between atoms: C_8  and  C_9
REMARK    4  A    between atoms: C_12  and  C_13
REMARK    5  A    between atoms: C_13  and  N_14
REMARK    6  A    between atoms: C_15  and  C_17
REMARK                            x       y       z     vdW  Elec       q    Type
REMARK                         _______ _______ _______ _____ _____    ______ ____
ROOT
ATOM      1  C   UNL     1      45.503   6.652  11.557  0.00  0.00    +0.000 A 
ATOM      2  C   UNL     1      46.724   6.188  12.066  0.00  0.00    +0.000 A 
ATOM      3  C   UNL     1      47.456   6.955  12.981  0.00  0.00    +0.000 A 
ATOM      4  C   UNL     1      46.972   8.193  13.425  0.00  0.00    +0.000 A 
ATOM      5  C   UNL     1      45.757   8.661  12.911  0.00  0.00    +0.000 A 
ATOM      6  C   UNL     1      45.024   7.894  11.997  0.00  0.00    +0.000 A 
ENDROOT
BRANCH   1   7
ATOM      7  C   UNL     1      44.714   5.827  10.559  0.00  0.00    +0.000 C 
BRANCH   7  14
ATOM      8  C   UNL     1      46.962   2.909   5.777  0.00  0.00    +0.000 C 
ATOM      9  C   UNL     1      46.303   3.000   7.121  0.00  0.00    +0.000 A 
ATOM     10  C   UNL     1      45.963   1.863   7.820  0.00  0.00    +0.000 A 
ATOM     11  C   UNL     1      45.405   2.074   9.057  0.00  0.00    +0.000 A 
ATOM     12  N   UNL     1      45.210   3.295   9.591  0.00  0.00    +0.000 NA
ATOM     13  C   UNL     1      45.579   4.350   8.851  0.00  0.00    +0.000 A 
ATOM     14  N   UNL     1      45.483   5.629   9.355  0.00  0.00    +0.000 N 
ATOM     15  N   UNL     1      46.092   4.242   7.615  0.00  0.00    +0.000 NA
ATOM     16  H   UNL     1      45.398   6.303   8.608  0.00  0.00    +0.000 HD
ENDBRANCH   7  14
ENDBRANCH   1   7
BRANCH   4  17
ATOM     17  C   UNL     1      47.747   9.012  14.426  0.00  0.00    +0.000 C 
BRANCH  17  18
ATOM     18  N   UNL     1      47.932   8.312  15.670  0.00  0.00    +0.000 N 
ATOM     19  C   UNL     1      49.171   8.243  16.265  0.00  0.00    +0.000 C 
ATOM     20  O   UNL     1      50.146   8.827  15.796  0.00  0.00    +0.000 OA
ATOM     21  H   UNL     1      47.209   7.649  15.942  0.00  0.00    +0.000 HD
BRANCH  19  22
ATOM     22  C   UNL     1      49.268   7.480  17.514  0.00  0.00    +0.000 A 
ATOM     23  C   UNL     1      49.691   8.113  18.675  0.00  0.00    +0.000 A 
ATOM     24  S   UNL     1      49.707   7.097  20.044  0.00  0.00    +0.000 S 
ATOM     25  C   UNL     1      49.198   5.760  19.125  0.00  0.00    +0.000 A 
ATOM     26  N   UNL     1      49.032   4.540  19.703  0.00  0.00    +0.000 NA
ATOM     27  C   UNL     1      48.673   3.608  18.883  0.00  0.00    +0.000 A 
ATOM     28  N   UNL     1      48.462   3.788  17.540  0.00  0.00    +0.000 N 
ATOM     29  C   UNL     1      48.586   5.009  16.921  0.00  0.00    +0.000 A 
ATOM     30  O   UNL     1      48.345   5.145  15.726  0.00  0.00    +0.000 OA
ATOM     31  C   UNL     1      48.999   6.088  17.796  0.00  0.00    +0.000 A 
ATOM     32  H   UNL     1      48.175   3.019  16.954  0.00  0.00    +0.000 HD
ENDBRANCH  19  22
ENDBRANCH  17  18
ENDBRANCH   4  17
TORSDOF 5
ENDMDL
MODEL 4
REMARK VINA RESULT:    -7.730      2.020      2.884
REMARK INTER + INTRA:         -10.536
REMARK INTER:                 -10.013
REMARK INTRA:                  -0.523
REMARK UNBOUND:                -0.547
REMARK  Name = 
REMARK  6 active torsions:
REMARK  status: ('A' for Active; 'I' for Inactive)
REMARK    1  A    between atoms: C_1  and  C_2
REMARK    2  A    between atoms: N_7  and  C_8
REMARK    3  A    between atoms: C_8  and  C_9
REMARK    4  A    between atoms: C_12  and  C_13
REMARK    5  A    between atoms: C_13  and  N_14
REMARK    6  A    between atoms: C_15  and  C_17
REMARK                            x       y       z     vdW  Elec       q    Type
REMARK                         _______ _______ _______ _____ _____    ______ ____
ROOT
ATOM      1  C   UNL     1      45.027   4.581  11.168  0.00  0.00    +0.000 A 
ATOM      2  C   UNL     1      45.757   5.727  11.511  0.00  0.00    +0.000 A 
ATOM      3  C   UNL     1      46.511   5.769  12.691  0.00  0.00    +0.000 A 
ATOM      4  C   UNL     1      46.570   4.657  13.542  0.00  0.00    +0.000 A 
ATOM      5  C   UNL     1      45.835   3.515  13.204  0.00  0.00    +0.000 A 
ATOM      6  C   UNL     1      45.082   3.472  12.025  0.00  0.00    +0.000 A 
ENDROOT
BRANCH   1   7
ATOM      7  C   UNL     1      44.202   4.537   9.896  0.00  0.00    +0.000 C 
BRANCH   7  14
ATOM      8  C   UNL     1      47.507   2.840   5.139  0.00  0.00    +0.000 C 
ATOM      9  C   UNL     1      46.786   2.619   6.435  0.00  0.00    +0.000 A 
ATOM     10  C   UNL     1      46.792   1.385   7.046  0.00  0.00    +0.000 A 
ATOM     11  C   UNL     1      46.133   1.316   8.248  0.00  0.00    +0.000 A 
ATOM     12  N   UNL     1      45.531   2.370   8.833  0.00  0.00    +0.000 NA
ATOM     13  C   UNL     1      45.580   3.539   8.178  0.00  0.00    +0.000 A 
ATOM     14  N   UNL     1      45.055   4.682   8.743  0.00  0.00    +0.000 N 
ATOM     15  N   UNL     1      46.163   3.690   6.978  0.00  0.00    +0.000 NA
ATOM     16  H   UNL     1      44.797   5.348   8.028  0.00  0.00    +0.000 HD
ENDBRANCH   7  14
ENDBRANCH   1   7
BRANCH   4  17
ATOM     17  C   UNL     1      47.398   4.692  14.801  0.00  0.00    +0.000 C 
BRANCH  17  18
ATOM     18  N   UNL     1      47.666   6.037  15.237  0.00  0.00    +0.000 N 
ATOM     19  C   UNL     1      48.711   6.309  16.089  0.00  0.00    +0.000 C 
ATOM     20  O   UNL     1      49.490   5.432  16.457  0.00  0.00    +0.000 OA
ATOM     21  H   UNL     1      46.917   6.717  15.131  0.00  0.00    +0.000 HD
BRANCH  19  22
ATOM     22  C   UNL     1      48.885   7.706  16.504  0.00  0.00    +0.000 A 
ATOM     23  C   UNL     1      49.588   8.582  15.687  0.00  0.00    +0.000 A 
ATOM     24  S   UNL     1      49.663  10.174  16.293  0.00  0.00    +0.000 S 
ATOM     25  C   UNL     1      48.801   9.739  17.693  0.00  0.00    +0.000 A 
ATOM     26  N   UNL     1      48.536  10.657  18.662  0.00  0.00    +0.000 NA
ATOM     27  C   UNL     1      47.903  10.184  19.683  0.00  0.00    +0.000 A 
ATOM     28  N   UNL     1      47.508   8.878  19.821  0.00  0.00    +0.000 N 
ATOM     29  C   UNL     1      47.725   7.925  18.855  0.00  0.00    +0.000 A 
ATOM     30  O   UNL     1      47.318   6.776  18.990  0.00  0.00    +0.000 OA
ATOM     31  C   UNL     1      48.445   8.403  17.690  0.00  0.00    +0.000 A 
ATOM     32  H   UNL     1      47.009   8.573  20.643  0.00  0.00    +0.000 HD
ENDBRANCH  19  22
ENDBRANCH  17  18
ENDBRANCH   4  17
TORSDOF 5
ENDMDL
MODEL 5
REMARK VINA RESULT:    -7.496      4.526      6.556
REMARK INTER + INTRA:         -10.234
REMARK INTER:                  -9.248
REMARK INTRA:                  -0.987
REMARK UNBOUND:                -0.547
REMARK  Name = 
REMARK  6 active torsions:
REMARK  status: ('A' for Active; 'I' for Inactive)
REMARK    1  A    between atoms: C_1  and  C_2
REMARK    2  A    between atoms: N_7  and  C_8
REMARK    3  A    between atoms: C_8  and  C_9
REMARK    4  A    between atoms: C_12  and  C_13
REMARK    5  A    between atoms: C_13  and  N_14
REMARK    6  A    between atoms: C_15  and  C_17
REMARK                            x       y       z     vdW  Elec       q    Type
REMARK                         _______ _______ _______ _____ _____    ______ ____
ROOT
ATOM      1  C   UNL     1      44.635   8.946  11.546  0.00  0.00    +0.000 A 
ATOM      2  C   UNL     1      43.976   7.772  11.154  0.00  0.00    +0.000 A 
ATOM      3  C   UNL     1      44.362   6.528  11.669  0.00  0.00    +0.000 A 
ATOM      4  C   UNL     1      45.400   6.432  12.605  0.00  0.00    +0.000 A 
ATOM      5  C   UNL     1      46.065   7.603  12.991  0.00  0.00    +0.000 A 
ATOM      6  C   UNL     1      45.680   8.846  12.477  0.00  0.00    +0.000 A 
ENDROOT
BRANCH   1   7
ATOM      7  C   UNL     1      44.226  10.292  10.982  0.00  0.00    +0.000 C 
BRANCH   7  14
ATOM      8  C   UNL     1      39.130  12.216  13.584  0.00  0.00    +0.000 C 
ATOM      9  C   UNL     1      39.943  11.628  12.469  0.00  0.00    +0.000 A 
ATOM     10  C   UNL     1      39.358  11.293  11.268  0.00  0.00    +0.000 A 
ATOM     11  C   UNL     1      40.212  10.803  10.311  0.00  0.00    +0.000 A 
ATOM     12  N   UNL     1      41.540  10.669  10.491  0.00  0.00    +0.000 NA
ATOM     13  C   UNL     1      42.032  11.029  11.685  0.00  0.00    +0.000 A 
ATOM     14  N   UNL     1      43.390  10.995  11.924  0.00  0.00    +0.000 N 
ATOM     15  N   UNL     1      41.269  11.477  12.694  0.00  0.00    +0.000 NA
ATOM     16  H   UNL     1      43.577  10.891  12.911  0.00  0.00    +0.000 HD
ENDBRANCH   7  14
ENDBRANCH   1   7
BRANCH   4  17
ATOM     17  C   UNL     1      45.804   5.097  13.177  0.00  0.00    +0.000 C 
BRANCH  17  18
ATOM     18  N   UNL     1      46.485   5.233  14.438  0.00  0.00    +0.000 N 
ATOM     19  C   UNL     1      47.204   4.187  14.969  0.00  0.00    +0.000 C 
ATOM     20  O   UNL     1      47.347   3.127  14.362  0.00  0.00    +0.000 OA
ATOM     21  H   UNL     1      46.194   5.998  15.043  0.00  0.00    +0.000 HD
BRANCH  19  22
ATOM     22  C   UNL     1      47.835   4.409  16.275  0.00  0.00    +0.000 A 
ATOM     23  C   UNL     1      47.502   3.590  17.346  0.00  0.00    +0.000 A 
ATOM     24  S   UNL     1      48.354   3.953  18.778  0.00  0.00    +0.000 S 
ATOM     25  C   UNL     1      49.163   5.250  18.032  0.00  0.00    +0.000 A 
ATOM     26  N   UNL     1      50.046   6.016  18.729  0.00  0.00    +0.000 NA
ATOM     27  C   UNL     1      50.562   6.984  18.048  0.00  0.00    +0.000 A 
ATOM     28  N   UNL     1      50.280   7.253  16.734  0.00  0.00    +0.000 N 
ATOM     29  C   UNL     1      49.420   6.488  15.982  0.00  0.00    +0.000 A 
ATOM     30  O   UNL     1      49.225   6.729  14.795  0.00  0.00    +0.000 OA
ATOM     31  C   UNL     1      48.803   5.392  16.704  0.00  0.00    +0.000 A 
ATOM     32  H   UNL     1      50.724   8.023  16.257  0.00  0.00    +0.000 HD
ENDBRANCH  19  22
ENDBRANCH  17  18
ENDBRANCH   4  17
TORSDOF 5
ENDMDL
MODEL 6
REMARK VINA RESULT:    -7.486      2.089      3.130
REMARK INTER + INTRA:         -10.221
REMARK INTER:                  -9.360
REMARK INTRA:                  -0.860
REMARK UNBOUND:                -0.547
REMARK  Name = 
REMARK  6 active torsions:
REMARK  status: ('A' for Active; 'I' for Inactive)
REMARK    1  A    between atoms: C_1  and  C_2
REMARK    2  A    between atoms: N_7  and  C_8
REMARK    3  A    between atoms: C_8  and  C_9
REMARK    4  A    between atoms: C_12  and  C_13
REMARK    5  A    between atoms: C_13  and  N_14
REMARK    6  A    between atoms: C_15  and  C_17
REMARK                            x       y       z     vdW  Elec       q    Type
REMARK                         _______ _______ _______ _____ _____    ______ ____
ROOT
ATOM      1  C   UNL     1      45.681   6.808  11.918  0.00  0.00    +0.000 A 
ATOM      2  C   UNL     1      46.858   6.223  12.406  0.00  0.00    +0.000 A 
ATOM      3  C   UNL     1      47.685   6.916  13.300  0.00  0.00    +0.000 A 
ATOM      4  C   UNL     1      47.341   8.200  13.743  0.00  0.00    +0.000 A 
ATOM      5  C   UNL     1      46.170   8.789  13.250  0.00  0.00    +0.000 A 
ATOM      6  C   UNL     1      45.343   8.097  12.358  0.00  0.00    +0.000 A 
ENDROOT
BRANCH   1   7
ATOM      7  C   UNL     1      44.790   6.064  10.943  0.00  0.00    +0.000 C 
BRANCH   7  14
ATOM      8  C   UNL     1      46.627   2.980   6.090  0.00  0.00    +0.000 C 
ATOM      9  C   UNL     1      46.022   3.122   7.455  0.00  0.00    +0.000 A 
ATOM     10  C   UNL     1      45.611   2.017   8.165  0.00  0.00    +0.000 A 
ATOM     11  C   UNL     1      45.113   2.270   9.419  0.00  0.00    +0.000 A 
ATOM     12  N   UNL     1      45.039   3.502   9.960  0.00  0.00    +0.000 NA
ATOM     13  C   UNL     1      45.471   4.524   9.207  0.00  0.00    +0.000 A 
ATOM     14  N   UNL     1      45.501   5.805   9.715  0.00  0.00    +0.000 N 
ATOM     15  N   UNL     1      45.933   4.376   7.955  0.00  0.00    +0.000 NA
ATOM     16  H   UNL     1      45.449   6.486   8.971  0.00  0.00    +0.000 HD
ENDBRANCH   7  14
ENDBRANCH   1   7
BRANCH   4  17
ATOM     17  C   UNL     1      48.218   8.940  14.722  0.00  0.00    +0.000 C 
BRANCH  17  18
ATOM     18  N   UNL     1      47.952   8.557  16.083  0.00  0.00    +0.000 N 
ATOM     19  C   UNL     1      48.801   7.710  16.758  0.00  0.00    +0.000 C 
ATOM     20  O   UNL     1      49.845   7.304  16.251  0.00  0.00    +0.000 OA
ATOM     21  H   UNL     1      47.004   8.693  16.428  0.00  0.00    +0.000 HD
BRANCH  19  22
ATOM     22  C   UNL     1      48.430   7.350  18.131  0.00  0.00    +0.000 A 
ATOM     23  C   UNL     1      48.541   6.030  18.548  0.00  0.00    +0.000 A 
ATOM     24  S   UNL     1      48.110   5.787  20.180  0.00  0.00    +0.000 S 
ATOM     25  C   UNL     1      47.711   7.429  20.375  0.00  0.00    +0.000 A 
ATOM     26  N   UNL     1      47.241   7.896  21.562  0.00  0.00    +0.000 NA
ATOM     27  C   UNL     1      46.947   9.154  21.560  0.00  0.00    +0.000 A 
ATOM     28  N   UNL     1      47.087   9.987  20.480  0.00  0.00    +0.000 N 
ATOM     29  C   UNL     1      47.588   9.566  19.271  0.00  0.00    +0.000 A 
ATOM     30  O   UNL     1      47.742  10.347  18.338  0.00  0.00    +0.000 OA
ATOM     31  C   UNL     1      47.922   8.156  19.217  0.00  0.00    +0.000 A 
ATOM     32  H   UNL     1      46.846  10.964  20.546  0.00  0.00    +0.000 HD
ENDBRANCH  19  22
ENDBRANCH  17  18
ENDBRANCH   4  17
TORSDOF 5
ENDMDL
MODEL 7
REMARK VINA RESULT:    -7.467      1.760      2.474
REMARK INTER + INTRA:         -10.196
REMARK INTER:                  -9.282
REMARK INTRA:                  -0.913
REMARK UNBOUND:                -0.547
REMARK  Name = 
REMARK  6 active torsions:
REMARK  status: ('A' for Active; 'I' for Inactive)
REMARK    1  A    between atoms: C_1  and  C_2
REMARK    2  A    between atoms: N_7  and  C_8
REMARK    3  A    between atoms: C_8  and  C_9
REMARK    4  A    between atoms: C_12  and  C_13
REMARK    5  A    between atoms: C_13  and  N_14
REMARK    6  A    between atoms: C_15  and  C_17
REMARK                            x       y       z     vdW  Elec       q    Type
REMARK                         _______ _______ _______ _____ _____    ______ ____
ROOT
ATOM      1  C   UNL     1      45.763   5.771  12.144  0.00  0.00    +0.000 A 
ATOM      2  C   UNL     1      46.621   6.871  12.280  0.00  0.00    +0.000 A 
ATOM      3  C   UNL     1      47.527   6.945  13.347  0.00  0.00    +0.000 A 
ATOM      4  C   UNL     1      47.610   5.910  14.287  0.00  0.00    +0.000 A 
ATOM      5  C   UNL     1      46.748   4.814  14.157  0.00  0.00    +0.000 A 
ATOM      6  C   UNL     1      45.844   4.739  13.090  0.00  0.00    +0.000 A 
ENDROOT
BRANCH   1   7
ATOM      7  C   UNL     1      44.776   5.694  10.996  0.00  0.00    +0.000 C 
BRANCH   7  14
ATOM      8  C   UNL     1      46.686   3.202   5.841  0.00  0.00    +0.000 C 
ATOM      9  C   UNL     1      46.099   3.177   7.220  0.00  0.00    +0.000 A 
ATOM     10  C   UNL     1      45.759   1.987   7.823  0.00  0.00    +0.000 A 
ATOM     11  C   UNL     1      45.270   2.090   9.102  0.00  0.00    +0.000 A 
ATOM     12  N   UNL     1      45.142   3.257   9.762  0.00  0.00    +0.000 NA
ATOM     13  C   UNL     1      45.506   4.369   9.109  0.00  0.00    +0.000 A 
ATOM     14  N   UNL     1      45.478   5.595   9.740  0.00  0.00    +0.000 N 
ATOM     15  N   UNL     1      45.953   4.370   7.843  0.00  0.00    +0.000 NA
ATOM     16  H   UNL     1      45.377   6.341   9.067  0.00  0.00    +0.000 HD
ENDBRANCH   7  14
ENDBRANCH   1   7
BRANCH   4  17
ATOM     17  C   UNL     1      48.598   5.976  15.424  0.00  0.00    +0.000 C 
BRANCH  17  18
ATOM     18  N   UNL     1      48.115   6.782  16.515  0.00  0.00    +0.000 N 
ATOM     19  C   UNL     1      48.834   7.865  16.966  0.00  0.00    +0.000 C 
ATOM     20  O   UNL     1      49.875   8.222  16.418  0.00  0.00    +0.000 OA
ATOM     21  H   UNL     1      47.397   6.375  17.110  0.00  0.00    +0.000 HD
BRANCH  19  22
ATOM     22  C   UNL     1      48.278   8.605  18.104  0.00  0.00    +0.000 A 
ATOM     23  C   UNL     1      47.983   9.955  17.966  0.00  0.00    +0.000 A 
ATOM     24  S   UNL     1      47.306  10.656  19.365  0.00  0.00    +0.000 S 
ATOM     25  C   UNL     1      47.428   9.192  20.223  0.00  0.00    +0.000 A 
ATOM     26  N   UNL     1      47.031   9.109  21.522  0.00  0.00    +0.000 NA
ATOM     27  C   UNL     1      47.210   7.948  22.059  0.00  0.00    +0.000 A 
ATOM     28  N   UNL     1      47.745   6.863  21.414  0.00  0.00    +0.000 N 
ATOM     29  C   UNL     1      48.129   6.892  20.095  0.00  0.00    +0.000 A 
ATOM     30  O   UNL     1      48.562   5.890  19.535  0.00  0.00    +0.000 OA
ATOM     31  C   UNL     1      47.961   8.178  19.447  0.00  0.00    +0.000 A 
ATOM     32  H   UNL     1      47.852   5.980  21.890  0.00  0.00    +0.000 HD
ENDBRANCH  19  22
ENDBRANCH  17  18
ENDBRANCH   4  17
TORSDOF 5
ENDMDL
MODEL 8
REMARK VINA RESULT:    -7.196      3.889      5.778
REMARK INTER + INTRA:          -9.846
REMARK INTER:                  -9.018
REMARK INTRA:                  -0.827
REMARK UNBOUND:                -0.547
REMARK  Name = 
REMARK  6 active torsions:
REMARK  status: ('A' for Active; 'I' for Inactive)
REMARK    1  A    between atoms: C_1  and  C_2
REMARK    2  A    between atoms: N_7  and  C_8
REMARK    3  A    between atoms: C_8  and  C_9
REMARK    4  A    between atoms: C_12  and  C_13
REMARK    5  A    between atoms: C_13  and  N_14
REMARK    6  A    between atoms: C_15  and  C_17
REMARK                            x       y       z     vdW  Elec       q    Type
REMARK                         _______ _______ _______ _____ _____    ______ ____
ROOT
ATOM      1  C   UNL     1      45.497   7.132  12.018  0.00  0.00    +0.000 A 
ATOM      2  C   UNL     1      44.614   6.052  12.163  0.00  0.00    +0.000 A 
ATOM      3  C   UNL     1      44.989   4.914  12.889  0.00  0.00    +0.000 A 
ATOM      4  C   UNL     1      46.245   4.840  13.504  0.00  0.00    +0.000 A 
ATOM      5  C   UNL     1      47.131   5.914  13.354  0.00  0.00    +0.000 A 
ATOM      6  C   UNL     1      46.757   7.052  12.630  0.00  0.00    +0.000 A 
ENDROOT
BRANCH   1   7
ATOM      7  C   UNL     1      45.097   8.361  11.225  0.00  0.00    +0.000 C 
BRANCH   7  14
ATOM      8  C   UNL     1      39.722  10.954  10.324  0.00  0.00    +0.000 C 
ATOM      9  C   UNL     1      41.203  10.954  10.557  0.00  0.00    +0.000 A 
ATOM     10  C   UNL     1      41.898  12.135  10.683  0.00  0.00    +0.000 A 
ATOM     11  C   UNL     1      43.242  12.007  10.936  0.00  0.00    +0.000 A 
ATOM     12  N   UNL     1      43.866  10.822  11.081  0.00  0.00    +0.000 NA
ATOM     13  C   UNL     1      43.115   9.719  10.955  0.00  0.00    +0.000 A 
ATOM     14  N   UNL     1      43.661   8.470  11.164  0.00  0.00    +0.000 N 
ATOM     15  N   UNL     1      41.804   9.746  10.665  0.00  0.00    +0.000 NA
ATOM     16  H   UNL     1      43.140   7.764  10.664  0.00  0.00    +0.000 HD
ENDBRANCH   7  14
ENDBRANCH   1   7
BRANCH   4  17
ATOM     17  C   UNL     1      46.643   3.625  14.304  0.00  0.00    +0.000 C 
BRANCH  17  18
ATOM     18  N   UNL     1      47.750   3.894  15.183  0.00  0.00    +0.000 N 
ATOM     19  C   UNL     1      47.598   3.839  16.549  0.00  0.00    +0.000 C 
ATOM     20  O   UNL     1      46.538   3.497  17.068  0.00  0.00    +0.000 OA
ATOM     21  H   UNL     1      48.547   4.389  14.787  0.00  0.00    +0.000 HD
BRANCH  19  22
ATOM     22  C   UNL     1      48.776   4.162  17.363  0.00  0.00    +0.000 A 
ATOM     23  C   UNL     1      48.790   5.329  18.116  0.00  0.00    +0.000 A 
ATOM     24  S   UNL     1      50.211   5.534  19.036  0.00  0.00    +0.000 S 
ATOM     25  C   UNL     1      50.881   4.096  18.422  0.00  0.00    +0.000 A 
ATOM     26  N   UNL     1      52.123   3.690  18.798  0.00  0.00    +0.000 NA
ATOM     27  C   UNL     1      52.520   2.599  18.231  0.00  0.00    +0.000 A 
ATOM     28  N   UNL     1      51.784   1.877  17.327  0.00  0.00    +0.000 N 
ATOM     29  C   UNL     1      50.513   2.232  16.943  0.00  0.00    +0.000 A 
ATOM     30  O   UNL     1      49.864   1.539  16.167  0.00  0.00    +0.000 OA
ATOM     31  C   UNL     1      50.024   3.459  17.543  0.00  0.00    +0.000 A 
ATOM     32  H   UNL     1      52.149   1.027  16.925  0.00  0.00    +0.000 HD
ENDBRANCH  19  22
ENDBRANCH  17  18
ENDBRANCH   4  17
TORSDOF 5
ENDMDL
MODEL 9
REMARK VINA RESULT:    -6.994      4.071      9.326
REMARK INTER + INTRA:          -9.584
REMARK INTER:                  -8.802
REMARK INTRA:                  -0.782
REMARK UNBOUND:                -0.547
REMARK  Name = 
REMARK  6 active torsions:
REMARK  status: ('A' for Active; 'I' for Inactive)
REMARK    1  A    between atoms: C_1  and  C_2
REMARK    2  A    between atoms: N_7  and  C_8
REMARK    3  A    between atoms: C_8  and  C_9
REMARK    4  A    between atoms: C_12  and  C_13
REMARK    5  A    between atoms: C_13  and  N_14
REMARK    6  A    between atoms: C_15  and  C_17
REMARK                            x       y       z     vdW  Elec       q    Type
REMARK                         _______ _______ _______ _____ _____    ______ ____
ROOT
ATOM      1  C   UNL     1      51.491   3.853  17.771  0.00  0.00    +0.000 A 
ATOM      2  C   UNL     1      50.617   4.948  17.809  0.00  0.00    +0.000 A 
ATOM      3  C   UNL     1      49.261   4.794  17.492  0.00  0.00    +0.000 A 
ATOM      4  C   UNL     1      48.745   3.536  17.152  0.00  0.00    +0.000 A 
ATOM      5  C   UNL     1      49.618   2.443  17.105  0.00  0.00    +0.000 A 
ATOM      6  C   UNL     1      50.972   2.596  17.423  0.00  0.00    +0.000 A 
ENDROOT
BRANCH   1   7
ATOM      7  C   UNL     1      52.960   4.019  18.104  0.00  0.00    +0.000 C 
BRANCH   7  14
ATOM      8  C   UNL     1      54.741   9.633  16.781  0.00  0.00    +0.000 C 
ATOM      9  C   UNL     1      54.624   8.158  16.541  0.00  0.00    +0.000 A 
ATOM     10  C   UNL     1      55.223   7.570  15.449  0.00  0.00    +0.000 A 
ATOM     11  C   UNL     1      55.081   6.207  15.359  0.00  0.00    +0.000 A 
ATOM     12  N   UNL     1      54.429   5.461  16.271  0.00  0.00    +0.000 NA
ATOM     13  C   UNL     1      53.885   6.109  17.311  0.00  0.00    +0.000 A 
ATOM     14  N   UNL     1      53.267   5.411  18.327  0.00  0.00    +0.000 N 
ATOM     15  N   UNL     1      53.935   7.442  17.459  0.00  0.00    +0.000 NA
ATOM     16  H   UNL     1      52.584   5.990  18.795  0.00  0.00    +0.000 HD
ENDBRANCH   7  14
ENDBRANCH   1   7
BRANCH   4  17
ATOM     17  C   UNL     1      47.281   3.363  16.831  0.00  0.00    +0.000 C 
BRANCH  17  18
ATOM     18  N   UNL     1      46.808   4.359  15.906  0.00  0.00    +0.000 N 
ATOM     19  C   UNL     1      46.892   4.158  14.547  0.00  0.00    +0.000 C 
ATOM     20  O   UNL     1      47.309   3.102  14.075  0.00  0.00    +0.000 OA
ATOM     21  H   UNL     1      46.679   5.302  16.265  0.00  0.00    +0.000 HD
BRANCH  19  22
ATOM     22  C   UNL     1      46.415   5.244  13.684  0.00  0.00    +0.000 A 
ATOM     23  C   UNL     1      47.200   6.376  13.507  0.00  0.00    +0.000 A 
ATOM     24  S   UNL     1      46.521   7.522  12.443  0.00  0.00    +0.000 S 
ATOM     25  C   UNL     1      45.130   6.570  12.218  0.00  0.00    +0.000 A 
ATOM     26  N   UNL     1      44.116   6.995  11.417  0.00  0.00    +0.000 NA
ATOM     27  C   UNL     1      43.108   6.189  11.362  0.00  0.00    +0.000 A 
ATOM     28  N   UNL     1      43.026   4.995  12.031  0.00  0.00    +0.000 N 
ATOM     29  C   UNL     1      44.039   4.511  12.824  0.00  0.00    +0.000 A 
ATOM     30  O   UNL     1      43.952   3.417  13.372  0.00  0.00    +0.000 OA
ATOM     31  C   UNL     1      45.191   5.385  12.929  0.00  0.00    +0.000 A 
ATOM     32  H   UNL     1      42.212   4.406  11.939  0.00  0.00    +0.000 HD
ENDBRANCH  19  22
ENDBRANCH  17  18
ENDBRANCH   4  17
TORSDOF 5
ENDMDL
