MODEL 1
REMARK VINA RESULT:    -8.739      0.000      0.000
REMARK INTER + INTRA:         -12.581
REMARK INTER:                 -11.804
REMARK INTRA:                  -0.777
REMARK UNBOUND:                -0.777
REMARK  Name = 
REMARK  6 active torsions:
REMARK  status: ('A' for Active; 'I' for Inactive)
REMARK    1  A    between atoms: C_2  and  C_4
REMARK    2  A    between atoms: N_8  and  C_9
REMARK    3  A    between atoms: C_9  and  C_10
REMARK    4  A    between atoms: C_10  and  C_11
REMARK    5  A    between atoms: C_15  and  O_16
REMARK    6  A    between atoms: O_16  and  C_17
REMARK                            x       y       z     vdW  Elec       q    Type
REMARK                         _______ _______ _______ _____ _____    ______ ____
ROOT
ATOM      1  C   UNL     1      43.276   4.351  11.202  0.00  0.00    +0.000 C 
ENDROOT
BRANCH   1   6
ATOM      2  C   UNL     1      46.481   2.519   7.744  0.00  0.00    +0.000 A 
ATOM      3  C   UNL     1      45.610   1.858   8.599  0.00  0.00    +0.000 A 
ATOM      4  C   UNL     1      44.695   2.602   9.340  0.00  0.00    +0.000 A 
ATOM      5  C   UNL     1      44.682   3.992   9.244  0.00  0.00    +0.000 A 
ATOM      6  N   UNL     1      43.738   4.781   9.890  0.00  0.00    +0.000 N 
ATOM      7  N   UNL     1      45.556   4.646   8.454  0.00  0.00    +0.000 NA
ATOM      8  C   UNL     1      46.436   3.904   7.726  0.00  0.00    +0.000 A 
ATOM      9  H   UNL     1      44.045   5.749   9.808  0.00  0.00    +0.000 HD
BRANCH   2  11
ATOM     10  N   UNL     1      48.484   2.515   6.378  0.00  0.00    +0.000 N 
ATOM     11  C   UNL     1      47.423   1.799   6.863  0.00  0.00    +0.000 C 
ATOM     12  O   UNL     1      47.288   0.611   6.609  0.00  0.00    +0.000 OA
ATOM     13  H   UNL     1      49.190   1.993   5.873  0.00  0.00    +0.000 HD
ATOM     14  H   UNL     1      48.760   3.410   6.763  0.00  0.00    +0.000 HD
ENDBRANCH   2  11
ENDBRANCH   1   6
BRANCH   1  15
ATOM     15  C   UNL     1      43.464   5.441  12.262  0.00  0.00    +0.000 C 
BRANCH  15  16
ATOM     16  C   UNL     1      44.921   5.517  12.665  0.00  0.00    +0.000 A 
ATOM     17  C   UNL     1      45.683   6.658  12.382  0.00  0.00    +0.000 A 
ATOM     18  C   UNL     1      46.997   6.761  12.844  0.00  0.00    +0.000 A 
ATOM     19  C   UNL     1      47.567   5.726  13.590  0.00  0.00    +0.000 A 
ATOM     20  C   UNL     1      46.821   4.584  13.867  0.00  0.00    +0.000 A 
ATOM     21  C   UNL     1      45.503   4.484  13.412  0.00  0.00    +0.000 A 
BRANCH  20  22
ATOM     22  O   UNL     1      47.264   3.524  14.618  0.00  0.00    +0.000 OA
BRANCH  22  23
ATOM     23  C   UNL     1      47.874   3.787  15.903  0.00  0.00    +0.000 C 
ATOM     24  C   UNL     1      48.153   2.584  16.827  0.00  0.00    +0.000 C 
ATOM     25  N   UNL     1      47.451   3.254  17.934  0.00  0.00    +0.000 NA
ATOM     26  C   UNL     1      46.895   4.247  17.002  0.00  0.00    +0.000 C 
ATOM     27  H   UNL     1      48.068   3.649  18.642  0.00  0.00    +0.000 HD
ENDBRANCH  22  23
ENDBRANCH  20  22
ENDBRANCH  15  16
ENDBRANCH   1  15
TORSDOF 6
ENDMDL
MODEL 2
REMARK VINA RESULT:    -7.991      2.332      3.159
REMARK INTER + INTRA:         -11.570
REMARK INTER:                 -10.718
REMARK INTRA:                  -0.852
REMARK UNBOUND:                -0.777
REMARK  Name = 
REMARK  6 active torsions:
REMARK  status: ('A' for Active; 'I' for Inactive)
REMARK    1  A    between atoms: C_2  and  C_4
REMARK    2  A    between atoms: N_8  and  C_9
REMARK    3  A    between atoms: C_9  and  C_10
REMARK    4  A    between atoms: C_10  and  C_11
REMARK    5  A    between atoms: C_15  and  O_16
REMARK    6  A    between atoms: O_16  and  C_17
REMARK                            x       y       z     vdW  Elec       q    Type
REMARK                         _______ _______ _______ _____ _____    ______ ____
ROOT
ATOM      1  C   UNL     1      43.246   4.673  10.969  0.00  0.00    +0.000 C 
ENDROOT
BRANCH   1   6
ATOM      2  C   UNL     1      46.399   2.345   7.770  0.00  0.00    +0.000 A 
ATOM      3  C   UNL     1      45.513   1.817   8.699  0.00  0.00    +0.000 A 
ATOM      4  C   UNL     1      44.618   2.670   9.341  0.00  0.00    +0.000 A 
ATOM      5  C   UNL     1      44.641   4.038   9.072  0.00  0.00    +0.000 A 
ATOM      6  N   UNL     1      43.718   4.925   9.613  0.00  0.00    +0.000 N 
ATOM      7  N   UNL     1      45.529   4.566   8.209  0.00  0.00    +0.000 NA
ATOM      8  C   UNL     1      46.390   3.717   7.580  0.00  0.00    +0.000 A 
ATOM      9  H   UNL     1      44.049   5.867   9.413  0.00  0.00    +0.000 HD
BRANCH   2  11
ATOM     10  N   UNL     1      48.466   2.091   6.529  0.00  0.00    +0.000 N 
ATOM     11  C   UNL     1      47.321   1.497   6.987  0.00  0.00    +0.000 C 
ATOM     12  O   UNL     1      47.097   0.311   6.790  0.00  0.00    +0.000 OA
ATOM     13  H   UNL     1      49.150   1.483   6.096  0.00  0.00    +0.000 HD
ATOM     14  H   UNL     1      48.798   2.981   6.881  0.00  0.00    +0.000 HD
ENDBRANCH   2  11
ENDBRANCH   1   6
BRANCH   1  15
ATOM     15  C   UNL     1      43.559   5.840  11.910  0.00  0.00    +0.000 C 
BRANCH  15  16
ATOM     16  C   UNL     1      44.878   5.593  12.611  0.00  0.00    +0.000 A 
ATOM     17  C   UNL     1      45.273   4.293  12.953  0.00  0.00    +0.000 A 
ATOM     18  C   UNL     1      46.533   4.063  13.509  0.00  0.00    +0.000 A 
ATOM     19  C   UNL     1      47.411   5.125  13.733  0.00  0.00    +0.000 A 
ATOM     20  C   UNL     1      47.023   6.422  13.407  0.00  0.00    +0.000 A 
ATOM     21  C   UNL     1      45.765   6.652  12.842  0.00  0.00    +0.000 A 
BRANCH  20  22
ATOM     22  O   UNL     1      47.815   7.534  13.549  0.00  0.00    +0.000 OA
BRANCH  22  23
ATOM     23  C   UNL     1      49.240   7.407  13.340  0.00  0.00    +0.000 C 
ATOM     24  C   UNL     1      50.130   8.619  13.683  0.00  0.00    +0.000 C 
ATOM     25  N   UNL     1      50.749   8.560  12.350  0.00  0.00    +0.000 NA
ATOM     26  C   UNL     1      49.704   7.635  11.886  0.00  0.00    +0.000 C 
ATOM     27  H   UNL     1      51.689   8.164  12.343  0.00  0.00    +0.000 HD
ENDBRANCH  22  23
ENDBRANCH  20  22
ENDBRANCH  15  16
ENDBRANCH   1  15
TORSDOF 6
ENDMDL
MODEL 3
REMARK VINA RESULT:    -7.375      2.538      3.997
REMARK INTER + INTRA:         -10.739
REMARK INTER:                 -10.097
REMARK INTRA:                  -0.642
REMARK UNBOUND:                -0.777
REMARK  Name = 
REMARK  6 active torsions:
REMARK  status: ('A' for Active; 'I' for Inactive)
REMARK    1  A    between atoms: C_2  and  C_4
REMARK    2  A    between atoms: N_8  and  C_9
REMARK    3  A    between atoms: C_9  and  C_10
REMARK    4  A    between atoms: C_10  and  C_11
REMARK    5  A    between atoms: C_15  and  O_16
REMARK    6  A    between atoms: O_16  and  C_17
REMARK                            x       y       z     vdW  Elec       q    Type
REMARK                         _______ _______ _______ _____ _____    ______ ____
ROOT
ATOM      1  C   UNL     1      43.160   4.582  11.038  0.00  0.00    +0.000 C 
ENDROOT
BRANCH   1   6
ATOM      2  C   UNL     1      46.394   2.765   7.598  0.00  0.00    +0.000 A 
ATOM      3  C   UNL     1      46.118   4.075   7.966  0.00  0.00    +0.000 A 
ATOM      4  C   UNL     1      45.308   4.310   9.074  0.00  0.00    +0.000 A 
ATOM      5  C   UNL     1      44.759   3.240   9.779  0.00  0.00    +0.000 A 
ATOM      6  N   UNL     1      44.017   3.407  10.942  0.00  0.00    +0.000 N 
ATOM      7  N   UNL     1      44.981   1.966   9.400  0.00  0.00    +0.000 NA
ATOM      8  C   UNL     1      45.786   1.752   8.322  0.00  0.00    +0.000 A 
ATOM      9  H   UNL     1      43.588   2.510  11.159  0.00  0.00    +0.000 HD
BRANCH   2  11
ATOM     10  N   UNL     1      47.276   3.254   5.393  0.00  0.00    +0.000 N 
ATOM     11  C   UNL     1      47.310   2.432   6.488  0.00  0.00    +0.000 C 
ATOM     12  O   UNL     1      48.092   1.494   6.555  0.00  0.00    +0.000 OA
ATOM     13  H   UNL     1      47.984   3.096   4.686  0.00  0.00    +0.000 HD
ATOM     14  H   UNL     1      46.835   4.165   5.408  0.00  0.00    +0.000 HD
ENDBRANCH   2  11
ENDBRANCH   1   6
BRANCH   1  15
ATOM     15  C   UNL     1      43.209   5.215  12.431  0.00  0.00    +0.000 C 
BRANCH  15  16
ATOM     16  C   UNL     1      44.642   5.540  12.796  0.00  0.00    +0.000 A 
ATOM     17  C   UNL     1      45.413   4.636  13.538  0.00  0.00    +0.000 A 
ATOM     18  C   UNL     1      46.762   4.898  13.787  0.00  0.00    +0.000 A 
ATOM     19  C   UNL     1      47.356   6.064  13.299  0.00  0.00    +0.000 A 
ATOM     20  C   UNL     1      46.595   6.974  12.570  0.00  0.00    +0.000 A 
ATOM     21  C   UNL     1      45.247   6.708  12.314  0.00  0.00    +0.000 A 
BRANCH  20  22
ATOM     22  O   UNL     1      47.080   8.131  12.014  0.00  0.00    +0.000 OA
BRANCH  22  23
ATOM     23  C   UNL     1      46.838   9.385  12.692  0.00  0.00    +0.000 C 
ATOM     24  C   UNL     1      46.464  10.610  11.832  0.00  0.00    +0.000 C 
ATOM     25  N   UNL     1      47.527  11.401  12.472  0.00  0.00    +0.000 NA
ATOM     26  C   UNL     1      48.109  10.182  13.054  0.00  0.00    +0.000 C 
ATOM     27  H   UNL     1      47.191  12.072  13.162  0.00  0.00    +0.000 HD
ENDBRANCH  22  23
ENDBRANCH  20  22
ENDBRANCH  15  16
ENDBRANCH   1  15
TORSDOF 6
ENDMDL
MODEL 4
REMARK VINA RESULT:    -7.280      2.137      8.062
REMARK INTER + INTRA:         -10.610
REMARK INTER:                 -10.000
REMARK INTRA:                  -0.610
REMARK UNBOUND:                -0.777
REMARK  Name = 
REMARK  6 active torsions:
REMARK  status: ('A' for Active; 'I' for Inactive)
REMARK    1  A    between atoms: C_2  and  C_4
REMARK    2  A    between atoms: N_8  and  C_9
REMARK    3  A    between atoms: C_9  and  C_10
REMARK    4  A    between atoms: C_10  and  C_11
REMARK    5  A    between atoms: C_15  and  O_16
REMARK    6  A    between atoms: O_16  and  C_17
REMARK                            x       y       z     vdW  Elec       q    Type
REMARK                         _______ _______ _______ _____ _____    ______ ____
ROOT
ATOM      1  C   UNL     1      45.861   6.168  12.526  0.00  0.00    +0.000 C 
ENDROOT
BRANCH   1   6
ATOM      2  C   UNL     1      48.317   4.555  16.644  0.00  0.00    +0.000 A 
ATOM      3  C   UNL     1      47.323   3.941  15.895  0.00  0.00    +0.000 A 
ATOM      4  C   UNL     1      46.929   4.520  14.690  0.00  0.00    +0.000 A 
ATOM      5  C   UNL     1      47.507   5.715  14.267  0.00  0.00    +0.000 A 
ATOM      6  N   UNL     1      47.220   6.293  13.036  0.00  0.00    +0.000 N 
ATOM      7  N   UNL     1      48.437   6.344  15.010  0.00  0.00    +0.000 NA
ATOM      8  C   UNL     1      48.821   5.759  16.180  0.00  0.00    +0.000 A 
ATOM      9  H   UNL     1      47.622   7.229  13.039  0.00  0.00    +0.000 HD
BRANCH   2  11
ATOM     10  N   UNL     1      47.959   3.777  18.912  0.00  0.00    +0.000 N 
ATOM     11  C   UNL     1      48.849   3.963  17.888  0.00  0.00    +0.000 C 
ATOM     12  O   UNL     1      50.017   3.615  17.990  0.00  0.00    +0.000 OA
ATOM     13  H   UNL     1      48.296   3.265  19.718  0.00  0.00    +0.000 HD
ATOM     14  H   UNL     1      46.956   3.816  18.777  0.00  0.00    +0.000 HD
ENDBRANCH   2  11
ENDBRANCH   1   6
BRANCH   1  15
ATOM     15  C   UNL     1      45.809   6.275  10.999  0.00  0.00    +0.000 C 
BRANCH  15  16
ATOM     16  C   UNL     1      45.390   4.947  10.407  0.00  0.00    +0.000 A 
ATOM     17  C   UNL     1      44.601   4.054  11.142  0.00  0.00    +0.000 A 
ATOM     18  C   UNL     1      44.136   2.875  10.555  0.00  0.00    +0.000 A 
ATOM     19  C   UNL     1      44.456   2.573   9.230  0.00  0.00    +0.000 A 
ATOM     20  C   UNL     1      45.249   3.449   8.494  0.00  0.00    +0.000 A 
ATOM     21  C   UNL     1      45.707   4.633   9.079  0.00  0.00    +0.000 A 
BRANCH  20  22
ATOM     22  O   UNL     1      45.596   3.273   7.177  0.00  0.00    +0.000 OA
BRANCH  22  23
ATOM     23  C   UNL     1      46.997   3.185   6.831  0.00  0.00    +0.000 C 
ATOM     24  C   UNL     1      47.359   2.903   5.359  0.00  0.00    +0.000 C 
ATOM     25  N   UNL     1      48.226   1.787   5.772  0.00  0.00    +0.000 NA
ATOM     26  C   UNL     1      47.653   1.820   7.126  0.00  0.00    +0.000 C 
ATOM     27  H   UNL     1      49.223   1.997   5.737  0.00  0.00    +0.000 HD
ENDBRANCH  22  23
ENDBRANCH  20  22
ENDBRANCH  15  16
ENDBRANCH   1  15
TORSDOF 6
ENDMDL
MODEL 5
REMARK VINA RESULT:    -6.581      3.609      7.759
REMARK INTER + INTRA:          -9.666
REMARK INTER:                  -9.138
REMARK INTRA:                  -0.528
REMARK UNBOUND:                -0.777
REMARK  Name = 
REMARK  6 active torsions:
REMARK  status: ('A' for Active; 'I' for Inactive)
REMARK    1  A    between atoms: C_2  and  C_4
REMARK    2  A    between atoms: N_8  and  C_9
REMARK    3  A    between atoms: C_9  and  C_10
REMARK    4  A    between atoms: C_10  and  C_11
REMARK    5  A    between atoms: C_15  and  O_16
REMARK    6  A    between atoms: O_16  and  C_17
REMARK                            x       y       z     vdW  Elec       q    Type
REMARK                         _______ _______ _______ _____ _____    ______ ____
ROOT
ATOM      1  C   UNL     1      45.688   5.936  12.581  0.00  0.00    +0.000 C 
ENDROOT
BRANCH   1   6
ATOM      2  C   UNL     1      50.001   8.576  12.736  0.00  0.00    +0.000 A 
ATOM      3  C   UNL     1      49.481   7.765  11.737  0.00  0.00    +0.000 A 
ATOM      4  C   UNL     1      48.179   7.285  11.863  0.00  0.00    +0.000 A 
ATOM      5  C   UNL     1      47.427   7.594  12.995  0.00  0.00    +0.000 A 
ATOM      6  N   UNL     1      46.097   7.219  13.138  0.00  0.00    +0.000 N 
ATOM      7  N   UNL     1      47.939   8.340  13.993  0.00  0.00    +0.000 NA
ATOM      8  C   UNL     1      49.210   8.812  13.849  0.00  0.00    +0.000 A 
ATOM      9  H   UNL     1      45.832   7.403  14.104  0.00  0.00    +0.000 HD
BRANCH   2  11
ATOM     10  N   UNL     1      51.476  10.455  13.147  0.00  0.00    +0.000 N 
ATOM     11  C   UNL     1      51.340   9.192  12.638  0.00  0.00    +0.000 C 
ATOM     12  O   UNL     1      52.293   8.592  12.163  0.00  0.00    +0.000 OA
ATOM     13  H   UNL     1      52.417  10.829  13.187  0.00  0.00    +0.000 HD
ATOM     14  H   UNL     1      50.789  10.873  13.762  0.00  0.00    +0.000 HD
ENDBRANCH   2  11
ENDBRANCH   1   6
BRANCH   1  15
ATOM     15  C   UNL     1      44.829   6.105  11.324  0.00  0.00    +0.000 C 
BRANCH  15  16
ATOM     16  C   UNL     1      44.878   4.838  10.497  0.00  0.00    +0.000 A 
ATOM     17  C   UNL     1      44.196   3.687  10.913  0.00  0.00    +0.000 A 
ATOM     18  C   UNL     1      44.164   2.553  10.098  0.00  0.00    +0.000 A 
ATOM     19  C   UNL     1      44.812   2.555   8.861  0.00  0.00    +0.000 A 
ATOM     20  C   UNL     1      45.501   3.690   8.444  0.00  0.00    +0.000 A 
ATOM     21  C   UNL     1      45.527   4.828   9.256  0.00  0.00    +0.000 A 
BRANCH  20  22
ATOM     22  O   UNL     1      46.143   3.817   7.237  0.00  0.00    +0.000 OA
BRANCH  22  23
ATOM     23  C   UNL     1      46.570   2.621   6.545  0.00  0.00    +0.000 C 
ATOM     24  C   UNL     1      47.891   1.963   6.993  0.00  0.00    +0.000 C 
ATOM     25  N   UNL     1      48.376   1.962   5.603  0.00  0.00    +0.000 NA
ATOM     26  C   UNL     1      47.291   2.870   5.205  0.00  0.00    +0.000 C 
ATOM     27  H   UNL     1      48.343   1.050   5.150  0.00  0.00    +0.000 HD
ENDBRANCH  22  23
ENDBRANCH  20  22
ENDBRANCH  15  16
ENDBRANCH   1  15
TORSDOF 6
ENDMDL
MODEL 6
REMARK VINA RESULT:    -6.481      2.447      8.461
REMARK INTER + INTRA:          -9.530
REMARK INTER:                  -9.003
REMARK INTRA:                  -0.528
REMARK UNBOUND:                -0.777
REMARK  Name = 
REMARK  6 active torsions:
REMARK  status: ('A' for Active; 'I' for Inactive)
REMARK    1  A    between atoms: C_2  and  C_4
REMARK    2  A    between atoms: N_8  and  C_9
REMARK    3  A    between atoms: C_9  and  C_10
REMARK    4  A    between atoms: C_10  and  C_11
REMARK    5  A    between atoms: C_15  and  O_16
REMARK    6  A    between atoms: O_16  and  C_17
REMARK                            x       y       z     vdW  Elec       q    Type
REMARK                         _______ _______ _______ _____ _____    ______ ____
ROOT
ATOM      1  C   UNL     1      47.257   5.071  13.573  0.00  0.00    +0.000 C 
ENDROOT
BRANCH   1   6
ATOM      2  C   UNL     1      48.715   4.502  18.384  0.00  0.00    +0.000 A 
ATOM      3  C   UNL     1      48.926   5.552  17.501  0.00  0.00    +0.000 A 
ATOM      4  C   UNL     1      48.265   5.548  16.275  0.00  0.00    +0.000 A 
ATOM      5  C   UNL     1      47.431   4.485  15.934  0.00  0.00    +0.000 A 
ATOM      6  N   UNL     1      46.678   4.466  14.766  0.00  0.00    +0.000 N 
ATOM      7  N   UNL     1      47.258   3.438  16.763  0.00  0.00    +0.000 NA
ATOM      8  C   UNL     1      47.901   3.462  17.964  0.00  0.00    +0.000 A 
ATOM      9  H   UNL     1      46.300   3.526  14.664  0.00  0.00    +0.000 HD
BRANCH   2  11
ATOM     10  N   UNL     1      48.523   3.996  20.747  0.00  0.00    +0.000 N 
ATOM     11  C   UNL     1      49.312   4.473  19.735  0.00  0.00    +0.000 C 
ATOM     12  O   UNL     1      50.467   4.819  19.938  0.00  0.00    +0.000 OA
ATOM     13  H   UNL     1      48.970   3.865  21.647  0.00  0.00    +0.000 HD
ATOM     14  H   UNL     1      47.672   3.475  20.577  0.00  0.00    +0.000 HD
ENDBRANCH   2  11
ENDBRANCH   1   6
BRANCH   1  15
ATOM     15  C   UNL     1      46.371   6.184  13.007  0.00  0.00    +0.000 C 
BRANCH  15  16
ATOM     16  C   UNL     1      45.149   5.581  12.350  0.00  0.00    +0.000 A 
ATOM     17  C   UNL     1      43.904   5.612  12.992  0.00  0.00    +0.000 A 
ATOM     18  C   UNL     1      42.762   5.143  12.339  0.00  0.00    +0.000 A 
ATOM     19  C   UNL     1      42.849   4.636  11.041  0.00  0.00    +0.000 A 
ATOM     20  C   UNL     1      44.083   4.592  10.398  0.00  0.00    +0.000 A 
ATOM     21  C   UNL     1      45.225   5.069  11.048  0.00  0.00    +0.000 A 
BRANCH  20  22
ATOM     22  O   UNL     1      44.281   4.150   9.114  0.00  0.00    +0.000 OA
BRANCH  22  23
ATOM     23  C   UNL     1      45.558   3.567   8.766  0.00  0.00    +0.000 C 
ATOM     24  C   UNL     1      45.934   3.495   7.272  0.00  0.00    +0.000 C 
ATOM     25  N   UNL     1      46.231   2.059   7.403  0.00  0.00    +0.000 NA
ATOM     26  C   UNL     1      45.575   2.026   8.719  0.00  0.00    +0.000 C 
ATOM     27  H   UNL     1      47.225   1.838   7.428  0.00  0.00    +0.000 HD
ENDBRANCH  22  23
ENDBRANCH  20  22
ENDBRANCH  15  16
ENDBRANCH   1  15
TORSDOF 6
ENDMDL
MODEL 7
REMARK VINA RESULT:    -6.230      3.122      4.982
REMARK INTER + INTRA:          -9.191
REMARK INTER:                  -8.253
REMARK INTRA:                  -0.939
REMARK UNBOUND:                -0.777
REMARK  Name = 
REMARK  6 active torsions:
REMARK  status: ('A' for Active; 'I' for Inactive)
REMARK    1  A    between atoms: C_2  and  C_4
REMARK    2  A    between atoms: N_8  and  C_9
REMARK    3  A    between atoms: C_9  and  C_10
REMARK    4  A    between atoms: C_10  and  C_11
REMARK    5  A    between atoms: C_15  and  O_16
REMARK    6  A    between atoms: O_16  and  C_17
REMARK                            x       y       z     vdW  Elec       q    Type
REMARK                         _______ _______ _______ _____ _____    ______ ____
ROOT
ATOM      1  C   UNL     1      48.988   7.392  12.689  0.00  0.00    +0.000 C 
ENDROOT
BRANCH   1   6
ATOM      2  C   UNL     1      44.938   4.465  11.899  0.00  0.00    +0.000 A 
ATOM      3  C   UNL     1      45.732   4.611  13.028  0.00  0.00    +0.000 A 
ATOM      4  C   UNL     1      46.691   5.622  13.054  0.00  0.00    +0.000 A 
ATOM      5  C   UNL     1      46.866   6.448  11.946  0.00  0.00    +0.000 A 
ATOM      6  N   UNL     1      47.743   7.526  11.944  0.00  0.00    +0.000 N 
ATOM      7  N   UNL     1      46.134   6.283  10.827  0.00  0.00    +0.000 NA
ATOM      8  C   UNL     1      45.192   5.298  10.822  0.00  0.00    +0.000 A 
ATOM      9  H   UNL     1      47.819   7.854  10.982  0.00  0.00    +0.000 HD
BRANCH   2  11
ATOM     10  N   UNL     1      43.958   2.370  12.626  0.00  0.00    +0.000 N 
ATOM     11  C   UNL     1      43.845   3.474  11.825  0.00  0.00    +0.000 C 
ATOM     12  O   UNL     1      42.864   3.647  11.115  0.00  0.00    +0.000 OA
ATOM     13  H   UNL     1      43.156   1.752  12.663  0.00  0.00    +0.000 HD
ATOM     14  H   UNL     1      44.615   2.318  13.395  0.00  0.00    +0.000 HD
ENDBRANCH   2  11
ENDBRANCH   1   6
BRANCH   1  15
ATOM     15  C   UNL     1      49.215   8.569  13.642  0.00  0.00    +0.000 C 
BRANCH  15  16
ATOM     16  C   UNL     1      49.518   8.052  15.031  0.00  0.00    +0.000 A 
ATOM     17  C   UNL     1      49.821   8.938  16.073  0.00  0.00    +0.000 A 
ATOM     18  C   UNL     1      50.002   8.462  17.374  0.00  0.00    +0.000 A 
ATOM     19  C   UNL     1      49.886   7.097  17.649  0.00  0.00    +0.000 A 
ATOM     20  C   UNL     1      49.597   6.208  16.618  0.00  0.00    +0.000 A 
ATOM     21  C   UNL     1      49.407   6.685  15.318  0.00  0.00    +0.000 A 
BRANCH  20  22
ATOM     22  O   UNL     1      49.425   4.855  16.777  0.00  0.00    +0.000 OA
BRANCH  22  23
ATOM     23  C   UNL     1      48.113   4.289  16.556  0.00  0.00    +0.000 C 
ATOM     24  C   UNL     1      47.065   4.437  17.678  0.00  0.00    +0.000 C 
ATOM     25  N   UNL     1      46.804   2.989  17.645  0.00  0.00    +0.000 NA
ATOM     26  C   UNL     1      48.007   2.774  16.827  0.00  0.00    +0.000 C 
ATOM     27  H   UNL     1      45.934   2.732  17.181  0.00  0.00    +0.000 HD
ENDBRANCH  22  23
ENDBRANCH  20  22
ENDBRANCH  15  16
ENDBRANCH   1  15
TORSDOF 6
ENDMDL
MODEL 8
REMARK VINA RESULT:    -6.200      2.101      3.208
REMARK INTER + INTRA:          -9.151
REMARK INTER:                  -8.175
REMARK INTRA:                  -0.976
REMARK UNBOUND:                -0.777
REMARK  Name = 
REMARK  6 active torsions:
REMARK  status: ('A' for Active; 'I' for Inactive)
REMARK    1  A    between atoms: C_2  and  C_4
REMARK    2  A    between atoms: N_8  and  C_9
REMARK    3  A    between atoms: C_9  and  C_10
REMARK    4  A    between atoms: C_10  and  C_11
REMARK    5  A    between atoms: C_15  and  O_16
REMARK    6  A    between atoms: O_16  and  C_17
REMARK                            x       y       z     vdW  Elec       q    Type
REMARK                         _______ _______ _______ _____ _____    ______ ____
ROOT
ATOM      1  C   UNL     1      44.613   8.457  11.662  0.00  0.00    +0.000 C 
ENDROOT
BRANCH   1   6
ATOM      2  C   UNL     1      44.979   3.913   9.468  0.00  0.00    +0.000 A 
ATOM      3  C   UNL     1      45.852   4.993   9.446  0.00  0.00    +0.000 A 
ATOM      4  C   UNL     1      45.606   6.078  10.284  0.00  0.00    +0.000 A 
ATOM      5  C   UNL     1      44.480   6.087  11.105  0.00  0.00    +0.000 A 
ATOM      6  N   UNL     1      44.228   7.099  12.024  0.00  0.00    +0.000 N 
ATOM      7  N   UNL     1      43.601   5.066  11.098  0.00  0.00    +0.000 NA
ATOM      8  C   UNL     1      43.862   4.006  10.282  0.00  0.00    +0.000 A 
ATOM      9  H   UNL     1      43.277   6.969  12.365  0.00  0.00    +0.000 HD
BRANCH   2  11
ATOM     10  N   UNL     1      44.680   1.527   9.158  0.00  0.00    +0.000 N 
ATOM     11  C   UNL     1      45.215   2.690   8.673  0.00  0.00    +0.000 C 
ATOM     12  O   UNL     1      45.821   2.717   7.612  0.00  0.00    +0.000 OA
ATOM     13  H   UNL     1      44.740   0.715   8.556  0.00  0.00    +0.000 HD
ATOM     14  H   UNL     1      43.973   1.512   9.883  0.00  0.00    +0.000 HD
ENDBRANCH   2  11
ENDBRANCH   1   6
BRANCH   1  15
ATOM     15  C   UNL     1      45.500   9.104  12.731  0.00  0.00    +0.000 C 
BRANCH  15  16
ATOM     16  C   UNL     1      46.888   8.504  12.677  0.00  0.00    +0.000 A 
ATOM     17  C   UNL     1      47.843   8.991  11.776  0.00  0.00    +0.000 A 
ATOM     18  C   UNL     1      49.150   8.500  11.799  0.00  0.00    +0.000 A 
ATOM     19  C   UNL     1      49.518   7.516  12.720  0.00  0.00    +0.000 A 
ATOM     20  C   UNL     1      48.573   7.018  13.612  0.00  0.00    +0.000 A 
ATOM     21  C   UNL     1      47.267   7.515  13.595  0.00  0.00    +0.000 A 
BRANCH  20  22
ATOM     22  O   UNL     1      48.830   6.079  14.581  0.00  0.00    +0.000 OA
BRANCH  22  23
ATOM     23  C   UNL     1      47.721   5.519  15.320  0.00  0.00    +0.000 C 
ATOM     24  C   UNL     1      48.031   4.796  16.647  0.00  0.00    +0.000 C 
ATOM     25  N   UNL     1      47.272   3.618  16.198  0.00  0.00    +0.000 NA
ATOM     26  C   UNL     1      47.241   4.140  14.823  0.00  0.00    +0.000 C 
ATOM     27  H   UNL     1      46.352   3.524  16.628  0.00  0.00    +0.000 HD
ENDBRANCH  22  23
ENDBRANCH  20  22
ENDBRANCH  15  16
ENDBRANCH   1  15
TORSDOF 6
ENDMDL
MODEL 9
REMARK VINA RESULT:    -6.159      3.353      5.357
REMARK INTER + INTRA:          -9.095
REMARK INTER:                  -8.103
REMARK INTRA:                  -0.992
REMARK UNBOUND:                -0.777
REMARK  Name = 
REMARK  6 active torsions:
REMARK  status: ('A' for Active; 'I' for Inactive)
REMARK    1  A    between atoms: C_2  and  C_4
REMARK    2  A    between atoms: N_8  and  C_9
REMARK    3  A    between atoms: C_9  and  C_10
REMARK    4  A    between atoms: C_10  and  C_11
REMARK    5  A    between atoms: C_15  and  O_16
REMARK    6  A    between atoms: O_16  and  C_17
REMARK                            x       y       z     vdW  Elec       q    Type
REMARK                         _______ _______ _______ _____ _____    ______ ____
ROOT
ATOM      1  C   UNL     1      48.693   7.463  14.573  0.00  0.00    +0.000 C 
ENDROOT
BRANCH   1   6
ATOM      2  C   UNL     1      45.484   4.279  12.302  0.00  0.00    +0.000 A 
ATOM      3  C   UNL     1      46.364   4.066  13.355  0.00  0.00    +0.000 A 
ATOM      4  C   UNL     1      47.017   5.159  13.921  0.00  0.00    +0.000 A 
ATOM      5  C   UNL     1      46.810   6.439  13.411  0.00  0.00    +0.000 A 
ATOM      6  N   UNL     1      47.364   7.576  13.988  0.00  0.00    +0.000 N 
ATOM      7  N   UNL     1      45.996   6.649  12.359  0.00  0.00    +0.000 NA
ATOM      8  C   UNL     1      45.355   5.572  11.824  0.00  0.00    +0.000 A 
ATOM      9  H   UNL     1      47.214   8.348  13.340  0.00  0.00    +0.000 HD
BRANCH   2  11
ATOM     10  N   UNL     1      43.827   2.524  12.534  0.00  0.00    +0.000 N 
ATOM     11  C   UNL     1      44.690   3.187  11.703  0.00  0.00    +0.000 C 
ATOM     12  O   UNL     1      44.766   2.911  10.514  0.00  0.00    +0.000 OA
ATOM     13  H   UNL     1      43.200   1.858  12.098  0.00  0.00    +0.000 HD
ATOM     14  H   UNL     1      43.558   2.884  13.441  0.00  0.00    +0.000 HD
ENDBRANCH   2  11
ENDBRANCH   1   6
BRANCH   1  15
ATOM     15  C   UNL     1      48.876   8.405  15.767  0.00  0.00    +0.000 C 
BRANCH  15  16
ATOM     16  C   UNL     1      48.588   7.663  17.054  0.00  0.00    +0.000 A 
ATOM     17  C   UNL     1      48.085   8.341  18.172  0.00  0.00    +0.000 A 
ATOM     18  C   UNL     1      47.729   7.635  19.324  0.00  0.00    +0.000 A 
ATOM     19  C   UNL     1      47.873   6.247  19.374  0.00  0.00    +0.000 A 
ATOM     20  C   UNL     1      48.383   5.566  18.272  0.00  0.00    +0.000 A 
ATOM     21  C   UNL     1      48.731   6.271  17.116  0.00  0.00    +0.000 A 
BRANCH  20  22
ATOM     22  O   UNL     1      48.534   4.204  18.195  0.00  0.00    +0.000 OA
BRANCH  22  23
ATOM     23  C   UNL     1      49.127   3.634  17.005  0.00  0.00    +0.000 C 
ATOM     24  C   UNL     1      48.366   2.497  16.294  0.00  0.00    +0.000 C 
ATOM     25  N   UNL     1      49.574   1.657  16.316  0.00  0.00    +0.000 NA
ATOM     26  C   UNL     1      50.217   2.574  17.268  0.00  0.00    +0.000 C 
ATOM     27  H   UNL     1      50.051   1.588  15.418  0.00  0.00    +0.000 HD
ENDBRANCH  22  23
ENDBRANCH  20  22
ENDBRANCH  15  16
ENDBRANCH   1  15
TORSDOF 6
ENDMDL
