MODEL 1
REMARK VINA RESULT:    -7.723      0.000      0.000
REMARK INTER + INTRA:         -10.140
REMARK INTER:                  -9.529
REMARK INTRA:                  -0.611
REMARK UNBOUND:                -0.611
REMARK  Name = 
REMARK  4 active torsions:
REMARK  status: ('A' for Active; 'I' for Inactive)
REMARK    1  A    between atoms: C_2  and  C_3
REMARK    2  A    between atoms: C_7  and  C_8
REMARK    3  A    between atoms: C_8  and  N_9
REMARK    4  A    between atoms: C_10  and  C_12
REMARK                            x       y       z     vdW  Elec       q    Type
REMARK                         _______ _______ _______ _____ _____    ______ ____
ROOT
ATOM      1  N   UNL     1      44.891   5.177  10.148  0.00  0.00    +0.000 N 
ATOM      2  C   UNL     1      44.140   5.890  11.051  0.00  0.00    +0.000 C 
ATOM      3  O   UNL     1      43.004   5.557  11.374  0.00  0.00    +0.000 OA
ATOM      4  H   UNL     1      45.665   5.649   9.691  0.00  0.00    +0.000 HD
ENDROOT
BRANCH   2   5
ATOM      5  C   UNL     1      44.805   7.042  11.671  0.00  0.00    +0.000 A 
ATOM      6  C   UNL     1      44.406   8.335  11.355  0.00  0.00    +0.000 A 
ATOM      7  S   UNL     1      45.272   9.541  12.197  0.00  0.00    +0.000 S 
ATOM      8  C   UNL     1      46.239   8.379  12.980  0.00  0.00    +0.000 A 
ATOM      9  N   UNL     1      47.228   8.748  13.838  0.00  0.00    +0.000 NA
ATOM     10  C   UNL     1      47.895   7.762  14.339  0.00  0.00    +0.000 A 
ATOM     11  N   UNL     1      47.657   6.439  14.068  0.00  0.00    +0.000 N 
ATOM     12  C   UNL     1      46.645   6.016  13.240  0.00  0.00    +0.000 A 
ATOM     13  O   UNL     1      46.413   4.826  13.077  0.00  0.00    +0.000 OA
ATOM     14  C   UNL     1      45.885   7.089  12.627  0.00  0.00    +0.000 A 
ATOM     15  H   UNL     1      48.201   5.713  14.510  0.00  0.00    +0.000 HD
ENDBRANCH   2   5
BRANCH   1  16
ATOM     16  C   UNL     1      44.378   4.007   9.476  0.00  0.00    +0.000 C 
BRANCH  16  21
ATOM     17  C   UNL     1      46.516   1.403   7.677  0.00  0.00    +0.000 A 
ATOM     18  C   UNL     1      47.249   2.194   6.789  0.00  0.00    +0.000 A 
ATOM     19  C   UNL     1      47.071   3.578   6.788  0.00  0.00    +0.000 A 
ATOM     20  C   UNL     1      46.164   4.171   7.672  0.00  0.00    +0.000 A 
ATOM     21  C   UNL     1      45.411   3.389   8.557  0.00  0.00    +0.000 A 
ATOM     22  C   UNL     1      45.599   1.998   8.551  0.00  0.00    +0.000 A 
BRANCH  17  24
ATOM     23  N   UNL     1      46.860  -1.167   7.697  0.00  0.00    +0.000 NA
ATOM     24  C   UNL     1      46.703  -0.019   7.692  0.00  0.00    +0.000 C 
ENDBRANCH  17  24
ENDBRANCH  16  21
ENDBRANCH   1  16
TORSDOF 4
ENDMDL
MODEL 2
REMARK VINA RESULT:    -7.601      1.417      1.805
REMARK INTER + INTRA:          -9.989
REMARK INTER:                  -9.379
REMARK INTRA:                  -0.610
REMARK UNBOUND:                -0.611
REMARK  Name = 
REMARK  4 active torsions:
REMARK  status: ('A' for Active; 'I' for Inactive)
REMARK    1  A    between atoms: C_2  and  C_3
REMARK    2  A    between atoms: C_7  and  C_8
REMARK    3  A    between atoms: C_8  and  N_9
REMARK    4  A    between atoms: C_10  and  C_12
REMARK                            x       y       z     vdW  Elec       q    Type
REMARK                         _______ _______ _______ _____ _____    ______ ____
ROOT
ATOM      1  N   UNL     1      45.561   4.695  10.119  0.00  0.00    +0.000 N 
ATOM      2  C   UNL     1      45.004   5.559  11.030  0.00  0.00    +0.000 C 
ATOM      3  O   UNL     1      43.815   5.865  11.009  0.00  0.00    +0.000 OA
ATOM      4  H   UNL     1      46.567   4.723   9.987  0.00  0.00    +0.000 HD
ENDROOT
BRANCH   2   5
ATOM      5  C   UNL     1      45.900   6.042  12.088  0.00  0.00    +0.000 A 
ATOM      6  C   UNL     1      46.325   7.365  12.095  0.00  0.00    +0.000 A 
ATOM      7  S   UNL     1      47.335   7.749  13.416  0.00  0.00    +0.000 S 
ATOM      8  C   UNL     1      47.274   6.151  13.999  0.00  0.00    +0.000 A 
ATOM      9  N   UNL     1      47.964   5.781  15.112  0.00  0.00    +0.000 NA
ATOM     10  C   UNL     1      47.844   4.533  15.423  0.00  0.00    +0.000 A 
ATOM     11  N   UNL     1      47.089   3.623  14.728  0.00  0.00    +0.000 N 
ATOM     12  C   UNL     1      46.344   3.958  13.623  0.00  0.00    +0.000 A 
ATOM     13  O   UNL     1      45.624   3.138  13.069  0.00  0.00    +0.000 OA
ATOM     14  C   UNL     1      46.470   5.344  13.215  0.00  0.00    +0.000 A 
ATOM     15  H   UNL     1      47.019   2.664  15.037  0.00  0.00    +0.000 HD
ENDBRANCH   2   5
BRANCH   1  16
ATOM     16  C   UNL     1      44.796   4.121   9.038  0.00  0.00    +0.000 C 
BRANCH  16  21
ATOM     17  C   UNL     1      46.647   1.201   7.413  0.00  0.00    +0.000 A 
ATOM     18  C   UNL     1      47.210   1.807   6.287  0.00  0.00    +0.000 A 
ATOM     19  C   UNL     1      47.013   3.170   6.064  0.00  0.00    +0.000 A 
ATOM     20  C   UNL     1      46.255   3.927   6.963  0.00  0.00    +0.000 A 
ATOM     21  C   UNL     1      45.672   3.331   8.088  0.00  0.00    +0.000 A 
ATOM     22  C   UNL     1      45.878   1.958   8.304  0.00  0.00    +0.000 A 
BRANCH  17  24
ATOM     23  N   UNL     1      47.016  -1.327   7.858  0.00  0.00    +0.000 NA
ATOM     24  C   UNL     1      46.856  -0.197   7.656  0.00  0.00    +0.000 C 
ENDBRANCH  17  24
ENDBRANCH  16  21
ENDBRANCH   1  16
TORSDOF 4
ENDMDL
MODEL 3
REMARK VINA RESULT:    -7.259      4.281      7.449
REMARK INTER + INTRA:          -9.568
REMARK INTER:                  -9.017
REMARK INTRA:                  -0.551
REMARK UNBOUND:                -0.611
REMARK  Name = 
REMARK  4 active torsions:
REMARK  status: ('A' for Active; 'I' for Inactive)
REMARK    1  A    between atoms: C_2  and  C_3
REMARK    2  A    between atoms: C_7  and  C_8
REMARK    3  A    between atoms: C_8  and  N_9
REMARK    4  A    between atoms: C_10  and  C_12
REMARK                            x       y       z     vdW  Elec       q    Type
REMARK                         _______ _______ _______ _____ _____    ______ ____
ROOT
ATOM      1  N   UNL     1      46.849   4.449  15.831  0.00  0.00    +0.000 N 
ATOM      2  C   UNL     1      46.893   4.191  14.482  0.00  0.00    +0.000 C 
ATOM      3  O   UNL     1      47.273   3.116  14.027  0.00  0.00    +0.000 OA
ATOM      4  H   UNL     1      46.834   5.418  16.132  0.00  0.00    +0.000 HD
ENDROOT
BRANCH   2   5
ATOM      5  C   UNL     1      46.384   5.255  13.609  0.00  0.00    +0.000 A 
ATOM      6  C   UNL     1      47.123   6.416  13.417  0.00  0.00    +0.000 A 
ATOM      7  S   UNL     1      46.387   7.523  12.345  0.00  0.00    +0.000 S 
ATOM      8  C   UNL     1      45.036   6.508  12.136  0.00  0.00    +0.000 A 
ATOM      9  N   UNL     1      43.992   6.879  11.347  0.00  0.00    +0.000 NA
ATOM     10  C   UNL     1      43.027   6.022  11.300  0.00  0.00    +0.000 A 
ATOM     11  N   UNL     1      43.015   4.822  11.964  0.00  0.00    +0.000 N 
ATOM     12  C   UNL     1      44.063   4.386  12.740  0.00  0.00    +0.000 A 
ATOM     13  O   UNL     1      44.051   3.278  13.259  0.00  0.00    +0.000 OA
ATOM     14  C   UNL     1      45.160   5.329  12.848  0.00  0.00    +0.000 A 
ATOM     15  H   UNL     1      42.239   4.184  11.868  0.00  0.00    +0.000 HD
ENDBRANCH   2   5
BRANCH   1  16
ATOM     16  C   UNL     1      47.293   3.487  16.812  0.00  0.00    +0.000 C 
BRANCH  16  21
ATOM     17  C   UNL     1      50.965   2.662  17.469  0.00  0.00    +0.000 A 
ATOM     18  C   UNL     1      51.521   3.932  17.633  0.00  0.00    +0.000 A 
ATOM     19  C   UNL     1      50.704   5.061  17.557  0.00  0.00    +0.000 A 
ATOM     20  C   UNL     1      49.333   4.921  17.317  0.00  0.00    +0.000 A 
ATOM     21  C   UNL     1      48.763   3.654  17.135  0.00  0.00    +0.000 A 
ATOM     22  C   UNL     1      49.594   2.525  17.216  0.00  0.00    +0.000 A 
BRANCH  17  24
ATOM     23  N   UNL     1      52.476   0.561  17.633  0.00  0.00    +0.000 NA
ATOM     24  C   UNL     1      51.796   1.497  17.559  0.00  0.00    +0.000 C 
ENDBRANCH  17  24
ENDBRANCH  16  21
ENDBRANCH   1  16
TORSDOF 4
ENDMDL
MODEL 4
REMARK VINA RESULT:    -7.029      2.511      3.771
REMARK INTER + INTRA:          -9.284
REMARK INTER:                  -8.497
REMARK INTRA:                  -0.787
REMARK UNBOUND:                -0.611
REMARK  Name = 
REMARK  4 active torsions:
REMARK  status: ('A' for Active; 'I' for Inactive)
REMARK    1  A    between atoms: C_2  and  C_3
REMARK    2  A    between atoms: C_7  and  C_8
REMARK    3  A    between atoms: C_8  and  N_9
REMARK    4  A    between atoms: C_10  and  C_12
REMARK                            x       y       z     vdW  Elec       q    Type
REMARK                         _______ _______ _______ _____ _____    ______ ____
ROOT
ATOM      1  N   UNL     1      45.628   6.328  12.313  0.00  0.00    +0.000 N 
ATOM      2  C   UNL     1      46.973   6.607  12.271  0.00  0.00    +0.000 C 
ATOM      3  O   UNL     1      47.546   6.945  11.240  0.00  0.00    +0.000 OA
ATOM      4  H   UNL     1      45.279   5.767  13.083  0.00  0.00    +0.000 HD
ENDROOT
BRANCH   2   5
ATOM      5  C   UNL     1      47.679   6.550  13.557  0.00  0.00    +0.000 A 
ATOM      6  C   UNL     1      48.502   7.599  13.950  0.00  0.00    +0.000 A 
ATOM      7  S   UNL     1      49.213   7.369  15.485  0.00  0.00    +0.000 S 
ATOM      8  C   UNL     1      48.480   5.842  15.657  0.00  0.00    +0.000 A 
ATOM      9  N   UNL     1      48.702   5.075  16.758  0.00  0.00    +0.000 NA
ATOM     10  C   UNL     1      48.101   3.931  16.742  0.00  0.00    +0.000 A 
ATOM     11  N   UNL     1      47.290   3.489  15.729  0.00  0.00    +0.000 N 
ATOM     12  C   UNL     1      47.004   4.244  14.616  0.00  0.00    +0.000 A 
ATOM     13  O   UNL     1      46.218   3.850  13.765  0.00  0.00    +0.000 OA
ATOM     14  C   UNL     1      47.681   5.527  14.573  0.00  0.00    +0.000 A 
ATOM     15  H   UNL     1      46.830   2.592  15.786  0.00  0.00    +0.000 HD
ENDBRANCH   2   5
BRANCH   1  16
ATOM     16  C   UNL     1      44.799   6.367  11.132  0.00  0.00    +0.000 C 
BRANCH  16  21
ATOM     17  C   UNL     1      45.361   3.572   8.589  0.00  0.00    +0.000 A 
ATOM     18  C   UNL     1      44.714   2.494   9.198  0.00  0.00    +0.000 A 
ATOM     19  C   UNL     1      44.071   2.675  10.423  0.00  0.00    +0.000 A 
ATOM     20  C   UNL     1      44.074   3.931  11.039  0.00  0.00    +0.000 A 
ATOM     21  C   UNL     1      44.731   5.018  10.449  0.00  0.00    +0.000 A 
ATOM     22  C   UNL     1      45.374   4.824   9.215  0.00  0.00    +0.000 A 
BRANCH  17  24
ATOM     23  N   UNL     1      46.549   3.257   6.306  0.00  0.00    +0.000 NA
ATOM     24  C   UNL     1      46.013   3.397   7.324  0.00  0.00    +0.000 C 
ENDBRANCH  17  24
ENDBRANCH  16  21
ENDBRANCH   1  16
TORSDOF 4
ENDMDL
MODEL 5
REMARK VINA RESULT:    -6.910      4.397      7.739
REMARK INTER + INTRA:          -9.137
REMARK INTER:                  -8.596
REMARK INTRA:                  -0.540
REMARK UNBOUND:                -0.611
REMARK  Name = 
REMARK  4 active torsions:
REMARK  status: ('A' for Active; 'I' for Inactive)
REMARK    1  A    between atoms: C_2  and  C_3
REMARK    2  A    between atoms: C_7  and  C_8
REMARK    3  A    between atoms: C_8  and  N_9
REMARK    4  A    between atoms: C_10  and  C_12
REMARK                            x       y       z     vdW  Elec       q    Type
REMARK                         _______ _______ _______ _____ _____    ______ ____
ROOT
ATOM      1  N   UNL     1      46.683   4.394  15.774  0.00  0.00    +0.000 N 
ATOM      2  C   UNL     1      46.821   4.116  14.436  0.00  0.00    +0.000 C 
ATOM      3  O   UNL     1      47.232   3.035  14.025  0.00  0.00    +0.000 OA
ATOM      4  H   UNL     1      46.648   5.367  16.059  0.00  0.00    +0.000 HD
ENDROOT
BRANCH   2   5
ATOM      5  C   UNL     1      46.374   5.166  13.513  0.00  0.00    +0.000 A 
ATOM      6  C   UNL     1      47.234   6.198  13.157  0.00  0.00    +0.000 A 
ATOM      7  S   UNL     1      46.550   7.305  12.053  0.00  0.00    +0.000 S 
ATOM      8  C   UNL     1      45.068   6.468  12.046  0.00  0.00    +0.000 A 
ATOM      9  N   UNL     1      44.011   6.914  11.314  0.00  0.00    +0.000 NA
ATOM     10  C   UNL     1      42.945   6.194  11.423  0.00  0.00    +0.000 A 
ATOM     11  N   UNL     1      42.841   5.063  12.192  0.00  0.00    +0.000 N 
ATOM     12  C   UNL     1      43.891   4.553  12.917  0.00  0.00    +0.000 A 
ATOM     13  O   UNL     1      43.786   3.501  13.534  0.00  0.00    +0.000 OA
ATOM     14  C   UNL     1      45.105   5.344  12.851  0.00  0.00    +0.000 A 
ATOM     15  H   UNL     1      41.983   4.530  12.218  0.00  0.00    +0.000 HD
ENDBRANCH   2   5
BRANCH   1  16
ATOM     16  C   UNL     1      47.059   3.448  16.798  0.00  0.00    +0.000 C 
BRANCH  16  21
ATOM     17  C   UNL     1      50.595   4.632  17.624  0.00  0.00    +0.000 A 
ATOM     18  C   UNL     1      51.319   3.438  17.572  0.00  0.00    +0.000 A 
ATOM     19  C   UNL     1      50.668   2.248  17.244  0.00  0.00    +0.000 A 
ATOM     20  C   UNL     1      49.297   2.250  16.968  0.00  0.00    +0.000 A 
ATOM     21  C   UNL     1      48.555   3.437  17.031  0.00  0.00    +0.000 A 
ATOM     22  C   UNL     1      49.220   4.629  17.361  0.00  0.00    +0.000 A 
BRANCH  17  24
ATOM     23  N   UNL     1      51.789   6.856  18.217  0.00  0.00    +0.000 NA
ATOM     24  C   UNL     1      51.260   5.861  17.948  0.00  0.00    +0.000 C 
ENDBRANCH  17  24
ENDBRANCH  16  21
ENDBRANCH   1  16
TORSDOF 4
ENDMDL
MODEL 6
REMARK VINA RESULT:    -6.688      3.861      8.130
REMARK INTER + INTRA:          -8.863
REMARK INTER:                  -8.231
REMARK INTRA:                  -0.633
REMARK UNBOUND:                -0.611
REMARK  Name = 
REMARK  4 active torsions:
REMARK  status: ('A' for Active; 'I' for Inactive)
REMARK    1  A    between atoms: C_2  and  C_3
REMARK    2  A    between atoms: C_7  and  C_8
REMARK    3  A    between atoms: C_8  and  N_9
REMARK    4  A    between atoms: C_10  and  C_12
REMARK                            x       y       z     vdW  Elec       q    Type
REMARK                         _______ _______ _______ _____ _____    ______ ____
ROOT
ATOM      1  N   UNL     1      47.618   6.301  14.909  0.00  0.00    +0.000 N 
ATOM      2  C   UNL     1      47.735   6.159  13.547  0.00  0.00    +0.000 C 
ATOM      3  O   UNL     1      48.821   6.057  12.984  0.00  0.00    +0.000 OA
ATOM      4  H   UNL     1      46.755   6.688  15.276  0.00  0.00    +0.000 HD
ENDROOT
BRANCH   2   5
ATOM      5  C   UNL     1      46.475   6.058  12.801  0.00  0.00    +0.000 A 
ATOM      6  C   UNL     1      45.906   7.191  12.232  0.00  0.00    +0.000 A 
ATOM      7  S   UNL     1      44.461   6.873  11.381  0.00  0.00    +0.000 S 
ATOM      8  C   UNL     1      44.524   5.219  11.780  0.00  0.00    +0.000 A 
ATOM      9  N   UNL     1      43.547   4.361  11.380  0.00  0.00    +0.000 NA
ATOM     10  C   UNL     1      43.713   3.142  11.775  0.00  0.00    +0.000 A 
ATOM     11  N   UNL     1      44.772   2.702  12.526  0.00  0.00    +0.000 N 
ATOM     12  C   UNL     1      45.802   3.522  12.919  0.00  0.00    +0.000 A 
ATOM     13  O   UNL     1      46.769   3.082  13.526  0.00  0.00    +0.000 OA
ATOM     14  C   UNL     1      45.647   4.909  12.525  0.00  0.00    +0.000 A 
ATOM     15  H   UNL     1      44.856   1.729  12.785  0.00  0.00    +0.000 HD
ENDBRANCH   2   5
BRANCH   1  16
ATOM     16  C   UNL     1      48.771   6.389  15.773  0.00  0.00    +0.000 C 
BRANCH  16  21
ATOM     17  C   UNL     1      49.320   4.655  19.132  0.00  0.00    +0.000 A 
ATOM     18  C   UNL     1      48.593   3.474  18.970  0.00  0.00    +0.000 A 
ATOM     19  C   UNL     1      47.943   3.223  17.761  0.00  0.00    +0.000 A 
ATOM     20  C   UNL     1      48.018   4.150  16.716  0.00  0.00    +0.000 A 
ATOM     21  C   UNL     1      48.731   5.346  16.870  0.00  0.00    +0.000 A 
ATOM     22  C   UNL     1      49.383   5.588  18.090  0.00  0.00    +0.000 A 
BRANCH  17  24
ATOM     23  N   UNL     1      50.560   5.129  21.360  0.00  0.00    +0.000 NA
ATOM     24  C   UNL     1      50.002   4.915  20.367  0.00  0.00    +0.000 C 
ENDBRANCH  17  24
ENDBRANCH  16  21
ENDBRANCH   1  16
TORSDOF 4
ENDMDL
MODEL 7
REMARK VINA RESULT:    -6.662      3.195      6.951
REMARK INTER + INTRA:          -8.830
REMARK INTER:                  -8.124
REMARK INTRA:                  -0.707
REMARK UNBOUND:                -0.611
REMARK  Name = 
REMARK  4 active torsions:
REMARK  status: ('A' for Active; 'I' for Inactive)
REMARK    1  A    between atoms: C_2  and  C_3
REMARK    2  A    between atoms: C_7  and  C_8
REMARK    3  A    between atoms: C_8  and  N_9
REMARK    4  A    between atoms: C_10  and  C_12
REMARK                            x       y       z     vdW  Elec       q    Type
REMARK                         _______ _______ _______ _____ _____    ______ ____
ROOT
ATOM      1  N   UNL     1      47.680   6.372  12.293  0.00  0.00    +0.000 N 
ATOM      2  C   UNL     1      46.425   6.683  11.829  0.00  0.00    +0.000 C 
ATOM      3  O   UNL     1      45.912   7.785  12.000  0.00  0.00    +0.000 OA
ATOM      4  H   UNL     1      47.919   5.392  12.404  0.00  0.00    +0.000 HD
ENDROOT
BRANCH   2   5
ATOM      5  C   UNL     1      45.753   5.639  11.045  0.00  0.00    +0.000 A 
ATOM      6  C   UNL     1      45.840   5.640   9.659  0.00  0.00    +0.000 A 
ATOM      7  S   UNL     1      45.022   4.334   8.924  0.00  0.00    +0.000 S 
ATOM      8  C   UNL     1      44.489   3.748  10.430  0.00  0.00    +0.000 A 
ATOM      9  N   UNL     1      43.698   2.644  10.516  0.00  0.00    +0.000 NA
ATOM     10  C   UNL     1      43.350   2.329  11.720  0.00  0.00    +0.000 A 
ATOM     11  N   UNL     1      43.730   3.012  12.847  0.00  0.00    +0.000 N 
ATOM     12  C   UNL     1      44.560   4.107  12.814  0.00  0.00    +0.000 A 
ATOM     13  O   UNL     1      44.938   4.650  13.843  0.00  0.00    +0.000 OA
ATOM     14  C   UNL     1      44.954   4.520  11.480  0.00  0.00    +0.000 A 
ATOM     15  H   UNL     1      43.442   2.701  13.763  0.00  0.00    +0.000 HD
ENDBRANCH   2   5
BRANCH   1  16
ATOM     16  C   UNL     1      48.470   7.307  13.058  0.00  0.00    +0.000 C 
BRANCH  16  21
ATOM     17  C   UNL     1      48.254   5.245  16.267  0.00  0.00    +0.000 A 
ATOM     18  C   UNL     1      49.355   5.716  16.987  0.00  0.00    +0.000 A 
ATOM     19  C   UNL     1      50.157   6.721  16.446  0.00  0.00    +0.000 A 
ATOM     20  C   UNL     1      49.860   7.257  15.188  0.00  0.00    +0.000 A 
ATOM     21  C   UNL     1      48.768   6.785  14.447  0.00  0.00    +0.000 A 
ATOM     22  C   UNL     1      47.968   5.773  15.002  0.00  0.00    +0.000 A 
BRANCH  17  24
ATOM     23  N   UNL     1      46.739   3.390  17.260  0.00  0.00    +0.000 NA
ATOM     24  C   UNL     1      47.418   4.221  16.821  0.00  0.00    +0.000 C 
ENDBRANCH  17  24
ENDBRANCH  16  21
ENDBRANCH   1  16
TORSDOF 4
ENDMDL
MODEL 8
REMARK VINA RESULT:    -6.264      3.939      5.443
REMARK INTER + INTRA:          -8.340
REMARK INTER:                  -7.539
REMARK INTRA:                  -0.801
REMARK UNBOUND:                -0.611
REMARK  Name = 
REMARK  4 active torsions:
REMARK  status: ('A' for Active; 'I' for Inactive)
REMARK    1  A    between atoms: C_2  and  C_3
REMARK    2  A    between atoms: C_7  and  C_8
REMARK    3  A    between atoms: C_8  and  N_9
REMARK    4  A    between atoms: C_10  and  C_12
REMARK                            x       y       z     vdW  Elec       q    Type
REMARK                         _______ _______ _______ _____ _____    ______ ____
ROOT
ATOM      1  N   UNL     1      47.760   6.163  12.872  0.00  0.00    +0.000 N 
ATOM      2  C   UNL     1      47.924   7.043  13.915  0.00  0.00    +0.000 C 
ATOM      3  O   UNL     1      47.554   8.212  13.857  0.00  0.00    +0.000 OA
ATOM      4  H   UNL     1      48.346   5.335  12.849  0.00  0.00    +0.000 HD
ENDROOT
BRANCH   2   5
ATOM      5  C   UNL     1      48.504   6.483  15.142  0.00  0.00    +0.000 A 
ATOM      6  C   UNL     1      49.585   7.106  15.753  0.00  0.00    +0.000 A 
ATOM      7  S   UNL     1      50.101   6.329  17.182  0.00  0.00    +0.000 S 
ATOM      8  C   UNL     1      48.925   5.110  17.010  0.00  0.00    +0.000 A 
ATOM      9  N   UNL     1      48.836   4.086  17.902  0.00  0.00    +0.000 NA
ATOM     10  C   UNL     1      47.914   3.222  17.633  0.00  0.00    +0.000 A 
ATOM     11  N   UNL     1      47.066   3.294  16.558  0.00  0.00    +0.000 N 
ATOM     12  C   UNL     1      47.091   4.329  15.654  0.00  0.00    +0.000 A 
ATOM     13  O   UNL     1      46.273   4.400  14.747  0.00  0.00    +0.000 OA
ATOM     14  C   UNL     1      48.132   5.310  15.896  0.00  0.00    +0.000 A 
ATOM     15  H   UNL     1      46.350   2.597  16.415  0.00  0.00    +0.000 HD
ENDBRANCH   2   5
BRANCH   1  16
ATOM     16  C   UNL     1      47.182   6.565  11.612  0.00  0.00    +0.000 C 
BRANCH  16  21
ATOM     17  C   UNL     1      43.889   4.628  11.592  0.00  0.00    +0.000 A 
ATOM     18  C   UNL     1      42.948   5.659  11.547  0.00  0.00    +0.000 A 
ATOM     19  C   UNL     1      43.377   6.986  11.499  0.00  0.00    +0.000 A 
ATOM     20  C   UNL     1      44.744   7.283  11.493  0.00  0.00    +0.000 A 
ATOM     21  C   UNL     1      45.700   6.260  11.553  0.00  0.00    +0.000 A 
ATOM     22  C   UNL     1      45.257   4.929  11.600  0.00  0.00    +0.000 A 
BRANCH  17  24
ATOM     23  N   UNL     1      43.114   2.154  11.665  0.00  0.00    +0.000 NA
ATOM     24  C   UNL     1      43.456   3.261  11.629  0.00  0.00    +0.000 C 
ENDBRANCH  17  24
ENDBRANCH  16  21
ENDBRANCH   1  16
TORSDOF 4
ENDMDL
MODEL 9
REMARK VINA RESULT:    -5.751      4.941      6.781
REMARK INTER + INTRA:          -7.707
REMARK INTER:                  -6.910
REMARK INTRA:                  -0.797
REMARK UNBOUND:                -0.611
REMARK  Name = 
REMARK  4 active torsions:
REMARK  status: ('A' for Active; 'I' for Inactive)
REMARK    1  A    between atoms: C_2  and  C_3
REMARK    2  A    between atoms: C_7  and  C_8
REMARK    3  A    between atoms: C_8  and  N_9
REMARK    4  A    between atoms: C_10  and  C_12
REMARK                            x       y       z     vdW  Elec       q    Type
REMARK                         _______ _______ _______ _____ _____    ______ ____
ROOT
ATOM      1  N   UNL     1      46.519   4.769  14.837  0.00  0.00    +0.000 N 
ATOM      2  C   UNL     1      47.416   3.919  15.437  0.00  0.00    +0.000 C 
ATOM      3  O   UNL     1      47.743   2.846  14.940  0.00  0.00    +0.000 OA
ATOM      4  H   UNL     1      46.058   5.464  15.415  0.00  0.00    +0.000 HD
ENDROOT
BRANCH   2   5
ATOM      5  C   UNL     1      48.026   4.405  16.681  0.00  0.00    +0.000 A 
ATOM      6  C   UNL     1      47.814   3.728  17.876  0.00  0.00    +0.000 A 
ATOM      7  S   UNL     1      48.628   4.422  19.206  0.00  0.00    +0.000 S 
ATOM      8  C   UNL     1      49.256   5.674  18.240  0.00  0.00    +0.000 A 
ATOM      9  N   UNL     1      50.033   6.655  18.776  0.00  0.00    +0.000 NA
ATOM     10  C   UNL     1      50.418   7.552  17.930  0.00  0.00    +0.000 A 
ATOM     11  N   UNL     1      50.106   7.553  16.595  0.00  0.00    +0.000 N 
ATOM     12  C   UNL     1      49.359   6.563  16.001  0.00  0.00    +0.000 A 
ATOM     13  O   UNL     1      49.160   6.555  14.794  0.00  0.00    +0.000 OA
ATOM     14  C   UNL     1      48.876   5.547  16.916  0.00  0.00    +0.000 A 
ATOM     15  H   UNL     1      50.458   8.272  15.980  0.00  0.00    +0.000 HD
ENDBRANCH   2   5
BRANCH   1  16
ATOM     16  C   UNL     1      45.858   4.437  13.597  0.00  0.00    +0.000 C 
BRANCH  16  21
ATOM     17  C   UNL     1      45.793   7.990  12.197  0.00  0.00    +0.000 A 
ATOM     18  C   UNL     1      44.644   7.967  11.403  0.00  0.00    +0.000 A 
ATOM     19  C   UNL     1      43.871   6.807  11.339  0.00  0.00    +0.000 A 
ATOM     20  C   UNL     1      44.245   5.672  12.066  0.00  0.00    +0.000 A 
ATOM     21  C   UNL     1      45.403   5.675  12.854  0.00  0.00    +0.000 A 
ATOM     22  C   UNL     1      46.172   6.849  12.913  0.00  0.00    +0.000 A 
BRANCH  17  24
ATOM     23  N   UNL     1      47.225  10.147  12.354  0.00  0.00    +0.000 NA
ATOM     24  C   UNL     1      46.585   9.183  12.278  0.00  0.00    +0.000 C 
ENDBRANCH  17  24
ENDBRANCH  16  21
ENDBRANCH   1  16
TORSDOF 4
ENDMDL
