MODEL 1
REMARK VINA RESULT:    -7.468      0.000      0.000
REMARK INTER + INTRA:          -9.753
REMARK INTER:                  -9.214
REMARK INTRA:                  -0.538
REMARK UNBOUND:                -0.538
REMARK  Name = 
REMARK  4 active torsions:
REMARK  status: ('A' for Active; 'I' for Inactive)
REMARK    1  A    between atoms: C_3  and  C_4
REMARK    2  A    between atoms: C_4  and  N_5
REMARK    3  A    between atoms: N_5  and  C_6
REMARK    4  A    between atoms: C_13  and  N_14
REMARK                            x       y       z     vdW  Elec       q    Type
REMARK                         _______ _______ _______ _____ _____    ______ ____
ROOT
ATOM      1  C   UNL     1      43.396   5.828  11.907  0.00  0.00    +0.000 A 
ATOM      2  C   UNL     1      43.304   4.835  10.933  0.00  0.00    +0.000 A 
ATOM      3  C   UNL     1      44.301   3.860  10.841  0.00  0.00    +0.000 A 
ATOM      4  C   UNL     1      45.365   3.882  11.762  0.00  0.00    +0.000 A 
ATOM      5  C   UNL     1      45.504   4.893  12.725  0.00  0.00    +0.000 A 
ATOM      6  C   UNL     1      44.488   5.856  12.780  0.00  0.00    +0.000 A 
ENDROOT
BRANCH   5   7
ATOM      7  N   UNL     1      46.631   4.963  13.513  0.00  0.00    +0.000 N 
ATOM      8  C   UNL     1      46.997   3.896  14.452  0.00  0.00    +0.000 C 
ATOM      9  C   UNL     1      47.489   4.547  15.758  0.00  0.00    +0.000 C 
ATOM     10  O   UNL     1      48.592   5.438  15.519  0.00  0.00    +0.000 OA
ATOM     11  C   UNL     1      48.200   6.492  14.620  0.00  0.00    +0.000 C 
ATOM     12  C   UNL     1      47.701   5.942  13.272  0.00  0.00    +0.000 C 
ENDBRANCH   5   7
BRANCH   3  13
ATOM     13  C   UNL     1      44.276   2.814   9.754  0.00  0.00    +0.000 C 
BRANCH  13  14
ATOM     14  N   UNL     1      44.804   3.370   8.514  0.00  0.00    +0.000 N 
ATOM     15  H   UNL     1      44.928   4.378   8.577  0.00  0.00    +0.000 HD
BRANCH  14  16
ATOM     16  C   UNL     1      45.892   2.733   7.903  0.00  0.00    +0.000 A 
ATOM     17  C   UNL     1      46.242   1.404   8.152  0.00  0.00    +0.000 A 
ATOM     18  C   UNL     1      47.288   0.832   7.438  0.00  0.00    +0.000 A 
ATOM     19  N   UNL     1      47.993   1.475   6.490  0.00  0.00    +0.000 NA
ATOM     20  C   UNL     1      47.617   2.743   6.229  0.00  0.00    +0.000 A 
ATOM     21  C   UNL     1      46.583   3.395   6.887  0.00  0.00    +0.000 A 
ENDBRANCH  14  16
ENDBRANCH  13  14
ENDBRANCH   3  13
TORSDOF 4
ENDMDL
MODEL 2
REMARK VINA RESULT:    -7.353      2.081      2.623
REMARK INTER + INTRA:          -9.611
REMARK INTER:                  -9.031
REMARK INTRA:                  -0.580
REMARK UNBOUND:                -0.538
REMARK  Name = 
REMARK  4 active torsions:
REMARK  status: ('A' for Active; 'I' for Inactive)
REMARK    1  A    between atoms: C_3  and  C_4
REMARK    2  A    between atoms: C_4  and  N_5
REMARK    3  A    between atoms: N_5  and  C_6
REMARK    4  A    between atoms: C_13  and  N_14
REMARK                            x       y       z     vdW  Elec       q    Type
REMARK                         _______ _______ _______ _____ _____    ______ ____
ROOT
ATOM      1  C   UNL     1      43.244   4.181  12.915  0.00  0.00    +0.000 A 
ATOM      2  C   UNL     1      43.358   3.272  11.866  0.00  0.00    +0.000 A 
ATOM      3  C   UNL     1      44.257   3.522  10.825  0.00  0.00    +0.000 A 
ATOM      4  C   UNL     1      45.057   4.678  10.878  0.00  0.00    +0.000 A 
ATOM      5  C   UNL     1      44.934   5.630  11.902  0.00  0.00    +0.000 A 
ATOM      6  C   UNL     1      44.017   5.346  12.922  0.00  0.00    +0.000 A 
ENDROOT
BRANCH   5   7
ATOM      7  N   UNL     1      45.631   6.817  11.845  0.00  0.00    +0.000 N 
ATOM      8  C   UNL     1      47.087   6.862  11.670  0.00  0.00    +0.000 C 
ATOM      9  C   UNL     1      47.655   7.945  12.605  0.00  0.00    +0.000 C 
ATOM     10  O   UNL     1      47.056   9.228  12.348  0.00  0.00    +0.000 OA
ATOM     11  C   UNL     1      45.633   9.166  12.556  0.00  0.00    +0.000 C 
ATOM     12  C   UNL     1      44.966   8.113  11.653  0.00  0.00    +0.000 C 
ENDBRANCH   5   7
BRANCH   3  13
ATOM     13  C   UNL     1      44.354   2.600   9.635  0.00  0.00    +0.000 C 
BRANCH  13  14
ATOM     14  N   UNL     1      44.894   3.320   8.489  0.00  0.00    +0.000 N 
ATOM     15  H   UNL     1      45.131   4.280   8.726  0.00  0.00    +0.000 HD
BRANCH  14  16
ATOM     16  C   UNL     1      45.880   2.700   7.711  0.00  0.00    +0.000 A 
ATOM     17  C   UNL     1      46.554   3.342   6.669  0.00  0.00    +0.000 A 
ATOM     18  C   UNL     1      47.574   2.673   6.006  0.00  0.00    +0.000 A 
ATOM     19  N   UNL     1      47.982   1.429   6.312  0.00  0.00    +0.000 NA
ATOM     20  C   UNL     1      47.353   0.836   7.347  0.00  0.00    +0.000 A 
ATOM     21  C   UNL     1      46.328   1.427   8.070  0.00  0.00    +0.000 A 
ENDBRANCH  14  16
ENDBRANCH  13  14
ENDBRANCH   3  13
TORSDOF 4
ENDMDL
MODEL 3
REMARK VINA RESULT:    -7.190      1.583      2.316
REMARK INTER + INTRA:          -9.410
REMARK INTER:                  -8.842
REMARK INTRA:                  -0.568
REMARK UNBOUND:                -0.538
REMARK  Name = 
REMARK  4 active torsions:
REMARK  status: ('A' for Active; 'I' for Inactive)
REMARK    1  A    between atoms: C_3  and  C_4
REMARK    2  A    between atoms: C_4  and  N_5
REMARK    3  A    between atoms: N_5  and  C_6
REMARK    4  A    between atoms: C_13  and  N_14
REMARK                            x       y       z     vdW  Elec       q    Type
REMARK                         _______ _______ _______ _____ _____    ______ ____
ROOT
ATOM      1  C   UNL     1      43.086   5.068  12.452  0.00  0.00    +0.000 A 
ATOM      2  C   UNL     1      43.129   4.529  11.168  0.00  0.00    +0.000 A 
ATOM      3  C   UNL     1      44.275   4.691  10.384  0.00  0.00    +0.000 A 
ATOM      4  C   UNL     1      45.381   5.371  10.927  0.00  0.00    +0.000 A 
ATOM      5  C   UNL     1      45.351   5.959  12.201  0.00  0.00    +0.000 A 
ATOM      6  C   UNL     1      44.181   5.780  12.951  0.00  0.00    +0.000 A 
ENDROOT
BRANCH   5   7
ATOM      7  N   UNL     1      46.398   6.738  12.640  0.00  0.00    +0.000 N 
ATOM      8  C   UNL     1      46.231   8.156  12.978  0.00  0.00    +0.000 C 
ATOM      9  C   UNL     1      47.440   8.933  12.426  0.00  0.00    +0.000 C 
ATOM     10  O   UNL     1      48.679   8.413  12.940  0.00  0.00    +0.000 OA
ATOM     11  C   UNL     1      48.834   7.030  12.569  0.00  0.00    +0.000 C 
ATOM     12  C   UNL     1      47.674   6.162  13.088  0.00  0.00    +0.000 C 
ENDBRANCH   5   7
BRANCH   3  13
ATOM     13  C   UNL     1      44.331   4.187   8.964  0.00  0.00    +0.000 C 
BRANCH  13  14
ATOM     14  N   UNL     1      44.707   2.780   8.947  0.00  0.00    +0.000 N 
ATOM     15  H   UNL     1      43.896   2.175   8.841  0.00  0.00    +0.000 HD
BRANCH  14  16
ATOM     16  C   UNL     1      45.782   2.382   8.140  0.00  0.00    +0.000 A 
ATOM     17  C   UNL     1      46.607   3.281   7.462  0.00  0.00    +0.000 A 
ATOM     18  C   UNL     1      47.698   2.798   6.751  0.00  0.00    +0.000 A 
ATOM     19  N   UNL     1      48.035   1.498   6.681  0.00  0.00    +0.000 NA
ATOM     20  C   UNL     1      47.256   0.644   7.375  0.00  0.00    +0.000 A 
ATOM     21  C   UNL     1      46.150   1.035   8.116  0.00  0.00    +0.000 A 
ENDBRANCH  14  16
ENDBRANCH  13  14
ENDBRANCH   3  13
TORSDOF 4
ENDMDL
MODEL 4
REMARK VINA RESULT:    -6.737      2.643      6.186
REMARK INTER + INTRA:          -8.851
REMARK INTER:                  -8.013
REMARK INTRA:                  -0.837
REMARK UNBOUND:                -0.538
REMARK  Name = 
REMARK  4 active torsions:
REMARK  status: ('A' for Active; 'I' for Inactive)
REMARK    1  A    between atoms: C_3  and  C_4
REMARK    2  A    between atoms: C_4  and  N_5
REMARK    3  A    between atoms: N_5  and  C_6
REMARK    4  A    between atoms: C_13  and  N_14
REMARK                            x       y       z     vdW  Elec       q    Type
REMARK                         _______ _______ _______ _____ _____    ______ ____
ROOT
ATOM      1  C   UNL     1      43.358   2.758  11.794  0.00  0.00    +0.000 A 
ATOM      2  C   UNL     1      43.266   4.127  12.034  0.00  0.00    +0.000 A 
ATOM      3  C   UNL     1      43.780   5.032  11.101  0.00  0.00    +0.000 A 
ATOM      4  C   UNL     1      44.353   4.537   9.914  0.00  0.00    +0.000 A 
ATOM      5  C   UNL     1      44.495   3.163   9.666  0.00  0.00    +0.000 A 
ATOM      6  C   UNL     1      43.974   2.290  10.630  0.00  0.00    +0.000 A 
ENDROOT
BRANCH   5   7
ATOM      7  N   UNL     1      45.189   2.717   8.563  0.00  0.00    +0.000 N 
ATOM      8  C   UNL     1      45.464   1.294   8.335  0.00  0.00    +0.000 C 
ATOM      9  C   UNL     1      46.910   1.155   7.823  0.00  0.00    +0.000 C 
ATOM     10  O   UNL     1      47.122   1.929   6.629  0.00  0.00    +0.000 OA
ATOM     11  C   UNL     1      46.875   3.324   6.886  0.00  0.00    +0.000 C 
ATOM     12  C   UNL     1      45.443   3.570   7.394  0.00  0.00    +0.000 C 
ENDBRANCH   5   7
BRANCH   3  13
ATOM     13  C   UNL     1      43.767   6.518  11.359  0.00  0.00    +0.000 C 
BRANCH  13  14
ATOM     14  N   UNL     1      44.367   6.805  12.656  0.00  0.00    +0.000 N 
ATOM     15  H   UNL     1      43.831   6.394  13.417  0.00  0.00    +0.000 HD
BRANCH  14  16
ATOM     16  C   UNL     1      45.747   6.622  12.811  0.00  0.00    +0.000 A 
ATOM     17  C   UNL     1      46.305   5.595  13.577  0.00  0.00    +0.000 A 
ATOM     18  C   UNL     1      47.685   5.444  13.608  0.00  0.00    +0.000 A 
ATOM     19  N   UNL     1      48.543   6.220  12.923  0.00  0.00    +0.000 NA
ATOM     20  C   UNL     1      47.991   7.179  12.153  0.00  0.00    +0.000 A 
ATOM     21  C   UNL     1      46.625   7.403  12.057  0.00  0.00    +0.000 A 
ENDBRANCH  14  16
ENDBRANCH  13  14
ENDBRANCH   3  13
TORSDOF 4
ENDMDL
MODEL 5
REMARK VINA RESULT:    -6.479      1.577      2.449
REMARK INTER + INTRA:          -8.533
REMARK INTER:                  -7.966
REMARK INTRA:                  -0.567
REMARK UNBOUND:                -0.538
REMARK  Name = 
REMARK  4 active torsions:
REMARK  status: ('A' for Active; 'I' for Inactive)
REMARK    1  A    between atoms: C_3  and  C_4
REMARK    2  A    between atoms: C_4  and  N_5
REMARK    3  A    between atoms: N_5  and  C_6
REMARK    4  A    between atoms: C_13  and  N_14
REMARK                            x       y       z     vdW  Elec       q    Type
REMARK                         _______ _______ _______ _____ _____    ______ ____
ROOT
ATOM      1  C   UNL     1      47.069   6.876  12.324  0.00  0.00    +0.000 A 
ATOM      2  C   UNL     1      46.066   6.127  11.712  0.00  0.00    +0.000 A 
ATOM      3  C   UNL     1      45.546   5.003  12.359  0.00  0.00    +0.000 A 
ATOM      4  C   UNL     1      46.027   4.668  13.638  0.00  0.00    +0.000 A 
ATOM      5  C   UNL     1      47.065   5.380  14.260  0.00  0.00    +0.000 A 
ATOM      6  C   UNL     1      47.563   6.496  13.575  0.00  0.00    +0.000 A 
ENDROOT
BRANCH   5   7
ATOM      7  N   UNL     1      47.607   4.938  15.446  0.00  0.00    +0.000 N 
ATOM      8  C   UNL     1      47.533   3.534  15.866  0.00  0.00    +0.000 C 
ATOM      9  C   UNL     1      47.210   3.493  17.371  0.00  0.00    +0.000 C 
ATOM     10  O   UNL     1      48.186   4.220  18.138  0.00  0.00    +0.000 OA
ATOM     11  C   UNL     1      48.217   5.600  17.730  0.00  0.00    +0.000 C 
ATOM     12  C   UNL     1      48.546   5.749  16.234  0.00  0.00    +0.000 C 
ENDBRANCH   5   7
BRANCH   3  13
ATOM     13  C   UNL     1      44.513   4.124  11.696  0.00  0.00    +0.000 C 
BRANCH  13  14
ATOM     14  N   UNL     1      44.416   4.450  10.279  0.00  0.00    +0.000 N 
ATOM     15  H   UNL     1      44.494   5.451  10.118  0.00  0.00    +0.000 HD
BRANCH  14  16
ATOM     16  C   UNL     1      45.166   3.698   9.365  0.00  0.00    +0.000 A 
ATOM     17  C   UNL     1      45.185   2.301   9.352  0.00  0.00    +0.000 A 
ATOM     18  C   UNL     1      45.894   1.642   8.357  0.00  0.00    +0.000 A 
ATOM     19  N   UNL     1      46.566   2.264   7.372  0.00  0.00    +0.000 NA
ATOM     20  C   UNL     1      46.505   3.611   7.371  0.00  0.00    +0.000 A 
ATOM     21  C   UNL     1      45.818   4.355   8.320  0.00  0.00    +0.000 A 
ENDBRANCH  14  16
ENDBRANCH  13  14
ENDBRANCH   3  13
TORSDOF 4
ENDMDL
MODEL 6
REMARK VINA RESULT:    -6.475      2.734      6.488
REMARK INTER + INTRA:          -8.527
REMARK INTER:                  -7.904
REMARK INTRA:                  -0.624
REMARK UNBOUND:                -0.538
REMARK  Name = 
REMARK  4 active torsions:
REMARK  status: ('A' for Active; 'I' for Inactive)
REMARK    1  A    between atoms: C_3  and  C_4
REMARK    2  A    between atoms: C_4  and  N_5
REMARK    3  A    between atoms: N_5  and  C_6
REMARK    4  A    between atoms: C_13  and  N_14
REMARK                            x       y       z     vdW  Elec       q    Type
REMARK                         _______ _______ _______ _____ _____    ______ ____
ROOT
ATOM      1  C   UNL     1      43.531   3.314  12.431  0.00  0.00    +0.000 A 
ATOM      2  C   UNL     1      43.952   4.569  12.865  0.00  0.00    +0.000 A 
ATOM      3  C   UNL     1      44.736   5.367  12.027  0.00  0.00    +0.000 A 
ATOM      4  C   UNL     1      45.055   4.896  10.740  0.00  0.00    +0.000 A 
ATOM      5  C   UNL     1      44.679   3.620  10.293  0.00  0.00    +0.000 A 
ATOM      6  C   UNL     1      43.901   2.849  11.166  0.00  0.00    +0.000 A 
ENDROOT
BRANCH   5   7
ATOM      7  N   UNL     1      45.131   3.138   9.084  0.00  0.00    +0.000 N 
ATOM      8  C   UNL     1      45.145   1.705   8.770  0.00  0.00    +0.000 C 
ATOM      9  C   UNL     1      46.465   1.379   8.045  0.00  0.00    +0.000 C 
ATOM     10  O   UNL     1      46.625   2.179   6.860  0.00  0.00    +0.000 OA
ATOM     11  C   UNL     1      46.639   3.578   7.198  0.00  0.00    +0.000 C 
ATOM     12  C   UNL     1      45.350   4.008   7.920  0.00  0.00    +0.000 C 
ENDBRANCH   5   7
BRANCH   3  13
ATOM     13  C   UNL     1      45.273   6.699  12.489  0.00  0.00    +0.000 C 
BRANCH  13  14
ATOM     14  N   UNL     1      46.264   6.500  13.540  0.00  0.00    +0.000 N 
ATOM     15  H   UNL     1      46.277   5.536  13.865  0.00  0.00    +0.000 HD
BRANCH  14  16
ATOM     16  C   UNL     1      47.550   7.023  13.357  0.00  0.00    +0.000 A 
ATOM     17  C   UNL     1      48.501   7.098  14.377  0.00  0.00    +0.000 A 
ATOM     18  C   UNL     1      49.778   7.557  14.082  0.00  0.00    +0.000 A 
ATOM     19  N   UNL     1      50.181   7.927  12.853  0.00  0.00    +0.000 NA
ATOM     20  C   UNL     1      49.267   7.810  11.869  0.00  0.00    +0.000 A 
ATOM     21  C   UNL     1      47.970   7.357  12.067  0.00  0.00    +0.000 A 
ENDBRANCH  14  16
ENDBRANCH  13  14
ENDBRANCH   3  13
TORSDOF 4
ENDMDL
MODEL 7
REMARK VINA RESULT:    -6.428      3.273      4.392
REMARK INTER + INTRA:          -8.470
REMARK INTER:                  -7.740
REMARK INTRA:                  -0.730
REMARK UNBOUND:                -0.538
REMARK  Name = 
REMARK  4 active torsions:
REMARK  status: ('A' for Active; 'I' for Inactive)
REMARK    1  A    between atoms: C_3  and  C_4
REMARK    2  A    between atoms: C_4  and  N_5
REMARK    3  A    between atoms: N_5  and  C_6
REMARK    4  A    between atoms: C_13  and  N_14
REMARK                            x       y       z     vdW  Elec       q    Type
REMARK                         _______ _______ _______ _____ _____    ______ ____
ROOT
ATOM      1  C   UNL     1      46.645   5.919  12.715  0.00  0.00    +0.000 A 
ATOM      2  C   UNL     1      45.925   4.855  12.176  0.00  0.00    +0.000 A 
ATOM      3  C   UNL     1      44.814   5.107  11.366  0.00  0.00    +0.000 A 
ATOM      4  C   UNL     1      44.465   6.441  11.084  0.00  0.00    +0.000 A 
ATOM      5  C   UNL     1      45.146   7.531  11.646  0.00  0.00    +0.000 A 
ATOM      6  C   UNL     1      46.250   7.235  12.458  0.00  0.00    +0.000 A 
ENDROOT
BRANCH   5   7
ATOM      7  N   UNL     1      44.688   8.816  11.462  0.00  0.00    +0.000 N 
ATOM      8  C   UNL     1      43.389   9.103  10.842  0.00  0.00    +0.000 C 
ATOM      9  C   UNL     1      43.562  10.294   9.882  0.00  0.00    +0.000 C 
ATOM     10  O   UNL     1      44.085  11.448  10.564  0.00  0.00    +0.000 OA
ATOM     11  C   UNL     1      45.372  11.151  11.136  0.00  0.00    +0.000 C 
ATOM     12  C   UNL     1      45.303   9.975  12.126  0.00  0.00    +0.000 C 
ENDBRANCH   5   7
BRANCH   3  13
ATOM     13  C   UNL     1      43.966   3.983  10.826  0.00  0.00    +0.000 C 
BRANCH  13  14
ATOM     14  N   UNL     1      43.928   4.040   9.371  0.00  0.00    +0.000 N 
ATOM     15  H   UNL     1      43.746   4.984   9.037  0.00  0.00    +0.000 HD
BRANCH  14  16
ATOM     16  C   UNL     1      44.942   3.400   8.647  0.00  0.00    +0.000 A 
ATOM     17  C   UNL     1      45.847   4.079   7.828  0.00  0.00    +0.000 A 
ATOM     18  C   UNL     1      46.871   3.370   7.213  0.00  0.00    +0.000 A 
ATOM     19  N   UNL     1      47.069   2.048   7.367  0.00  0.00    +0.000 NA
ATOM     20  C   UNL     1      46.216   1.412   8.193  0.00  0.00    +0.000 A 
ATOM     21  C   UNL     1      45.168   2.038   8.854  0.00  0.00    +0.000 A 
ENDBRANCH  14  16
ENDBRANCH  13  14
ENDBRANCH   3  13
TORSDOF 4
ENDMDL
MODEL 8
REMARK VINA RESULT:    -6.378      3.492      6.990
REMARK INTER + INTRA:          -8.408
REMARK INTER:                  -7.924
REMARK INTRA:                  -0.484
REMARK UNBOUND:                -0.538
REMARK  Name = 
REMARK  4 active torsions:
REMARK  status: ('A' for Active; 'I' for Inactive)
REMARK    1  A    between atoms: C_3  and  C_4
REMARK    2  A    between atoms: C_4  and  N_5
REMARK    3  A    between atoms: N_5  and  C_6
REMARK    4  A    between atoms: C_13  and  N_14
REMARK                            x       y       z     vdW  Elec       q    Type
REMARK                         _______ _______ _______ _____ _____    ______ ____
ROOT
ATOM      1  C   UNL     1      43.455   3.353  12.435  0.00  0.00    +0.000 A 
ATOM      2  C   UNL     1      44.057   4.485  12.979  0.00  0.00    +0.000 A 
ATOM      3  C   UNL     1      44.999   5.198  12.232  0.00  0.00    +0.000 A 
ATOM      4  C   UNL     1      45.295   4.772  10.923  0.00  0.00    +0.000 A 
ATOM      5  C   UNL     1      44.735   3.613  10.366  0.00  0.00    +0.000 A 
ATOM      6  C   UNL     1      43.801   2.923  11.150  0.00  0.00    +0.000 A 
ENDROOT
BRANCH   5   7
ATOM      7  N   UNL     1      45.156   3.149   9.139  0.00  0.00    +0.000 N 
ATOM      8  C   UNL     1      45.136   1.723   8.793  0.00  0.00    +0.000 C 
ATOM      9  C   UNL     1      46.436   1.389   8.038  0.00  0.00    +0.000 C 
ATOM     10  O   UNL     1      46.591   2.211   6.868  0.00  0.00    +0.000 OA
ATOM     11  C   UNL     1      46.639   3.602   7.237  0.00  0.00    +0.000 C 
ATOM     12  C   UNL     1      45.371   4.040   7.991  0.00  0.00    +0.000 C 
ENDBRANCH   5   7
BRANCH   3  13
ATOM     13  C   UNL     1      45.727   6.384  12.814  0.00  0.00    +0.000 C 
BRANCH  13  14
ATOM     14  N   UNL     1      44.879   7.568  12.757  0.00  0.00    +0.000 N 
ATOM     15  H   UNL     1      44.297   7.653  13.587  0.00  0.00    +0.000 HD
BRANCH  14  16
ATOM     16  C   UNL     1      45.454   8.787  12.378  0.00  0.00    +0.000 A 
ATOM     17  C   UNL     1      44.710   9.883  11.935  0.00  0.00    +0.000 A 
ATOM     18  C   UNL     1      45.361  11.078  11.658  0.00  0.00    +0.000 A 
ATOM     19  N   UNL     1      46.684  11.267  11.805  0.00  0.00    +0.000 NA
ATOM     20  C   UNL     1      47.385  10.216  12.275  0.00  0.00    +0.000 A 
ATOM     21  C   UNL     1      46.821   8.986  12.583  0.00  0.00    +0.000 A 
ENDBRANCH  14  16
ENDBRANCH  13  14
ENDBRANCH   3  13
TORSDOF 4
ENDMDL
MODEL 9
REMARK VINA RESULT:    -6.341      2.696      7.331
REMARK INTER + INTRA:          -8.363
REMARK INTER:                  -7.954
REMARK INTRA:                  -0.408
REMARK UNBOUND:                -0.538
REMARK  Name = 
REMARK  4 active torsions:
REMARK  status: ('A' for Active; 'I' for Inactive)
REMARK    1  A    between atoms: C_3  and  C_4
REMARK    2  A    between atoms: C_4  and  N_5
REMARK    3  A    between atoms: N_5  and  C_6
REMARK    4  A    between atoms: C_13  and  N_14
REMARK                            x       y       z     vdW  Elec       q    Type
REMARK                         _______ _______ _______ _____ _____    ______ ____
ROOT
ATOM      1  C   UNL     1      43.082   4.730  12.384  0.00  0.00    +0.000 A 
ATOM      2  C   UNL     1      44.108   5.033  13.277  0.00  0.00    +0.000 A 
ATOM      3  C   UNL     1      45.440   4.867  12.888  0.00  0.00    +0.000 A 
ATOM      4  C   UNL     1      45.718   4.425  11.581  0.00  0.00    +0.000 A 
ATOM      5  C   UNL     1      44.705   4.073  10.675  0.00  0.00    +0.000 A 
ATOM      6  C   UNL     1      43.384   4.248  11.107  0.00  0.00    +0.000 A 
ENDROOT
BRANCH   5   7
ATOM      7  N   UNL     1      45.016   3.510   9.458  0.00  0.00    +0.000 N 
ATOM      8  C   UNL     1      44.748   2.099   9.157  0.00  0.00    +0.000 C 
ATOM      9  C   UNL     1      45.956   1.527   8.393  0.00  0.00    +0.000 C 
ATOM     10  O   UNL     1      46.223   2.277   7.195  0.00  0.00    +0.000 OA
ATOM     11  C   UNL     1      46.514   3.650   7.518  0.00  0.00    +0.000 C 
ATOM     12  C   UNL     1      45.355   4.318   8.278  0.00  0.00    +0.000 C 
ENDBRANCH   5   7
BRANCH   3  13
ATOM     13  C   UNL     1      46.575   5.112  13.851  0.00  0.00    +0.000 C 
BRANCH  13  14
ATOM     14  N   UNL     1      46.578   4.090  14.889  0.00  0.00    +0.000 N 
ATOM     15  H   UNL     1      46.625   3.153  14.494  0.00  0.00    +0.000 HD
BRANCH  14  16
ATOM     16  C   UNL     1      47.433   4.253  15.988  0.00  0.00    +0.000 A 
ATOM     17  C   UNL     1      48.192   5.405  16.206  0.00  0.00    +0.000 A 
ATOM     18  C   UNL     1      48.949   5.509  17.366  0.00  0.00    +0.000 A 
ATOM     19  N   UNL     1      48.991   4.567  18.325  0.00  0.00    +0.000 NA
ATOM     20  C   UNL     1      48.221   3.479  18.123  0.00  0.00    +0.000 A 
ATOM     21  C   UNL     1      47.430   3.289  16.999  0.00  0.00    +0.000 A 
ENDBRANCH  14  16
ENDBRANCH  13  14
ENDBRANCH   3  13
TORSDOF 4
ENDMDL
