MODEL 1
REMARK VINA RESULT:    -8.351      0.000      0.000
REMARK INTER + INTRA:         -12.995
REMARK INTER:                 -12.257
REMARK INTRA:                  -0.738
REMARK UNBOUND:                -0.738
REMARK  Name = 
REMARK  9 active torsions:
REMARK  status: ('A' for Active; 'I' for Inactive)
REMARK    1  A    between atoms: C_1  and  C_2
REMARK    2  A    between atoms: C_2  and  C_3
REMARK    3  A    between atoms: C_2  and  C_26
REMARK    4  A    between atoms: C_3  and  N_4
REMARK    5  A    between atoms: N_4  and  C_5
REMARK    6  A    between atoms: C_5  and  C_6
REMARK    7  A    between atoms: C_9  and  C_10
REMARK    8  A    between atoms: C_10  and  N_11
REMARK    9  A    between atoms: C_12  and  C_14
REMARK                            x       y       z     vdW  Elec       q    Type
REMARK                         _______ _______ _______ _____ _____    ______ ____
ROOT
ATOM      1  C   UNL     1      44.741   5.560  11.948  0.00  0.00    +0.000 A 
ATOM      2  C   UNL     1      45.469   6.706  11.587  0.00  0.00    +0.000 A 
ATOM      3  C   UNL     1      46.653   7.051  12.242  0.00  0.00    +0.000 A 
ATOM      4  C   UNL     1      47.156   6.237  13.263  0.00  0.00    +0.000 A 
ATOM      5  C   UNL     1      46.445   5.084  13.619  0.00  0.00    +0.000 A 
ATOM      6  C   UNL     1      45.253   4.743  12.965  0.00  0.00    +0.000 A 
ENDROOT
BRANCH   1   7
ATOM      7  C   UNL     1      43.422   5.192  11.290  0.00  0.00    +0.000 C 
BRANCH   7   8
ATOM      8  N   UNL     1      43.535   5.120   9.832  0.00  0.00    +0.000 NA
ATOM      9  H   UNL     1      42.762   4.545   9.501  0.00  0.00    +0.000 HD
BRANCH   8  10
ATOM     10  C   UNL     1      44.789   4.504   9.392  0.00  0.00    +0.000 C 
BRANCH  10  12
ATOM     11  C   UNL     1      44.291   2.028   9.860  0.00  0.00    +0.000 C 
ATOM     12  C   UNL     1      44.528   3.105   8.792  0.00  0.00    +0.000 C 
BRANCH  12  13
ATOM     13  C   UNL     1      45.699   2.691   7.924  0.00  0.00    +0.000 A 
ATOM     14  C   UNL     1      46.122   3.500   6.873  0.00  0.00    +0.000 A 
ATOM     15  C   UNL     1      47.149   3.048   6.051  0.00  0.00    +0.000 A 
ATOM     16  C   UNL     1      47.728   1.810   6.300  0.00  0.00    +0.000 A 
ATOM     17  C   UNL     1      47.263   1.076   7.377  0.00  0.00    +0.000 A 
ATOM     18  N   UNL     1      46.273   1.491   8.192  0.00  0.00    +0.000 NA
ENDBRANCH  12  13
ENDBRANCH  10  12
ENDBRANCH   8  10
ENDBRANCH   7   8
ENDBRANCH   1   7
BRANCH   4  19
ATOM     19  C   UNL     1      48.413   6.614  13.999  0.00  0.00    +0.000 C 
BRANCH  19  20
ATOM     20  N   UNL     1      48.152   6.825  15.400  0.00  0.00    +0.000 N 
ATOM     21  C   UNL     1      49.098   6.543  16.352  0.00  0.00    +0.000 C 
ATOM     22  O   UNL     1      50.217   6.129  16.059  0.00  0.00    +0.000 OA
ATOM     23  H   UNL     1      47.178   6.900  15.678  0.00  0.00    +0.000 HD
BRANCH  21  24
ATOM     24  C   UNL     1      48.721   6.810  17.745  0.00  0.00    +0.000 A 
ATOM     25  C   UNL     1      48.409   8.105  18.140  0.00  0.00    +0.000 A 
ATOM     26  S   UNL     1      47.981   8.231  19.787  0.00  0.00    +0.000 S 
ATOM     27  C   UNL     1      48.240   6.568  20.040  0.00  0.00    +0.000 A 
ATOM     28  N   UNL     1      48.088   6.014  21.272  0.00  0.00    +0.000 NA
ATOM     29  C   UNL     1      48.342   4.750  21.324  0.00  0.00    +0.000 A 
ATOM     30  N   UNL     1      48.723   3.984  20.250  0.00  0.00    +0.000 N 
ATOM     31  C   UNL     1      48.856   4.496  18.982  0.00  0.00    +0.000 A 
ATOM     32  O   UNL     1      49.139   3.771  18.031  0.00  0.00    +0.000 OA
ATOM     33  C   UNL     1      48.612   5.920  18.874  0.00  0.00    +0.000 A 
ATOM     34  H   UNL     1      48.877   2.994  20.352  0.00  0.00    +0.000 HD
ENDBRANCH  21  24
ENDBRANCH  19  20
ENDBRANCH   4  19
TORSDOF 8
ENDMDL
MODEL 2
REMARK VINA RESULT:    -8.138      1.257      2.090
REMARK INTER + INTRA:         -12.681
REMARK INTER:                 -11.658
REMARK INTRA:                  -1.023
REMARK UNBOUND:                -0.738
REMARK  Name = 
REMARK  9 active torsions:
REMARK  status: ('A' for Active; 'I' for Inactive)
REMARK    1  A    between atoms: C_1  and  C_2
REMARK    2  A    between atoms: C_2  and  C_3
REMARK    3  A    between atoms: C_2  and  C_26
REMARK    4  A    between atoms: C_3  and  N_4
REMARK    5  A    between atoms: N_4  and  C_5
REMARK    6  A    between atoms: C_5  and  C_6
REMARK    7  A    between atoms: C_9  and  C_10
REMARK    8  A    between atoms: C_10  and  N_11
REMARK    9  A    between atoms: C_12  and  C_14
REMARK                            x       y       z     vdW  Elec       q    Type
REMARK                         _______ _______ _______ _____ _____    ______ ____
ROOT
ATOM      1  C   UNL     1      44.531   5.570  12.049  0.00  0.00    +0.000 A 
ATOM      2  C   UNL     1      45.115   4.689  12.975  0.00  0.00    +0.000 A 
ATOM      3  C   UNL     1      46.283   5.026  13.662  0.00  0.00    +0.000 A 
ATOM      4  C   UNL     1      46.885   6.273  13.459  0.00  0.00    +0.000 A 
ATOM      5  C   UNL     1      46.301   7.163  12.549  0.00  0.00    +0.000 A 
ATOM      6  C   UNL     1      45.132   6.820  11.856  0.00  0.00    +0.000 A 
ENDROOT
BRANCH   1   7
ATOM      7  C   UNL     1      43.293   5.206  11.248  0.00  0.00    +0.000 C 
BRANCH   7   8
ATOM      8  N   UNL     1      43.570   5.122   9.813  0.00  0.00    +0.000 NA
ATOM      9  H   UNL     1      42.804   4.599   9.392  0.00  0.00    +0.000 HD
BRANCH   8  10
ATOM     10  C   UNL     1      44.822   4.421   9.520  0.00  0.00    +0.000 C 
BRANCH  10  12
ATOM     11  C   UNL     1      44.275   1.930   9.835  0.00  0.00    +0.000 C 
ATOM     12  C   UNL     1      44.541   3.065   8.835  0.00  0.00    +0.000 C 
BRANCH  12  13
ATOM     13  C   UNL     1      45.711   2.681   7.952  0.00  0.00    +0.000 A 
ATOM     14  C   UNL     1      46.145   3.536   6.943  0.00  0.00    +0.000 A 
ATOM     15  C   UNL     1      47.171   3.114   6.104  0.00  0.00    +0.000 A 
ATOM     16  C   UNL     1      47.737   1.860   6.294  0.00  0.00    +0.000 A 
ATOM     17  C   UNL     1      47.261   1.080   7.333  0.00  0.00    +0.000 A 
ATOM     18  N   UNL     1      46.272   1.464   8.164  0.00  0.00    +0.000 NA
ENDBRANCH  12  13
ENDBRANCH  10  12
ENDBRANCH   8  10
ENDBRANCH   7   8
ENDBRANCH   1   7
BRANCH   4  19
ATOM     19  C   UNL     1      48.161   6.636  14.167  0.00  0.00    +0.000 C 
BRANCH  19  20
ATOM     20  N   UNL     1      48.037   6.454  15.591  0.00  0.00    +0.000 N 
ATOM     21  C   UNL     1      49.136   6.229  16.380  0.00  0.00    +0.000 C 
ATOM     22  O   UNL     1      50.275   6.204  15.922  0.00  0.00    +0.000 OA
ATOM     23  H   UNL     1      47.117   6.203  15.941  0.00  0.00    +0.000 HD
BRANCH  21  24
ATOM     24  C   UNL     1      48.885   6.070  17.817  0.00  0.00    +0.000 A 
ATOM     25  C   UNL     1      49.170   4.861  18.438  0.00  0.00    +0.000 A 
ATOM     26  S   UNL     1      48.832   4.856  20.111  0.00  0.00    +0.000 S 
ATOM     27  C   UNL     1      48.252   6.456  20.054  0.00  0.00    +0.000 A 
ATOM     28  N   UNL     1      47.758   7.061  21.166  0.00  0.00    +0.000 NA
ATOM     29  C   UNL     1      47.329   8.263  20.974  0.00  0.00    +0.000 A 
ATOM     30  N   UNL     1      47.361   8.921  19.769  0.00  0.00    +0.000 N 
ATOM     31  C   UNL     1      47.882   8.359  18.629  0.00  0.00    +0.000 A 
ATOM     32  O   UNL     1      47.952   8.997  17.581  0.00  0.00    +0.000 OA
ATOM     33  C   UNL     1      48.350   6.997  18.784  0.00  0.00    +0.000 A 
ATOM     34  H   UNL     1      47.037   9.871  19.692  0.00  0.00    +0.000 HD
ENDBRANCH  21  24
ENDBRANCH  19  20
ENDBRANCH   4  19
TORSDOF 8
ENDMDL
MODEL 3
REMARK VINA RESULT:    -8.032      2.910      3.661
REMARK INTER + INTRA:         -12.527
REMARK INTER:                 -11.314
REMARK INTRA:                  -1.212
REMARK UNBOUND:                -0.738
REMARK  Name = 
REMARK  9 active torsions:
REMARK  status: ('A' for Active; 'I' for Inactive)
REMARK    1  A    between atoms: C_1  and  C_2
REMARK    2  A    between atoms: C_2  and  C_3
REMARK    3  A    between atoms: C_2  and  C_26
REMARK    4  A    between atoms: C_3  and  N_4
REMARK    5  A    between atoms: N_4  and  C_5
REMARK    6  A    between atoms: C_5  and  C_6
REMARK    7  A    between atoms: C_9  and  C_10
REMARK    8  A    between atoms: C_10  and  N_11
REMARK    9  A    between atoms: C_12  and  C_14
REMARK                            x       y       z     vdW  Elec       q    Type
REMARK                         _______ _______ _______ _____ _____    ______ ____
ROOT
ATOM      1  C   UNL     1      46.563   6.038  12.644  0.00  0.00    +0.000 A 
ATOM      2  C   UNL     1      47.617   6.441  13.480  0.00  0.00    +0.000 A 
ATOM      3  C   UNL     1      47.876   5.791  14.689  0.00  0.00    +0.000 A 
ATOM      4  C   UNL     1      47.098   4.695  15.080  0.00  0.00    +0.000 A 
ATOM      5  C   UNL     1      46.054   4.276  14.245  0.00  0.00    +0.000 A 
ATOM      6  C   UNL     1      45.793   4.935  13.035  0.00  0.00    +0.000 A 
ENDROOT
BRANCH   1   7
ATOM      7  C   UNL     1      46.225   6.762  11.352  0.00  0.00    +0.000 C 
BRANCH   7   8
ATOM      8  N   UNL     1      45.223   6.042  10.563  0.00  0.00    +0.000 NA
ATOM      9  H   UNL     1      44.814   5.337  11.174  0.00  0.00    +0.000 HD
BRANCH   8  10
ATOM     10  C   UNL     1      45.800   5.366   9.400  0.00  0.00    +0.000 C 
BRANCH  10  12
ATOM     11  C   UNL     1      44.315   3.416  10.172  0.00  0.00    +0.000 C 
ATOM     12  C   UNL     1      44.925   4.165   8.978  0.00  0.00    +0.000 C 
BRANCH  12  13
ATOM     13  C   UNL     1      45.745   3.194   8.153  0.00  0.00    +0.000 A 
ATOM     14  C   UNL     1      45.808   1.847   8.501  0.00  0.00    +0.000 A 
ATOM     15  C   UNL     1      46.634   1.003   7.766  0.00  0.00    +0.000 A 
ATOM     16  C   UNL     1      47.368   1.520   6.705  0.00  0.00    +0.000 A 
ATOM     17  C   UNL     1      47.233   2.865   6.413  0.00  0.00    +0.000 A 
ATOM     18  N   UNL     1      46.438   3.705   7.105  0.00  0.00    +0.000 NA
ENDBRANCH  12  13
ENDBRANCH  10  12
ENDBRANCH   8  10
ENDBRANCH   7   8
ENDBRANCH   1   7
BRANCH   4  19
ATOM     19  C   UNL     1      47.344   4.006  16.394  0.00  0.00    +0.000 C 
BRANCH  19  20
ATOM     20  N   UNL     1      48.755   3.854  16.646  0.00  0.00    +0.000 N 
ATOM     21  C   UNL     1      49.334   4.355  17.783  0.00  0.00    +0.000 C 
ATOM     22  O   UNL     1      48.681   4.926  18.652  0.00  0.00    +0.000 OA
ATOM     23  H   UNL     1      49.342   3.639  15.846  0.00  0.00    +0.000 HD
BRANCH  21  24
ATOM     24  C   UNL     1      50.776   4.128  17.935  0.00  0.00    +0.000 A 
ATOM     25  C   UNL     1      51.602   5.174  18.326  0.00  0.00    +0.000 A 
ATOM     26  S   UNL     1      53.244   4.731  18.466  0.00  0.00    +0.000 S 
ATOM     27  C   UNL     1      52.914   3.138  17.966  0.00  0.00    +0.000 A 
ATOM     28  N   UNL     1      53.913   2.226  17.828  0.00  0.00    +0.000 NA
ATOM     29  C   UNL     1      53.524   1.066  17.417  0.00  0.00    +0.000 A 
ATOM     30  N   UNL     1      52.221   0.730  17.143  0.00  0.00    +0.000 N 
ATOM     31  C   UNL     1      51.178   1.610  17.301  0.00  0.00    +0.000 A 
ATOM     32  O   UNL     1      50.016   1.259  17.106  0.00  0.00    +0.000 OA
ATOM     33  C   UNL     1      51.565   2.938  17.731  0.00  0.00    +0.000 A 
ATOM     34  H   UNL     1      51.979  -0.204  16.854  0.00  0.00    +0.000 HD
ENDBRANCH  21  24
ENDBRANCH  19  20
ENDBRANCH   4  19
TORSDOF 8
ENDMDL
MODEL 4
REMARK VINA RESULT:    -7.820      1.799      2.964
REMARK INTER + INTRA:         -12.215
REMARK INTER:                 -10.900
REMARK INTRA:                  -1.315
REMARK UNBOUND:                -0.738
REMARK  Name = 
REMARK  9 active torsions:
REMARK  status: ('A' for Active; 'I' for Inactive)
REMARK    1  A    between atoms: C_1  and  C_2
REMARK    2  A    between atoms: C_2  and  C_3
REMARK    3  A    between atoms: C_2  and  C_26
REMARK    4  A    between atoms: C_3  and  N_4
REMARK    5  A    between atoms: N_4  and  C_5
REMARK    6  A    between atoms: C_5  and  C_6
REMARK    7  A    between atoms: C_9  and  C_10
REMARK    8  A    between atoms: C_10  and  N_11
REMARK    9  A    between atoms: C_12  and  C_14
REMARK                            x       y       z     vdW  Elec       q    Type
REMARK                         _______ _______ _______ _____ _____    ______ ____
ROOT
ATOM      1  C   UNL     1      46.188   5.608  12.090  0.00  0.00    +0.000 A 
ATOM      2  C   UNL     1      45.784   4.488  12.835  0.00  0.00    +0.000 A 
ATOM      3  C   UNL     1      46.338   4.208  14.086  0.00  0.00    +0.000 A 
ATOM      4  C   UNL     1      47.297   5.064  14.639  0.00  0.00    +0.000 A 
ATOM      5  C   UNL     1      47.695   6.192  13.910  0.00  0.00    +0.000 A 
ATOM      6  C   UNL     1      47.142   6.467  12.652  0.00  0.00    +0.000 A 
ENDROOT
BRANCH   1   7
ATOM      7  C   UNL     1      45.643   5.905  10.704  0.00  0.00    +0.000 C 
BRANCH   7   8
ATOM      8  N   UNL     1      44.450   5.112  10.400  0.00  0.00    +0.000 NA
ATOM      9  H   UNL     1      44.462   4.305  11.022  0.00  0.00    +0.000 HD
BRANCH   8  10
ATOM     10  C   UNL     1      44.430   4.629   9.018  0.00  0.00    +0.000 C 
BRANCH  10  12
ATOM     11  C   UNL     1      44.388   2.449  10.378  0.00  0.00    +0.000 C 
ATOM     12  C   UNL     1      44.418   3.085   8.980  0.00  0.00    +0.000 C 
BRANCH  12  13
ATOM     13  C   UNL     1      45.636   2.579   8.234  0.00  0.00    +0.000 A 
ATOM     14  C   UNL     1      46.368   3.433   7.413  0.00  0.00    +0.000 A 
ATOM     15  C   UNL     1      47.432   2.912   6.684  0.00  0.00    +0.000 A 
ATOM     16  C   UNL     1      47.740   1.562   6.795  0.00  0.00    +0.000 A 
ATOM     17  C   UNL     1      46.976   0.786   7.648  0.00  0.00    +0.000 A 
ATOM     18  N   UNL     1      45.943   1.264   8.369  0.00  0.00    +0.000 NA
ENDBRANCH  12  13
ENDBRANCH  10  12
ENDBRANCH   8  10
ENDBRANCH   7   8
ENDBRANCH   1   7
BRANCH   4  19
ATOM     19  C   UNL     1      47.926   4.758  15.971  0.00  0.00    +0.000 C 
BRANCH  19  20
ATOM     20  N   UNL     1      47.669   5.809  16.923  0.00  0.00    +0.000 N 
ATOM     21  C   UNL     1      48.577   6.122  17.900  0.00  0.00    +0.000 C 
ATOM     22  O   UNL     1      49.660   5.551  17.994  0.00  0.00    +0.000 OA
ATOM     23  H   UNL     1      46.702   6.098  17.035  0.00  0.00    +0.000 HD
BRANCH  21  24
ATOM     24  C   UNL     1      48.210   7.219  18.805  0.00  0.00    +0.000 A 
ATOM     25  C   UNL     1      48.019   6.965  20.157  0.00  0.00    +0.000 A 
ATOM     26  S   UNL     1      47.611   8.352  21.061  0.00  0.00    +0.000 S 
ATOM     27  C   UNL     1      47.632   9.333  19.670  0.00  0.00    +0.000 A 
ATOM     28  N   UNL     1      47.322  10.655  19.740  0.00  0.00    +0.000 NA
ATOM     29  C   UNL     1      47.352  11.271  18.607  0.00  0.00    +0.000 A 
ATOM     30  N   UNL     1      47.678  10.687  17.408  0.00  0.00    +0.000 N 
ATOM     31  C   UNL     1      48.030   9.364  17.297  0.00  0.00    +0.000 A 
ATOM     32  O   UNL     1      48.376   8.887  16.219  0.00  0.00    +0.000 OA
ATOM     33  C   UNL     1      47.982   8.618  18.538  0.00  0.00    +0.000 A 
ATOM     34  H   UNL     1      47.713  11.231  16.561  0.00  0.00    +0.000 HD
ENDBRANCH  21  24
ENDBRANCH  19  20
ENDBRANCH   4  19
TORSDOF 8
ENDMDL
MODEL 5
REMARK VINA RESULT:    -7.804      3.903      9.376
REMARK INTER + INTRA:         -12.192
REMARK INTER:                  -9.278
REMARK INTRA:                  -2.914
REMARK UNBOUND:                -0.738
REMARK  Name = 
REMARK  9 active torsions:
REMARK  status: ('A' for Active; 'I' for Inactive)
REMARK    1  A    between atoms: C_1  and  C_2
REMARK    2  A    between atoms: C_2  and  C_3
REMARK    3  A    between atoms: C_2  and  C_26
REMARK    4  A    between atoms: C_3  and  N_4
REMARK    5  A    between atoms: N_4  and  C_5
REMARK    6  A    between atoms: C_5  and  C_6
REMARK    7  A    between atoms: C_9  and  C_10
REMARK    8  A    between atoms: C_10  and  N_11
REMARK    9  A    between atoms: C_12  and  C_14
REMARK                            x       y       z     vdW  Elec       q    Type
REMARK                         _______ _______ _______ _____ _____    ______ ____
ROOT
ATOM      1  C   UNL     1      48.731   5.895  20.085  0.00  0.00    +0.000 A 
ATOM      2  C   UNL     1      47.431   6.064  19.579  0.00  0.00    +0.000 A 
ATOM      3  C   UNL     1      46.988   5.355  18.461  0.00  0.00    +0.000 A 
ATOM      4  C   UNL     1      47.831   4.431  17.833  0.00  0.00    +0.000 A 
ATOM      5  C   UNL     1      49.124   4.244  18.340  0.00  0.00    +0.000 A 
ATOM      6  C   UNL     1      49.568   4.962  19.459  0.00  0.00    +0.000 A 
ENDROOT
BRANCH   1   7
ATOM      7  C   UNL     1      49.256   6.694  21.265  0.00  0.00    +0.000 C 
BRANCH   7   8
ATOM      8  N   UNL     1      48.934   8.118  21.152  0.00  0.00    +0.000 NA
ATOM      9  H   UNL     1      48.061   8.186  20.632  0.00  0.00    +0.000 HD
BRANCH   8  10
ATOM     10  C   UNL     1      49.961   8.874  20.432  0.00  0.00    +0.000 C 
BRANCH  10  12
ATOM     11  C   UNL     1      47.865   9.726  19.215  0.00  0.00    +0.000 C 
ATOM     12  C   UNL     1      49.380   9.487  19.138  0.00  0.00    +0.000 C 
BRANCH  12  13
ATOM     13  C   UNL     1      49.679   8.582  17.960  0.00  0.00    +0.000 A 
ATOM     14  C   UNL     1      48.713   8.348  16.986  0.00  0.00    +0.000 A 
ATOM     15  C   UNL     1      48.999   7.450  15.962  0.00  0.00    +0.000 A 
ATOM     16  C   UNL     1      50.236   6.817  15.934  0.00  0.00    +0.000 A 
ATOM     17  C   UNL     1      51.147   7.121  16.930  0.00  0.00    +0.000 A 
ATOM     18  N   UNL     1      50.899   7.989  17.931  0.00  0.00    +0.000 NA
ENDBRANCH  12  13
ENDBRANCH  10  12
ENDBRANCH   8  10
ENDBRANCH   7   8
ENDBRANCH   1   7
BRANCH   4  19
ATOM     19  C   UNL     1      47.379   3.684  16.609  0.00  0.00    +0.000 C 
BRANCH  19  20
ATOM     20  N   UNL     1      46.794   4.577  15.640  0.00  0.00    +0.000 N 
ATOM     21  C   UNL     1      46.767   4.263  14.306  0.00  0.00    +0.000 C 
ATOM     22  O   UNL     1      47.207   3.200  13.875  0.00  0.00    +0.000 OA
ATOM     23  H   UNL     1      46.678   5.545  15.923  0.00  0.00    +0.000 HD
BRANCH  21  24
ATOM     24  C   UNL     1      46.136   5.245  13.417  0.00  0.00    +0.000 A 
ATOM     25  C   UNL     1      46.796   6.430  13.116  0.00  0.00    +0.000 A 
ATOM     26  S   UNL     1      45.924   7.447  12.060  0.00  0.00    +0.000 S 
ATOM     27  C   UNL     1      44.616   6.361  12.003  0.00  0.00    +0.000 A 
ATOM     28  N   UNL     1      43.494   6.651  11.292  0.00  0.00    +0.000 NA
ATOM     29  C   UNL     1      42.572   5.751  11.358  0.00  0.00    +0.000 A 
ATOM     30  N   UNL     1      42.675   4.577  12.063  0.00  0.00    +0.000 N 
ATOM     31  C   UNL     1      43.802   4.229  12.766  0.00  0.00    +0.000 A 
ATOM     32  O   UNL     1      43.884   3.143  13.336  0.00  0.00    +0.000 OA
ATOM     33  C   UNL     1      44.857   5.221  12.751  0.00  0.00    +0.000 A 
ATOM     34  H   UNL     1      41.929   3.901  12.049  0.00  0.00    +0.000 HD
ENDBRANCH  21  24
ENDBRANCH  19  20
ENDBRANCH   4  19
TORSDOF 8
ENDMDL
MODEL 6
REMARK VINA RESULT:    -7.754      1.675      2.167
REMARK INTER + INTRA:         -12.119
REMARK INTER:                 -10.402
REMARK INTRA:                  -1.717
REMARK UNBOUND:                -0.738
REMARK  Name = 
REMARK  9 active torsions:
REMARK  status: ('A' for Active; 'I' for Inactive)
REMARK    1  A    between atoms: C_1  and  C_2
REMARK    2  A    between atoms: C_2  and  C_3
REMARK    3  A    between atoms: C_2  and  C_26
REMARK    4  A    between atoms: C_3  and  N_4
REMARK    5  A    between atoms: N_4  and  C_5
REMARK    6  A    between atoms: C_5  and  C_6
REMARK    7  A    between atoms: C_9  and  C_10
REMARK    8  A    between atoms: C_10  and  N_11
REMARK    9  A    between atoms: C_12  and  C_14
REMARK                            x       y       z     vdW  Elec       q    Type
REMARK                         _______ _______ _______ _____ _____    ______ ____
ROOT
ATOM      1  C   UNL     1      45.405   7.243  11.857  0.00  0.00    +0.000 A 
ATOM      2  C   UNL     1      45.498   8.365  12.697  0.00  0.00    +0.000 A 
ATOM      3  C   UNL     1      46.705   8.721  13.303  0.00  0.00    +0.000 A 
ATOM      4  C   UNL     1      47.863   7.973  13.060  0.00  0.00    +0.000 A 
ATOM      5  C   UNL     1      47.782   6.862  12.211  0.00  0.00    +0.000 A 
ATOM      6  C   UNL     1      46.569   6.503  11.609  0.00  0.00    +0.000 A 
ENDROOT
BRANCH   1   7
ATOM      7  C   UNL     1      44.094   6.803  11.229  0.00  0.00    +0.000 C 
BRANCH   7   8
ATOM      8  N   UNL     1      43.676   5.480  11.697  0.00  0.00    +0.000 NA
ATOM      9  H   UNL     1      44.460   5.087  12.217  0.00  0.00    +0.000 HD
BRANCH   8  10
ATOM     10  C   UNL     1      43.349   4.569  10.598  0.00  0.00    +0.000 C 
BRANCH  10  12
ATOM     11  C   UNL     1      45.007   3.188  11.993  0.00  0.00    +0.000 C 
ATOM     12  C   UNL     1      44.166   3.263  10.710  0.00  0.00    +0.000 C 
BRANCH  12  13
ATOM     13  C   UNL     1      45.082   3.124   9.511  0.00  0.00    +0.000 A 
ATOM     14  C   UNL     1      45.455   4.243   8.772  0.00  0.00    +0.000 A 
ATOM     15  C   UNL     1      46.233   4.065   7.633  0.00  0.00    +0.000 A 
ATOM     16  C   UNL     1      46.620   2.782   7.263  0.00  0.00    +0.000 A 
ATOM     17  C   UNL     1      46.223   1.726   8.063  0.00  0.00    +0.000 A 
ATOM     18  N   UNL     1      45.473   1.869   9.174  0.00  0.00    +0.000 NA
ENDBRANCH  12  13
ENDBRANCH  10  12
ENDBRANCH   8  10
ENDBRANCH   7   8
ENDBRANCH   1   7
BRANCH   4  19
ATOM     19  C   UNL     1      49.162   8.325  13.732  0.00  0.00    +0.000 C 
BRANCH  19  20
ATOM     20  N   UNL     1      49.324   7.596  14.965  0.00  0.00    +0.000 N 
ATOM     21  C   UNL     1      48.936   8.131  16.166  0.00  0.00    +0.000 C 
ATOM     22  O   UNL     1      48.404   9.235  16.248  0.00  0.00    +0.000 OA
ATOM     23  H   UNL     1      49.988   6.828  14.957  0.00  0.00    +0.000 HD
BRANCH  21  24
ATOM     24  C   UNL     1      49.141   7.290  17.351  0.00  0.00    +0.000 A 
ATOM     25  C   UNL     1      49.703   7.838  18.497  0.00  0.00    +0.000 A 
ATOM     26  S   UNL     1      49.856   6.724  19.781  0.00  0.00    +0.000 S 
ATOM     27  C   UNL     1      49.217   5.461  18.836  0.00  0.00    +0.000 A 
ATOM     28  N   UNL     1      49.110   4.200  19.331  0.00  0.00    +0.000 NA
ATOM     29  C   UNL     1      48.635   3.337  18.498  0.00  0.00    +0.000 A 
ATOM     30  N   UNL     1      48.242   3.625  17.214  0.00  0.00    +0.000 N 
ATOM     31  C   UNL     1      48.301   4.891  16.685  0.00  0.00    +0.000 A 
ATOM     32  O   UNL     1      47.885   5.126  15.553  0.00  0.00    +0.000 OA
ATOM     33  C   UNL     1      48.858   5.893  17.570  0.00  0.00    +0.000 A 
ATOM     34  H   UNL     1      47.850   2.910  16.623  0.00  0.00    +0.000 HD
ENDBRANCH  21  24
ENDBRANCH  19  20
ENDBRANCH   4  19
TORSDOF 8
ENDMDL
MODEL 7
REMARK VINA RESULT:    -7.555      3.244      9.262
REMARK INTER + INTRA:         -11.826
REMARK INTER:                  -9.775
REMARK INTRA:                  -2.050
REMARK UNBOUND:                -0.738
REMARK  Name = 
REMARK  9 active torsions:
REMARK  status: ('A' for Active; 'I' for Inactive)
REMARK    1  A    between atoms: C_1  and  C_2
REMARK    2  A    between atoms: C_2  and  C_3
REMARK    3  A    between atoms: C_2  and  C_26
REMARK    4  A    between atoms: C_3  and  N_4
REMARK    5  A    between atoms: N_4  and  C_5
REMARK    6  A    between atoms: C_5  and  C_6
REMARK    7  A    between atoms: C_9  and  C_10
REMARK    8  A    between atoms: C_10  and  N_11
REMARK    9  A    between atoms: C_12  and  C_14
REMARK                            x       y       z     vdW  Elec       q    Type
REMARK                         _______ _______ _______ _____ _____    ______ ____
ROOT
ATOM      1  C   UNL     1      49.145   8.273  16.378  0.00  0.00    +0.000 A 
ATOM      2  C   UNL     1      48.485   9.300  15.683  0.00  0.00    +0.000 A 
ATOM      3  C   UNL     1      48.103   9.146  14.349  0.00  0.00    +0.000 A 
ATOM      4  C   UNL     1      48.349   7.941  13.681  0.00  0.00    +0.000 A 
ATOM      5  C   UNL     1      48.992   6.906  14.371  0.00  0.00    +0.000 A 
ATOM      6  C   UNL     1      49.381   7.065  15.708  0.00  0.00    +0.000 A 
ENDROOT
BRANCH   1   7
ATOM      7  C   UNL     1      49.621   8.434  17.812  0.00  0.00    +0.000 C 
BRANCH   7   8
ATOM      8  N   UNL     1      50.321   7.244  18.297  0.00  0.00    +0.000 NA
ATOM      9  H   UNL     1      50.175   6.510  17.605  0.00  0.00    +0.000 HD
BRANCH   8  10
ATOM     10  C   UNL     1      49.807   6.772  19.585  0.00  0.00    +0.000 C 
BRANCH  10  12
ATOM     11  C   UNL     1      47.722   5.857  20.776  0.00  0.00    +0.000 C 
ATOM     12  C   UNL     1      48.365   6.238  19.434  0.00  0.00    +0.000 C 
BRANCH  12  13
ATOM     13  C   UNL     1      48.357   5.029  18.521  0.00  0.00    +0.000 A 
ATOM     14  C   UNL     1      47.213   4.695  17.800  0.00  0.00    +0.000 A 
ATOM     15  C   UNL     1      47.220   3.534  17.033  0.00  0.00    +0.000 A 
ATOM     16  C   UNL     1      48.362   2.743  17.002  0.00  0.00    +0.000 A 
ATOM     17  C   UNL     1      49.463   3.157  17.731  0.00  0.00    +0.000 A 
ATOM     18  N   UNL     1      49.486   4.278  18.479  0.00  0.00    +0.000 NA
ENDBRANCH  12  13
ENDBRANCH  10  12
ENDBRANCH   8  10
ENDBRANCH   7   8
ENDBRANCH   1   7
BRANCH   4  19
ATOM     19  C   UNL     1      47.972   7.772  12.234  0.00  0.00    +0.000 C 
BRANCH  19  20
ATOM     20  N   UNL     1      47.168   6.592  12.039  0.00  0.00    +0.000 N 
ATOM     21  C   UNL     1      45.799   6.656  12.030  0.00  0.00    +0.000 C 
ATOM     22  O   UNL     1      45.193   7.717  12.155  0.00  0.00    +0.000 OA
ATOM     23  H   UNL     1      47.621   5.698  12.205  0.00  0.00    +0.000 HD
BRANCH  21  24
ATOM     24  C   UNL     1      45.089   5.390  11.811  0.00  0.00    +0.000 A 
ATOM     25  C   UNL     1      44.373   4.811  12.851  0.00  0.00    +0.000 A 
ATOM     26  S   UNL     1      43.600   3.353  12.418  0.00  0.00    +0.000 S 
ATOM     27  C   UNL     1      44.229   3.423  10.838  0.00  0.00    +0.000 A 
ATOM     28  N   UNL     1      43.979   2.434   9.939  0.00  0.00    +0.000 NA
ATOM     29  C   UNL     1      44.540   2.604   8.790  0.00  0.00    +0.000 A 
ATOM     30  N   UNL     1      45.320   3.682   8.452  0.00  0.00    +0.000 N 
ATOM     31  C   UNL     1      45.571   4.718   9.317  0.00  0.00    +0.000 A 
ATOM     32  O   UNL     1      46.223   5.698   8.963  0.00  0.00    +0.000 OA
ATOM     33  C   UNL     1      44.989   4.562  10.634  0.00  0.00    +0.000 A 
ATOM     34  H   UNL     1      45.705   3.769   7.525  0.00  0.00    +0.000 HD
ENDBRANCH  21  24
ENDBRANCH  19  20
ENDBRANCH   4  19
TORSDOF 8
ENDMDL
MODEL 8
REMARK VINA RESULT:    -7.528      2.469      3.118
REMARK INTER + INTRA:         -11.786
REMARK INTER:                 -10.766
REMARK INTRA:                  -1.020
REMARK UNBOUND:                -0.738
REMARK  Name = 
REMARK  9 active torsions:
REMARK  status: ('A' for Active; 'I' for Inactive)
REMARK    1  A    between atoms: C_1  and  C_2
REMARK    2  A    between atoms: C_2  and  C_3
REMARK    3  A    between atoms: C_2  and  C_26
REMARK    4  A    between atoms: C_3  and  N_4
REMARK    5  A    between atoms: N_4  and  C_5
REMARK    6  A    between atoms: C_5  and  C_6
REMARK    7  A    between atoms: C_9  and  C_10
REMARK    8  A    between atoms: C_10  and  N_11
REMARK    9  A    between atoms: C_12  and  C_14
REMARK                            x       y       z     vdW  Elec       q    Type
REMARK                         _______ _______ _______ _____ _____    ______ ____
ROOT
ATOM      1  C   UNL     1      46.217   6.721  12.782  0.00  0.00    +0.000 A 
ATOM      2  C   UNL     1      47.071   5.817  13.435  0.00  0.00    +0.000 A 
ATOM      3  C   UNL     1      48.088   6.261  14.283  0.00  0.00    +0.000 A 
ATOM      4  C   UNL     1      48.258   7.630  14.522  0.00  0.00    +0.000 A 
ATOM      5  C   UNL     1      47.401   8.537  13.887  0.00  0.00    +0.000 A 
ATOM      6  C   UNL     1      46.386   8.090  13.031  0.00  0.00    +0.000 A 
ENDROOT
BRANCH   1   7
ATOM      7  C   UNL     1      45.140   6.268  11.812  0.00  0.00    +0.000 C 
BRANCH   7   8
ATOM      8  N   UNL     1      45.457   4.976  11.200  0.00  0.00    +0.000 NA
ATOM      9  H   UNL     1      46.412   4.745  11.471  0.00  0.00    +0.000 HD
BRANCH   8  10
ATOM     10  C   UNL     1      45.388   5.011   9.738  0.00  0.00    +0.000 C 
BRANCH  10  12
ATOM     11  C   UNL     1      44.155   2.830  10.305  0.00  0.00    +0.000 C 
ATOM     12  C   UNL     1      44.696   3.742   9.194  0.00  0.00    +0.000 C 
BRANCH  12  13
ATOM     13  C   UNL     1      45.665   2.954   8.336  0.00  0.00    +0.000 A 
ATOM     14  C   UNL     1      46.316   3.562   7.265  0.00  0.00    +0.000 A 
ATOM     15  C   UNL     1      47.138   2.786   6.454  0.00  0.00    +0.000 A 
ATOM     16  C   UNL     1      47.292   1.433   6.732  0.00  0.00    +0.000 A 
ATOM     17  C   UNL     1      46.625   0.912   7.827  0.00  0.00    +0.000 A 
ATOM     18  N   UNL     1      45.826   1.640   8.632  0.00  0.00    +0.000 NA
ENDBRANCH  12  13
ENDBRANCH  10  12
ENDBRANCH   8  10
ENDBRANCH   7   8
ENDBRANCH   1   7
BRANCH   4  19
ATOM     19  C   UNL     1      49.370   8.124  15.407  0.00  0.00    +0.000 C 
BRANCH  19  20
ATOM     20  N   UNL     1      50.223   7.040  15.825  0.00  0.00    +0.000 N 
ATOM     21  C   UNL     1      50.177   6.549  17.104  0.00  0.00    +0.000 C 
ATOM     22  O   UNL     1      49.389   6.982  17.943  0.00  0.00    +0.000 OA
ATOM     23  H   UNL     1      51.044   6.859  15.256  0.00  0.00    +0.000 HD
BRANCH  21  24
ATOM     24  C   UNL     1      51.085   5.438  17.410  0.00  0.00    +0.000 A 
ATOM     25  C   UNL     1      52.387   5.701  17.815  0.00  0.00    +0.000 A 
ATOM     26  S   UNL     1      53.298   4.296  18.141  0.00  0.00    +0.000 S 
ATOM     27  C   UNL     1      51.997   3.286  17.711  0.00  0.00    +0.000 A 
ATOM     28  N   UNL     1      52.126   1.933  17.729  0.00  0.00    +0.000 NA
ATOM     29  C   UNL     1      51.070   1.292  17.355  0.00  0.00    +0.000 A 
ATOM     30  N   UNL     1      49.890   1.882  16.977  0.00  0.00    +0.000 N 
ATOM     31  C   UNL     1      49.706   3.243  16.977  0.00  0.00    +0.000 A 
ATOM     32  O   UNL     1      48.618   3.737  16.692  0.00  0.00    +0.000 OA
ATOM     33  C   UNL     1      50.873   4.012  17.359  0.00  0.00    +0.000 A 
ATOM     34  H   UNL     1      49.091   1.323  16.724  0.00  0.00    +0.000 HD
ENDBRANCH  21  24
ENDBRANCH  19  20
ENDBRANCH   4  19
TORSDOF 8
ENDMDL
MODEL 9
REMARK VINA RESULT:    -7.489      1.847      2.998
REMARK INTER + INTRA:         -11.729
REMARK INTER:                 -10.272
REMARK INTRA:                  -1.457
REMARK UNBOUND:                -0.738
REMARK  Name = 
REMARK  9 active torsions:
REMARK  status: ('A' for Active; 'I' for Inactive)
REMARK    1  A    between atoms: C_1  and  C_2
REMARK    2  A    between atoms: C_2  and  C_3
REMARK    3  A    between atoms: C_2  and  C_26
REMARK    4  A    between atoms: C_3  and  N_4
REMARK    5  A    between atoms: N_4  and  C_5
REMARK    6  A    between atoms: C_5  and  C_6
REMARK    7  A    between atoms: C_9  and  C_10
REMARK    8  A    between atoms: C_10  and  N_11
REMARK    9  A    between atoms: C_12  and  C_14
REMARK                            x       y       z     vdW  Elec       q    Type
REMARK                         _______ _______ _______ _____ _____    ______ ____
ROOT
ATOM      1  C   UNL     1      45.911   7.424  12.333  0.00  0.00    +0.000 A 
ATOM      2  C   UNL     1      46.249   8.447  13.235  0.00  0.00    +0.000 A 
ATOM      3  C   UNL     1      47.449   8.419  13.948  0.00  0.00    +0.000 A 
ATOM      4  C   UNL     1      48.360   7.374  13.755  0.00  0.00    +0.000 A 
ATOM      5  C   UNL     1      48.038   6.358  12.846  0.00  0.00    +0.000 A 
ATOM      6  C   UNL     1      46.830   6.385  12.136  0.00  0.00    +0.000 A 
ENDROOT
BRANCH   1   7
ATOM      7  C   UNL     1      44.589   7.401  11.586  0.00  0.00    +0.000 C 
BRANCH   7   8
ATOM      8  N   UNL     1      43.639   6.456  12.176  0.00  0.00    +0.000 NA
ATOM      9  H   UNL     1      44.173   5.843  12.791  0.00  0.00    +0.000 HD
BRANCH   8  10
ATOM     10  C   UNL     1      42.968   5.629  11.171  0.00  0.00    +0.000 C 
BRANCH  10  12
ATOM     11  C   UNL     1      44.118   3.867  12.646  0.00  0.00    +0.000 C 
ATOM     12  C   UNL     1      43.346   4.141  11.347  0.00  0.00    +0.000 C 
BRANCH  12  13
ATOM     13  C   UNL     1      44.180   3.679  10.170  0.00  0.00    +0.000 A 
ATOM     14  C   UNL     1      44.330   2.322   9.898  0.00  0.00    +0.000 A 
ATOM     15  C   UNL     1      45.167   1.935   8.856  0.00  0.00    +0.000 A 
ATOM     16  C   UNL     1      45.826   2.908   8.113  0.00  0.00    +0.000 A 
ATOM     17  C   UNL     1      45.607   4.235   8.435  0.00  0.00    +0.000 A 
ATOM     18  N   UNL     1      44.799   4.638   9.436  0.00  0.00    +0.000 NA
ENDBRANCH  12  13
ENDBRANCH  10  12
ENDBRANCH   8  10
ENDBRANCH   7   8
ENDBRANCH   1   7
BRANCH   4  19
ATOM     19  C   UNL     1      49.641   7.314  14.541  0.00  0.00    +0.000 C 
BRANCH  19  20
ATOM     20  N   UNL     1      49.383   7.302  15.958  0.00  0.00    +0.000 N 
ATOM     21  C   UNL     1      48.868   6.193  16.580  0.00  0.00    +0.000 C 
ATOM     22  O   UNL     1      48.634   5.152  15.971  0.00  0.00    +0.000 OA
ATOM     23  H   UNL     1      49.310   8.205  16.418  0.00  0.00    +0.000 HD
BRANCH  21  24
ATOM     24  C   UNL     1      48.658   6.296  18.029  0.00  0.00    +0.000 A 
ATOM     25  C   UNL     1      48.944   5.210  18.847  0.00  0.00    +0.000 A 
ATOM     26  S   UNL     1      48.655   5.509  20.502  0.00  0.00    +0.000 S 
ATOM     27  C   UNL     1      48.098   7.084  20.178  0.00  0.00    +0.000 A 
ATOM     28  N   UNL     1      47.646   7.887  21.178  0.00  0.00    +0.000 NA
ATOM     29  C   UNL     1      47.230   9.044  20.786  0.00  0.00    +0.000 A 
ATOM     30  N   UNL     1      47.236   9.477  19.483  0.00  0.00    +0.000 N 
ATOM     31  C   UNL     1      47.715   8.712  18.448  0.00  0.00    +0.000 A 
ATOM     32  O   UNL     1      47.763   9.154  17.302  0.00  0.00    +0.000 OA
ATOM     33  C   UNL     1      48.166   7.390  18.829  0.00  0.00    +0.000 A 
ATOM     34  H   UNL     1      46.925  10.406  19.248  0.00  0.00    +0.000 HD
ENDBRANCH  21  24
ENDBRANCH  19  20
ENDBRANCH   4  19
TORSDOF 8
ENDMDL
