MODEL 1
REMARK VINA RESULT:    -7.827      0.000      0.000
REMARK INTER + INTRA:         -11.667
REMARK INTER:                 -11.030
REMARK INTRA:                  -0.636
REMARK UNBOUND:                -0.636
REMARK  Name = 
REMARK  8 active torsions:
REMARK  status: ('A' for Active; 'I' for Inactive)
REMARK    1  A    between atoms: N_1  and  C_2
REMARK    2  A    between atoms: C_2  and  C_3
REMARK    3  A    between atoms: C_7  and  C_8
REMARK    4  A    between atoms: C_8  and  C_9
REMARK    5  A    between atoms: C_9  and  N_10
REMARK    6  A    between atoms: N_10  and  C_11
REMARK    7  A    between atoms: CA_14  and  C_15
REMARK    8  A    between atoms: C_15  and  OXT_17
REMARK                            x       y       z     vdW  Elec       q    Type
REMARK                         _______ _______ _______ _____ _____    ______ ____
ROOT
ATOM      1  C   UNL     1      43.396   4.516  10.999  0.00  0.00    +0.000 C 
ENDROOT
BRANCH   1   2
ATOM      2  N   UNL     1      43.635   4.730   9.564  0.00  0.00    +0.000 N 
ATOM      3  H   UNL     1      43.829   5.705   9.343  0.00  0.00    +0.000 HD
BRANCH   2   4
ATOM      4  C   UNL     1      44.532   3.854   8.927  0.00  0.00    +0.000 A 
ATOM      5  C   UNL     1      45.553   4.292   8.076  0.00  0.00    +0.000 A 
ATOM      6  C   UNL     1      46.463   3.392   7.522  0.00  0.00    +0.000 A 
ATOM      7  CA  UNL     1      46.345   2.056   7.860  0.00  0.00    +0.000 A 
ATOM      8  N   UNL     1      45.403   1.563   8.713  0.00  0.00    +0.000 NA
ATOM      9  C   UNL     1      44.546   2.485   9.233  0.00  0.00    +0.000 A 
BRANCH   7  10
ATOM     10  C   UNL     1      47.294   1.059   7.282  0.00  0.00    +0.000 C 
ATOM     11  O   UNL     1      48.219   1.322   6.533  0.00  0.00    +0.000 OA
BRANCH  10  12
ATOM     12  OXT UNL     1      46.982  -0.191   7.700  0.00  0.00    +0.000 OA
ATOM     13  HXT UNL     1      47.799  -0.618   8.048  0.00  0.00    +0.000 HD
ENDBRANCH  10  12
ENDBRANCH   7  10
ENDBRANCH   2   4
ENDBRANCH   1   2
BRANCH   1  14
ATOM     14  C   UNL     1      43.569   5.809  11.806  0.00  0.00    +0.000 C 
BRANCH  14  19
ATOM     15  C   UNL     1      46.810   5.309  13.782  0.00  0.00    +0.000 A 
ATOM     16  C   UNL     1      47.697   6.098  13.040  0.00  0.00    +0.000 A 
ATOM     17  C   UNL     1      47.248   6.810  11.927  0.00  0.00    +0.000 A 
ATOM     18  C   UNL     1      45.909   6.739  11.540  0.00  0.00    +0.000 A 
ATOM     19  C   UNL     1      45.003   5.958  12.265  0.00  0.00    +0.000 A 
ATOM     20  C   UNL     1      45.463   5.251  13.387  0.00  0.00    +0.000 A 
BRANCH  15  21
ATOM     21  C   UNL     1      47.283   4.547  14.995  0.00  0.00    +0.000 C 
BRANCH  21  22
ATOM     22  N   UNL     1      47.511   3.139  14.691  0.00  0.00    +0.000 NA
ATOM     23  H   UNL     1      47.384   2.990  13.691  0.00  0.00    +0.000 HD
ATOM     24  H   UNL     1      46.797   2.583  15.158  0.00  0.00    +0.000 HD
ENDBRANCH  21  22
ENDBRANCH  15  21
ENDBRANCH  14  19
ENDBRANCH   1  14
TORSDOF 8
ENDMDL
MODEL 2
REMARK VINA RESULT:    -7.367      1.476      2.067
REMARK INTER + INTRA:         -11.017
REMARK INTER:                 -10.418
REMARK INTRA:                  -0.599
REMARK UNBOUND:                -0.636
REMARK  Name = 
REMARK  8 active torsions:
REMARK  status: ('A' for Active; 'I' for Inactive)
REMARK    1  A    between atoms: N_1  and  C_2
REMARK    2  A    between atoms: C_2  and  C_3
REMARK    3  A    between atoms: C_7  and  C_8
REMARK    4  A    between atoms: C_8  and  C_9
REMARK    5  A    between atoms: C_9  and  N_10
REMARK    6  A    between atoms: N_10  and  C_11
REMARK    7  A    between atoms: CA_14  and  C_15
REMARK    8  A    between atoms: C_15  and  OXT_17
REMARK                            x       y       z     vdW  Elec       q    Type
REMARK                         _______ _______ _______ _____ _____    ______ ____
ROOT
ATOM      1  C   UNL     1      43.171   4.394  11.047  0.00  0.00    +0.000 C 
ENDROOT
BRANCH   1   2
ATOM      2  N   UNL     1      43.950   4.893   9.905  0.00  0.00    +0.000 N 
ATOM      3  H   UNL     1      44.479   5.734  10.132  0.00  0.00    +0.000 HD
BRANCH   2   4
ATOM      4  C   UNL     1      44.726   3.955   9.201  0.00  0.00    +0.000 A 
ATOM      5  C   UNL     1      45.681   4.317   8.244  0.00  0.00    +0.000 A 
ATOM      6  C   UNL     1      46.476   3.355   7.621  0.00  0.00    +0.000 A 
ATOM      7  CA  UNL     1      46.314   2.034   7.997  0.00  0.00    +0.000 A 
ATOM      8  N   UNL     1      45.434   1.612   8.949  0.00  0.00    +0.000 NA
ATOM      9  C   UNL     1      44.689   2.592   9.532  0.00  0.00    +0.000 A 
BRANCH   7  10
ATOM     10  C   UNL     1      47.139   0.972   7.350  0.00  0.00    +0.000 C 
ATOM     11  O   UNL     1      46.981  -0.228   7.499  0.00  0.00    +0.000 OA
BRANCH  10  12
ATOM     12  OXT UNL     1      48.100   1.524   6.573  0.00  0.00    +0.000 OA
ATOM     13  HXT UNL     1      47.797   2.417   6.287  0.00  0.00    +0.000 HD
ENDBRANCH  10  12
ENDBRANCH   7  10
ENDBRANCH   2   4
ENDBRANCH   1   2
BRANCH   1  14
ATOM     14  C   UNL     1      43.269   5.329  12.259  0.00  0.00    +0.000 C 
BRANCH  14  19
ATOM     15  C   UNL     1      46.637   6.866  13.236  0.00  0.00    +0.000 A 
ATOM     16  C   UNL     1      47.319   5.735  13.700  0.00  0.00    +0.000 A 
ATOM     17  C   UNL     1      46.709   4.480  13.671  0.00  0.00    +0.000 A 
ATOM     18  C   UNL     1      45.409   4.340  13.182  0.00  0.00    +0.000 A 
ATOM     19  C   UNL     1      44.706   5.456  12.713  0.00  0.00    +0.000 A 
ATOM     20  C   UNL     1      45.331   6.712  12.741  0.00  0.00    +0.000 A 
BRANCH  15  21
ATOM     21  C   UNL     1      47.293   8.224  13.251  0.00  0.00    +0.000 C 
BRANCH  21  22
ATOM     22  N   UNL     1      47.121   8.891  14.536  0.00  0.00    +0.000 NA
ATOM     23  H   UNL     1      47.615   8.362  15.254  0.00  0.00    +0.000 HD
ATOM     24  H   UNL     1      46.135   8.866  14.789  0.00  0.00    +0.000 HD
ENDBRANCH  21  22
ENDBRANCH  15  21
ENDBRANCH  14  19
ENDBRANCH   1  14
TORSDOF 8
ENDMDL
MODEL 3
REMARK VINA RESULT:    -6.973      3.313      6.249
REMARK INTER + INTRA:         -10.462
REMARK INTER:                  -9.761
REMARK INTRA:                  -0.702
REMARK UNBOUND:                -0.636
REMARK  Name = 
REMARK  8 active torsions:
REMARK  status: ('A' for Active; 'I' for Inactive)
REMARK    1  A    between atoms: N_1  and  C_2
REMARK    2  A    between atoms: C_2  and  C_3
REMARK    3  A    between atoms: C_7  and  C_8
REMARK    4  A    between atoms: C_8  and  C_9
REMARK    5  A    between atoms: C_9  and  N_10
REMARK    6  A    between atoms: N_10  and  C_11
REMARK    7  A    between atoms: CA_14  and  C_15
REMARK    8  A    between atoms: C_15  and  OXT_17
REMARK                            x       y       z     vdW  Elec       q    Type
REMARK                         _______ _______ _______ _____ _____    ______ ____
ROOT
ATOM      1  C   UNL     1      44.454   3.049  12.124  0.00  0.00    +0.000 C 
ENDROOT
BRANCH   1   2
ATOM      2  N   UNL     1      44.447   4.388  12.732  0.00  0.00    +0.000 N 
ATOM      3  H   UNL     1      43.984   4.401  13.639  0.00  0.00    +0.000 HD
BRANCH   2   4
ATOM      4  C   UNL     1      45.667   5.088  12.751  0.00  0.00    +0.000 A 
ATOM      5  C   UNL     1      45.929   6.188  11.927  0.00  0.00    +0.000 A 
ATOM      6  C   UNL     1      47.128   6.894  12.030  0.00  0.00    +0.000 A 
ATOM      7  CA  UNL     1      48.039   6.493  12.989  0.00  0.00    +0.000 A 
ATOM      8  N   UNL     1      47.835   5.458  13.853  0.00  0.00    +0.000 NA
ATOM      9  C   UNL     1      46.646   4.808  13.716  0.00  0.00    +0.000 A 
BRANCH   7  10
ATOM     10  C   UNL     1      49.337   7.217  13.127  0.00  0.00    +0.000 C 
ATOM     11  O   UNL     1      49.800   7.990  12.306  0.00  0.00    +0.000 OA
BRANCH  10  12
ATOM     12  OXT UNL     1      49.942   6.891  14.294  0.00  0.00    +0.000 OA
ATOM     13  HXT UNL     1      49.298   7.028  15.029  0.00  0.00    +0.000 HD
ENDBRANCH  10  12
ENDBRANCH   7  10
ENDBRANCH   2   4
ENDBRANCH   1   2
BRANCH   1  14
ATOM     14  C   UNL     1      43.754   3.037  10.760  0.00  0.00    +0.000 C 
BRANCH  14  19
ATOM     15  C   UNL     1      46.251   2.144   7.999  0.00  0.00    +0.000 A 
ATOM     16  C   UNL     1      46.530   3.411   7.474  0.00  0.00    +0.000 A 
ATOM     17  C   UNL     1      45.940   4.550   8.024  0.00  0.00    +0.000 A 
ATOM     18  C   UNL     1      45.062   4.436   9.102  0.00  0.00    +0.000 A 
ATOM     19  C   UNL     1      44.767   3.180   9.645  0.00  0.00    +0.000 A 
ATOM     20  C   UNL     1      45.370   2.041   9.089  0.00  0.00    +0.000 A 
BRANCH  15  21
ATOM     21  C   UNL     1      46.895   0.908   7.420  0.00  0.00    +0.000 C 
BRANCH  21  22
ATOM     22  N   UNL     1      47.962   1.245   6.484  0.00  0.00    +0.000 NA
ATOM     23  H   UNL     1      47.566   1.759   5.699  0.00  0.00    +0.000 HD
ATOM     24  H   UNL     1      48.345   0.383   6.100  0.00  0.00    +0.000 HD
ENDBRANCH  21  22
ENDBRANCH  15  21
ENDBRANCH  14  19
ENDBRANCH   1  14
TORSDOF 8
ENDMDL
MODEL 4
REMARK VINA RESULT:    -6.904      1.927      2.881
REMARK INTER + INTRA:         -10.365
REMARK INTER:                  -9.817
REMARK INTRA:                  -0.547
REMARK UNBOUND:                -0.636
REMARK  Name = 
REMARK  8 active torsions:
REMARK  status: ('A' for Active; 'I' for Inactive)
REMARK    1  A    between atoms: N_1  and  C_2
REMARK    2  A    between atoms: C_2  and  C_3
REMARK    3  A    between atoms: C_7  and  C_8
REMARK    4  A    between atoms: C_8  and  C_9
REMARK    5  A    between atoms: C_9  and  N_10
REMARK    6  A    between atoms: N_10  and  C_11
REMARK    7  A    between atoms: CA_14  and  C_15
REMARK    8  A    between atoms: C_15  and  OXT_17
REMARK                            x       y       z     vdW  Elec       q    Type
REMARK                         _______ _______ _______ _____ _____    ______ ____
ROOT
ATOM      1  C   UNL     1      43.964   4.801  11.297  0.00  0.00    +0.000 C 
ENDROOT
BRANCH   1   2
ATOM      2  N   UNL     1      43.654   3.722  10.347  0.00  0.00    +0.000 N 
ATOM      3  H   UNL     1      42.753   3.853   9.889  0.00  0.00    +0.000 HD
BRANCH   2   4
ATOM      4  C   UNL     1      44.663   3.361   9.437  0.00  0.00    +0.000 A 
ATOM      5  C   UNL     1      45.030   2.034   9.189  0.00  0.00    +0.000 A 
ATOM      6  C   UNL     1      45.989   1.720   8.225  0.00  0.00    +0.000 A 
ATOM      7  CA  UNL     1      46.547   2.758   7.501  0.00  0.00    +0.000 A 
ATOM      8  N   UNL     1      46.209   4.069   7.659  0.00  0.00    +0.000 NA
ATOM      9  C   UNL     1      45.263   4.320   8.606  0.00  0.00    +0.000 A 
BRANCH   7  10
ATOM     10  C   UNL     1      47.582   2.467   6.466  0.00  0.00    +0.000 C 
ATOM     11  O   UNL     1      48.509   1.686   6.602  0.00  0.00    +0.000 OA
BRANCH  10  12
ATOM     12  OXT UNL     1      47.357   3.199   5.350  0.00  0.00    +0.000 OA
ATOM     13  HXT UNL     1      47.028   2.596   4.642  0.00  0.00    +0.000 HD
ENDBRANCH  10  12
ENDBRANCH   7  10
ENDBRANCH   2   4
ENDBRANCH   1   2
BRANCH   1  14
ATOM     14  C   UNL     1      45.018   4.372  12.325  0.00  0.00    +0.000 C 
BRANCH  14  19
ATOM     15  C   UNL     1      46.334   7.951  12.674  0.00  0.00    +0.000 A 
ATOM     16  C   UNL     1      47.453   7.743  13.489  0.00  0.00    +0.000 A 
ATOM     17  C   UNL     1      47.800   6.455  13.899  0.00  0.00    +0.000 A 
ATOM     18  C   UNL     1      47.030   5.360  13.505  0.00  0.00    +0.000 A 
ATOM     19  C   UNL     1      45.905   5.541  12.690  0.00  0.00    +0.000 A 
ATOM     20  C   UNL     1      45.570   6.840  12.277  0.00  0.00    +0.000 A 
BRANCH  15  21
ATOM     21  C   UNL     1      45.959   9.338  12.214  0.00  0.00    +0.000 C 
BRANCH  21  22
ATOM     22  N   UNL     1      44.647   9.734  12.711  0.00  0.00    +0.000 NA
ATOM     23  H   UNL     1      43.943   9.502  12.014  0.00  0.00    +0.000 HD
ATOM     24  H   UNL     1      44.628  10.748  12.812  0.00  0.00    +0.000 HD
ENDBRANCH  21  22
ENDBRANCH  15  21
ENDBRANCH  14  19
ENDBRANCH   1  14
TORSDOF 8
ENDMDL
MODEL 5
REMARK VINA RESULT:    -6.845      2.001      2.553
REMARK INTER + INTRA:         -10.282
REMARK INTER:                  -9.841
REMARK INTRA:                  -0.441
REMARK UNBOUND:                -0.636
REMARK  Name = 
REMARK  8 active torsions:
REMARK  status: ('A' for Active; 'I' for Inactive)
REMARK    1  A    between atoms: N_1  and  C_2
REMARK    2  A    between atoms: C_2  and  C_3
REMARK    3  A    between atoms: C_7  and  C_8
REMARK    4  A    between atoms: C_8  and  C_9
REMARK    5  A    between atoms: C_9  and  N_10
REMARK    6  A    between atoms: N_10  and  C_11
REMARK    7  A    between atoms: CA_14  and  C_15
REMARK    8  A    between atoms: C_15  and  OXT_17
REMARK                            x       y       z     vdW  Elec       q    Type
REMARK                         _______ _______ _______ _____ _____    ______ ____
ROOT
ATOM      1  C   UNL     1      43.983   4.914  11.270  0.00  0.00    +0.000 C 
ENDROOT
BRANCH   1   2
ATOM      2  N   UNL     1      43.828   4.869   9.808  0.00  0.00    +0.000 N 
ATOM      3  H   UNL     1      43.829   5.796   9.388  0.00  0.00    +0.000 HD
BRANCH   2   4
ATOM      4  C   UNL     1      44.648   3.968   9.106  0.00  0.00    +0.000 A 
ATOM      5  C   UNL     1      45.620   4.378   8.186  0.00  0.00    +0.000 A 
ATOM      6  C   UNL     1      46.458   3.453   7.564  0.00  0.00    +0.000 A 
ATOM      7  CA  UNL     1      46.321   2.119   7.904  0.00  0.00    +0.000 A 
ATOM      8  N   UNL     1      45.427   1.652   8.821  0.00  0.00    +0.000 NA
ATOM      9  C   UNL     1      44.639   2.598   9.404  0.00  0.00    +0.000 A 
BRANCH   7  10
ATOM     10  C   UNL     1      47.193   1.096   7.257  0.00  0.00    +0.000 C 
ATOM     11  O   UNL     1      48.079   1.335   6.454  0.00  0.00    +0.000 OA
BRANCH  10  12
ATOM     12  OXT UNL     1      46.860  -0.147   7.678  0.00  0.00    +0.000 OA
ATOM     13  HXT UNL     1      47.495  -0.419   8.381  0.00  0.00    +0.000 HD
ENDBRANCH  10  12
ENDBRANCH   7  10
ENDBRANCH   2   4
ENDBRANCH   1   2
BRANCH   1  14
ATOM     14  C   UNL     1      45.458   4.932  11.688  0.00  0.00    +0.000 C 
BRANCH  14  19
ATOM     15  C   UNL     1      47.714   8.014  11.956  0.00  0.00    +0.000 A 
ATOM     16  C   UNL     1      46.772   9.007  12.248  0.00  0.00    +0.000 A 
ATOM     17  C   UNL     1      45.422   8.682  12.387  0.00  0.00    +0.000 A 
ATOM     18  C   UNL     1      44.996   7.362  12.232  0.00  0.00    +0.000 A 
ATOM     19  C   UNL     1      45.919   6.350  11.939  0.00  0.00    +0.000 A 
ATOM     20  C   UNL     1      47.275   6.687  11.808  0.00  0.00    +0.000 A 
BRANCH  15  21
ATOM     21  C   UNL     1      49.177   8.353  11.817  0.00  0.00    +0.000 C 
BRANCH  21  22
ATOM     22  N   UNL     1      49.371   9.736  11.396  0.00  0.00    +0.000 NA
ATOM     23  H   UNL     1      48.781   9.924  10.588  0.00  0.00    +0.000 HD
ATOM     24  H   UNL     1      50.334   9.850  11.081  0.00  0.00    +0.000 HD
ENDBRANCH  21  22
ENDBRANCH  15  21
ENDBRANCH  14  19
ENDBRANCH   1  14
TORSDOF 8
ENDMDL
MODEL 6
REMARK VINA RESULT:    -6.695      3.604      6.796
REMARK INTER + INTRA:         -10.071
REMARK INTER:                  -9.518
REMARK INTRA:                  -0.553
REMARK UNBOUND:                -0.636
REMARK  Name = 
REMARK  8 active torsions:
REMARK  status: ('A' for Active; 'I' for Inactive)
REMARK    1  A    between atoms: N_1  and  C_2
REMARK    2  A    between atoms: C_2  and  C_3
REMARK    3  A    between atoms: C_7  and  C_8
REMARK    4  A    between atoms: C_8  and  C_9
REMARK    5  A    between atoms: C_9  and  N_10
REMARK    6  A    between atoms: N_10  and  C_11
REMARK    7  A    between atoms: CA_14  and  C_15
REMARK    8  A    between atoms: C_15  and  OXT_17
REMARK                            x       y       z     vdW  Elec       q    Type
REMARK                         _______ _______ _______ _____ _____    ______ ____
ROOT
ATOM      1  C   UNL     1      43.632   4.143  10.362  0.00  0.00    +0.000 C 
ENDROOT
BRANCH   1   2
ATOM      2  N   UNL     1      43.450   5.214  11.354  0.00  0.00    +0.000 N 
ATOM      3  H   UNL     1      42.643   5.054  11.955  0.00  0.00    +0.000 HD
BRANCH   2   4
ATOM      4  C   UNL     1      44.585   5.609  12.085  0.00  0.00    +0.000 A 
ATOM      5  C   UNL     1      45.362   4.716  12.831  0.00  0.00    +0.000 A 
ATOM      6  C   UNL     1      46.519   5.141  13.484  0.00  0.00    +0.000 A 
ATOM      7  CA  UNL     1      46.893   6.466  13.349  0.00  0.00    +0.000 A 
ATOM      8  N   UNL     1      46.209   7.382  12.605  0.00  0.00    +0.000 NA
ATOM      9  C   UNL     1      45.093   6.912  11.982  0.00  0.00    +0.000 A 
BRANCH   7  10
ATOM     10  C   UNL     1      48.120   6.964  14.037  0.00  0.00    +0.000 C 
ATOM     11  O   UNL     1      49.260   6.617  13.777  0.00  0.00    +0.000 OA
BRANCH  10  12
ATOM     12  OXT UNL     1      47.795   7.855  15.003  0.00  0.00    +0.000 OA
ATOM     13  HXT UNL     1      48.531   8.505  15.089  0.00  0.00    +0.000 HD
ENDBRANCH  10  12
ENDBRANCH   7  10
ENDBRANCH   2   4
ENDBRANCH   1   2
BRANCH   1  14
ATOM     14  C   UNL     1      44.493   4.601   9.179  0.00  0.00    +0.000 C 
BRANCH  14  19
ATOM     15  C   UNL     1      46.650   2.519   6.797  0.00  0.00    +0.000 A 
ATOM     16  C   UNL     1      46.554   1.254   7.391  0.00  0.00    +0.000 A 
ATOM     17  C   UNL     1      45.776   1.067   8.534  0.00  0.00    +0.000 A 
ATOM     18  C   UNL     1      45.088   2.141   9.101  0.00  0.00    +0.000 A 
ATOM     19  C   UNL     1      45.168   3.415   8.526  0.00  0.00    +0.000 A 
ATOM     20  C   UNL     1      45.948   3.592   7.373  0.00  0.00    +0.000 A 
BRANCH  15  21
ATOM     21  C   UNL     1      47.478   2.729   5.554  0.00  0.00    +0.000 C 
BRANCH  21  22
ATOM     22  N   UNL     1      48.607   1.807   5.496  0.00  0.00    +0.000 NA
ATOM     23  H   UNL     1      49.464   2.339   5.355  0.00  0.00    +0.000 HD
ATOM     24  H   UNL     1      48.501   1.210   4.677  0.00  0.00    +0.000 HD
ENDBRANCH  21  22
ENDBRANCH  15  21
ENDBRANCH  14  19
ENDBRANCH   1  14
TORSDOF 8
ENDMDL
MODEL 7
REMARK VINA RESULT:    -6.458      3.739      6.794
REMARK INTER + INTRA:          -9.737
REMARK INTER:                  -9.214
REMARK INTRA:                  -0.523
REMARK UNBOUND:                -0.636
REMARK  Name = 
REMARK  8 active torsions:
REMARK  status: ('A' for Active; 'I' for Inactive)
REMARK    1  A    between atoms: N_1  and  C_2
REMARK    2  A    between atoms: C_2  and  C_3
REMARK    3  A    between atoms: C_7  and  C_8
REMARK    4  A    between atoms: C_8  and  C_9
REMARK    5  A    between atoms: C_9  and  N_10
REMARK    6  A    between atoms: N_10  and  C_11
REMARK    7  A    between atoms: CA_14  and  C_15
REMARK    8  A    between atoms: C_15  and  OXT_17
REMARK                            x       y       z     vdW  Elec       q    Type
REMARK                         _______ _______ _______ _____ _____    ______ ____
ROOT
ATOM      1  C   UNL     1      45.506   6.420  12.308  0.00  0.00    +0.000 C 
ENDROOT
BRANCH   1   2
ATOM      2  N   UNL     1      46.926   6.095  12.505  0.00  0.00    +0.000 N 
ATOM      3  H   UNL     1      47.530   6.909  12.400  0.00  0.00    +0.000 HD
BRANCH   2   4
ATOM      4  C   UNL     1      47.257   5.334  13.641  0.00  0.00    +0.000 A 
ATOM      5  C   UNL     1      47.680   5.905  14.846  0.00  0.00    +0.000 A 
ATOM      6  C   UNL     1      47.930   5.115  15.968  0.00  0.00    +0.000 A 
ATOM      7  CA  UNL     1      47.720   3.752  15.865  0.00  0.00    +0.000 A 
ATOM      8  N   UNL     1      47.269   3.132  14.737  0.00  0.00    +0.000 NA
ATOM      9  C   UNL     1      47.032   3.950  13.674  0.00  0.00    +0.000 A 
BRANCH   7  10
ATOM     10  C   UNL     1      47.982   2.870  17.039  0.00  0.00    +0.000 C 
ATOM     11  O   UNL     1      49.063   2.379  17.320  0.00  0.00    +0.000 OA
BRANCH  10  12
ATOM     12  OXT UNL     1      46.848   2.678  17.753  0.00  0.00    +0.000 OA
ATOM     13  HXT UNL     1      47.061   2.112  18.532  0.00  0.00    +0.000 HD
ENDBRANCH  10  12
ENDBRANCH   7  10
ENDBRANCH   2   4
ENDBRANCH   1   2
BRANCH   1  14
ATOM     14  C   UNL     1      45.139   6.499  10.821  0.00  0.00    +0.000 C 
BRANCH  14  19
ATOM     15  C   UNL     1      45.389   3.472   8.489  0.00  0.00    +0.000 A 
ATOM     16  C   UNL     1      44.727   2.499   9.247  0.00  0.00    +0.000 A 
ATOM     17  C   UNL     1      44.178   2.822  10.488  0.00  0.00    +0.000 A 
ATOM     18  C   UNL     1      44.287   4.120  10.989  0.00  0.00    +0.000 A 
ATOM     19  C   UNL     1      44.944   5.111  10.251  0.00  0.00    +0.000 A 
ATOM     20  C   UNL     1      45.487   4.778   9.001  0.00  0.00    +0.000 A 
BRANCH  15  21
ATOM     21  C   UNL     1      45.974   3.136   7.140  0.00  0.00    +0.000 C 
BRANCH  21  22
ATOM     22  N   UNL     1      46.968   4.119   6.723  0.00  0.00    +0.000 NA
ATOM     23  H   UNL     1      46.648   4.575   5.871  0.00  0.00    +0.000 HD
ATOM     24  H   UNL     1      47.829   3.632   6.483  0.00  0.00    +0.000 HD
ENDBRANCH  21  22
ENDBRANCH  15  21
ENDBRANCH  14  19
ENDBRANCH   1  14
TORSDOF 8
ENDMDL
MODEL 8
REMARK VINA RESULT:    -6.399      1.474      1.983
REMARK INTER + INTRA:          -9.654
REMARK INTER:                  -9.323
REMARK INTRA:                  -0.331
REMARK UNBOUND:                -0.636
REMARK  Name = 
REMARK  8 active torsions:
REMARK  status: ('A' for Active; 'I' for Inactive)
REMARK    1  A    between atoms: N_1  and  C_2
REMARK    2  A    between atoms: C_2  and  C_3
REMARK    3  A    between atoms: C_7  and  C_8
REMARK    4  A    between atoms: C_8  and  C_9
REMARK    5  A    between atoms: C_9  and  N_10
REMARK    6  A    between atoms: N_10  and  C_11
REMARK    7  A    between atoms: CA_14  and  C_15
REMARK    8  A    between atoms: C_15  and  OXT_17
REMARK                            x       y       z     vdW  Elec       q    Type
REMARK                         _______ _______ _______ _____ _____    ______ ____
ROOT
ATOM      1  C   UNL     1      44.038   4.377  11.799  0.00  0.00    +0.000 C 
ENDROOT
BRANCH   1   2
ATOM      2  N   UNL     1      43.647   4.231  10.389  0.00  0.00    +0.000 N 
ATOM      3  H   UNL     1      43.195   5.066  10.022  0.00  0.00    +0.000 HD
BRANCH   2   4
ATOM      4  C   UNL     1      44.616   3.721   9.506  0.00  0.00    +0.000 A 
ATOM      5  C   UNL     1      44.829   2.352   9.313  0.00  0.00    +0.000 A 
ATOM      6  C   UNL     1      45.754   1.892   8.375  0.00  0.00    +0.000 A 
ATOM      7  CA  UNL     1      46.434   2.829   7.619  0.00  0.00    +0.000 A 
ATOM      8  N   UNL     1      46.248   4.176   7.723  0.00  0.00    +0.000 NA
ATOM      9  C   UNL     1      45.329   4.571   8.647  0.00  0.00    +0.000 A 
BRANCH   7  10
ATOM     10  C   UNL     1      47.437   2.381   6.609  0.00  0.00    +0.000 C 
ATOM     11  O   UNL     1      48.268   1.506   6.787  0.00  0.00    +0.000 OA
BRANCH  10  12
ATOM     12  OXT UNL     1      47.307   3.088   5.462  0.00  0.00    +0.000 OA
ATOM     13  HXT UNL     1      46.620   3.782   5.600  0.00  0.00    +0.000 HD
ENDBRANCH  10  12
ENDBRANCH   7  10
ENDBRANCH   2   4
ENDBRANCH   1   2
BRANCH   1  14
ATOM     14  C   UNL     1      45.550   4.204  11.994  0.00  0.00    +0.000 C 
BRANCH  14  19
ATOM     15  C   UNL     1      47.756   6.753  13.808  0.00  0.00    +0.000 A 
ATOM     16  C   UNL     1      47.487   7.911  13.068  0.00  0.00    +0.000 A 
ATOM     17  C   UNL     1      46.578   7.878  12.010  0.00  0.00    +0.000 A 
ATOM     18  C   UNL     1      45.931   6.688  11.675  0.00  0.00    +0.000 A 
ATOM     19  C   UNL     1      46.183   5.516  12.400  0.00  0.00    +0.000 A 
ATOM     20  C   UNL     1      47.094   5.562  13.466  0.00  0.00    +0.000 A 
BRANCH  15  21
ATOM     21  C   UNL     1      48.727   6.782  14.962  0.00  0.00    +0.000 C 
BRANCH  21  22
ATOM     22  N   UNL     1      48.634   5.574  15.774  0.00  0.00    +0.000 NA
ATOM     23  H   UNL     1      49.571   5.205  15.929  0.00  0.00    +0.000 HD
ATOM     24  H   UNL     1      48.129   4.863  15.246  0.00  0.00    +0.000 HD
ENDBRANCH  21  22
ENDBRANCH  15  21
ENDBRANCH  14  19
ENDBRANCH   1  14
TORSDOF 8
ENDMDL
MODEL 9
REMARK VINA RESULT:    -5.957      3.489      5.620
REMARK INTER + INTRA:          -9.031
REMARK INTER:                  -8.359
REMARK INTRA:                  -0.671
REMARK UNBOUND:                -0.636
REMARK  Name = 
REMARK  8 active torsions:
REMARK  status: ('A' for Active; 'I' for Inactive)
REMARK    1  A    between atoms: N_1  and  C_2
REMARK    2  A    between atoms: C_2  and  C_3
REMARK    3  A    between atoms: C_7  and  C_8
REMARK    4  A    between atoms: C_8  and  C_9
REMARK    5  A    between atoms: C_9  and  N_10
REMARK    6  A    between atoms: N_10  and  C_11
REMARK    7  A    between atoms: CA_14  and  C_15
REMARK    8  A    between atoms: C_15  and  OXT_17
REMARK                            x       y       z     vdW  Elec       q    Type
REMARK                         _______ _______ _______ _____ _____    ______ ____
ROOT
ATOM      1  C   UNL     1      48.482   6.954  14.128  0.00  0.00    +0.000 C 
ENDROOT
BRANCH   1   2
ATOM      2  N   UNL     1      47.057   7.191  13.850  0.00  0.00    +0.000 N 
ATOM      3  H   UNL     1      46.897   8.072  13.364  0.00  0.00    +0.000 HD
BRANCH   2   4
ATOM      4  C   UNL     1      46.333   6.131  13.277  0.00  0.00    +0.000 A 
ATOM      5  C   UNL     1      46.635   4.785  13.510  0.00  0.00    +0.000 A 
ATOM      6  C   UNL     1      45.845   3.767  12.976  0.00  0.00    +0.000 A 
ATOM      7  CA  UNL     1      44.736   4.126  12.232  0.00  0.00    +0.000 A 
ATOM      8  N   UNL     1      44.356   5.415  11.999  0.00  0.00    +0.000 NA
ATOM      9  C   UNL     1      45.157   6.369  12.550  0.00  0.00    +0.000 A 
BRANCH   7  10
ATOM     10  C   UNL     1      43.868   3.068  11.636  0.00  0.00    +0.000 C 
ATOM     11  O   UNL     1      43.493   3.040  10.476  0.00  0.00    +0.000 OA
BRANCH  10  12
ATOM     12  OXT UNL     1      43.543   2.140  12.567  0.00  0.00    +0.000 OA
ATOM     13  HXT UNL     1      43.311   2.605  13.404  0.00  0.00    +0.000 HD
ENDBRANCH  10  12
ENDBRANCH   7  10
ENDBRANCH   2   4
ENDBRANCH   1   2
BRANCH   1  14
ATOM     14  C   UNL     1      48.866   7.384  15.549  0.00  0.00    +0.000 C 
BRANCH  14  19
ATOM     15  C   UNL     1      48.928   3.966  17.273  0.00  0.00    +0.000 A 
ATOM     16  C   UNL     1      50.261   3.908  17.699  0.00  0.00    +0.000 A 
ATOM     17  C   UNL     1      51.127   4.976  17.458  0.00  0.00    +0.000 A 
ATOM     18  C   UNL     1      50.673   6.112  16.786  0.00  0.00    +0.000 A 
ATOM     19  C   UNL     1      49.345   6.194  16.350  0.00  0.00    +0.000 A 
ATOM     20  C   UNL     1      48.481   5.117  16.603  0.00  0.00    +0.000 A 
BRANCH  15  21
ATOM     21  C   UNL     1      47.981   2.823  17.540  0.00  0.00    +0.000 C 
BRANCH  21  22
ATOM     22  N   UNL     1      46.592   3.267  17.558  0.00  0.00    +0.000 NA
ATOM     23  H   UNL     1      46.001   2.499  17.871  0.00  0.00    +0.000 HD
ATOM     24  H   UNL     1      46.304   3.480  16.604  0.00  0.00    +0.000 HD
ENDBRANCH  21  22
ENDBRANCH  15  21
ENDBRANCH  14  19
ENDBRANCH   1  14
TORSDOF 8
ENDMDL
