MODEL 1
REMARK VINA RESULT:    -8.776      0.000      0.000
REMARK INTER + INTRA:         -14.104
REMARK INTER:                 -12.880
REMARK INTRA:                  -1.223
REMARK UNBOUND:                -1.223
REMARK  Name = 
REMARK  9 active torsions:
REMARK  status: ('A' for Active; 'I' for Inactive)
REMARK    1  A    between atoms: C_1  and  C_2
REMARK    2  A    between atoms: C_2  and  C_3
REMARK    3  A    between atoms: C_3  and  N_4
REMARK    4  A    between atoms: C_3  and  C_12
REMARK    5  A    between atoms: N_4  and  C_5
REMARK    6  A    between atoms: C_5  and  C_6
REMARK    7  A    between atoms: C_15  and  C_16
REMARK    8  A    between atoms: C_16  and  N_17
REMARK    9  A    between atoms: C_18  and  C_20
REMARK                            x       y       z     vdW  Elec       q    Type
REMARK                         _______ _______ _______ _____ _____    ______ ____
ROOT
ATOM      1  C   UNL     1      45.440   4.428  12.274  0.00  0.00    +0.000 A 
ATOM      2  C   UNL     1      45.875   5.588  11.606  0.00  0.00    +0.000 A 
ATOM      3  C   UNL     1      46.828   6.439  12.175  0.00  0.00    +0.000 A 
ATOM      4  C   UNL     1      47.420   6.118  13.401  0.00  0.00    +0.000 A 
ATOM      5  C   UNL     1      46.999   4.965  14.070  0.00  0.00    +0.000 A 
ATOM      6  C   UNL     1      46.012   4.140  13.521  0.00  0.00    +0.000 A 
ENDROOT
BRANCH   1   7
ATOM      7  C   UNL     1      44.318   3.571  11.669  0.00  0.00    +0.000 C 
BRANCH   7   9
ATOM      8  C   UNL     1      42.443   5.376  11.802  0.00  0.00    +0.000 C 
ATOM      9  C   UNL     1      43.284   4.458  10.924  0.00  0.00    +0.000 C 
ENDBRANCH   7   9
BRANCH   7  10
ATOM     10  N   UNL     1      44.842   2.503  10.788  0.00  0.00    +0.000 NA
ATOM     11  H   UNL     1      44.505   1.603  11.121  0.00  0.00    +0.000 HD
BRANCH  10  12
ATOM     12  C   UNL     1      44.401   2.678   9.396  0.00  0.00    +0.000 C 
BRANCH  12  13
ATOM     13  C   UNL     1      45.481   2.521   8.350  0.00  0.00    +0.000 A 
ATOM     14  C   UNL     1      45.877   3.650   7.606  0.00  0.00    +0.000 A 
ATOM     15  C   UNL     1      46.944   3.582   6.710  0.00  0.00    +0.000 A 
ATOM     16  C   UNL     1      47.635   2.385   6.551  0.00  0.00    +0.000 A 
ATOM     17  C   UNL     1      47.254   1.258   7.281  0.00  0.00    +0.000 A 
ATOM     18  C   UNL     1      46.186   1.327   8.180  0.00  0.00    +0.000 A 
ENDBRANCH  12  13
ENDBRANCH  10  12
ENDBRANCH   7  10
ENDBRANCH   1   7
BRANCH   4  19
ATOM     19  C   UNL     1      48.464   7.011  14.021  0.00  0.00    +0.000 C 
BRANCH  19  20
ATOM     20  N   UNL     1      48.240   7.180  15.432  0.00  0.00    +0.000 N 
ATOM     21  C   UNL     1      49.151   6.719  16.348  0.00  0.00    +0.000 C 
ATOM     22  O   UNL     1      50.210   6.205  16.000  0.00  0.00    +0.000 OA
ATOM     23  H   UNL     1      47.290   7.389  15.730  0.00  0.00    +0.000 HD
BRANCH  21  24
ATOM     24  C   UNL     1      48.825   6.921  17.764  0.00  0.00    +0.000 A 
ATOM     25  C   UNL     1      48.605   8.208  18.235  0.00  0.00    +0.000 A 
ATOM     26  S   UNL     1      48.197   8.273  19.890  0.00  0.00    +0.000 S 
ATOM     27  C   UNL     1      48.363   6.586  20.050  0.00  0.00    +0.000 A 
ATOM     28  N   UNL     1      48.177   5.978  21.254  0.00  0.00    +0.000 NA
ATOM     29  C   UNL     1      48.358   4.699  21.237  0.00  0.00    +0.000 A 
ATOM     30  N   UNL     1      48.702   3.975  20.126  0.00  0.00    +0.000 N 
ATOM     31  C   UNL     1      48.878   4.542  18.887  0.00  0.00    +0.000 A 
ATOM     32  O   UNL     1      49.151   3.858  17.907  0.00  0.00    +0.000 OA
ATOM     33  C   UNL     1      48.696   5.980  18.852  0.00  0.00    +0.000 A 
ATOM     34  H   UNL     1      48.820   2.974  20.182  0.00  0.00    +0.000 HD
ENDBRANCH  21  24
ENDBRANCH  19  20
ENDBRANCH   4  19
TORSDOF 8
ENDMDL
MODEL 2
REMARK VINA RESULT:    -8.456      1.417      2.310
REMARK INTER + INTRA:         -13.634
REMARK INTER:                 -12.195
REMARK INTRA:                  -1.439
REMARK UNBOUND:                -1.223
REMARK  Name = 
REMARK  9 active torsions:
REMARK  status: ('A' for Active; 'I' for Inactive)
REMARK    1  A    between atoms: C_1  and  C_2
REMARK    2  A    between atoms: C_2  and  C_3
REMARK    3  A    between atoms: C_3  and  N_4
REMARK    4  A    between atoms: C_3  and  C_12
REMARK    5  A    between atoms: N_4  and  C_5
REMARK    6  A    between atoms: C_5  and  C_6
REMARK    7  A    between atoms: C_15  and  C_16
REMARK    8  A    between atoms: C_16  and  N_17
REMARK    9  A    between atoms: C_18  and  C_20
REMARK                            x       y       z     vdW  Elec       q    Type
REMARK                         _______ _______ _______ _____ _____    ______ ____
ROOT
ATOM      1  C   UNL     1      45.621   4.977  11.905  0.00  0.00    +0.000 A 
ATOM      2  C   UNL     1      45.920   4.473  13.184  0.00  0.00    +0.000 A 
ATOM      3  C   UNL     1      46.880   5.085  13.998  0.00  0.00    +0.000 A 
ATOM      4  C   UNL     1      47.519   6.256  13.580  0.00  0.00    +0.000 A 
ATOM      5  C   UNL     1      47.223   6.768  12.313  0.00  0.00    +0.000 A 
ATOM      6  C   UNL     1      46.297   6.129  11.482  0.00  0.00    +0.000 A 
ENDROOT
BRANCH   1   7
ATOM      7  C   UNL     1      44.638   4.223  10.996  0.00  0.00    +0.000 C 
BRANCH   7   9
ATOM      8  C   UNL     1      42.517   5.578  11.672  0.00  0.00    +0.000 C 
ATOM      9  C   UNL     1      43.209   4.223  11.605  0.00  0.00    +0.000 C 
ENDBRANCH   7   9
BRANCH   7  10
ATOM     10  N   UNL     1      44.632   4.752   9.614  0.00  0.00    +0.000 NA
ATOM     11  H   UNL     1      45.542   5.162   9.412  0.00  0.00    +0.000 HD
BRANCH  10  12
ATOM     12  C   UNL     1      44.369   3.696   8.625  0.00  0.00    +0.000 C 
BRANCH  12  13
ATOM     13  C   UNL     1      45.596   2.997   8.083  0.00  0.00    +0.000 A 
ATOM     14  C   UNL     1      45.759   1.620   8.330  0.00  0.00    +0.000 A 
ATOM     15  C   UNL     1      46.813   0.908   7.759  0.00  0.00    +0.000 A 
ATOM     16  C   UNL     1      47.715   1.563   6.924  0.00  0.00    +0.000 A 
ATOM     17  C   UNL     1      47.565   2.927   6.670  0.00  0.00    +0.000 A 
ATOM     18  C   UNL     1      46.508   3.640   7.242  0.00  0.00    +0.000 A 
ENDBRANCH  12  13
ENDBRANCH  10  12
ENDBRANCH   7  10
ENDBRANCH   1   7
BRANCH   4  19
ATOM     19  C   UNL     1      48.539   6.942  14.451  0.00  0.00    +0.000 C 
BRANCH  19  20
ATOM     20  N   UNL     1      48.288   6.698  15.846  0.00  0.00    +0.000 N 
ATOM     21  C   UNL     1      49.259   6.157  16.650  0.00  0.00    +0.000 C 
ATOM     22  O   UNL     1      50.388   5.922  16.227  0.00  0.00    +0.000 OA
ATOM     23  H   UNL     1      47.316   6.672  16.147  0.00  0.00    +0.000 HD
BRANCH  21  24
ATOM     24  C   UNL     1      48.903   5.926  18.055  0.00  0.00    +0.000 A 
ATOM     25  C   UNL     1      49.073   4.662  18.601  0.00  0.00    +0.000 A 
ATOM     26  S   UNL     1      48.654   4.565  20.251  0.00  0.00    +0.000 S 
ATOM     27  C   UNL     1      48.169   6.197  20.278  0.00  0.00    +0.000 A 
ATOM     28  N   UNL     1      47.666   6.757  21.412  0.00  0.00    +0.000 NA
ATOM     29  C   UNL     1      47.317   7.994  21.284  0.00  0.00    +0.000 A 
ATOM     30  N   UNL     1      47.431   8.721  20.128  0.00  0.00    +0.000 N 
ATOM     31  C   UNL     1      47.953   8.205  18.967  0.00  0.00    +0.000 A 
ATOM     32  O   UNL     1      48.073   8.894  17.961  0.00  0.00    +0.000 OA
ATOM     33  C   UNL     1      48.353   6.813  19.053  0.00  0.00    +0.000 A 
ATOM     34  H   UNL     1      47.145   9.689  20.099  0.00  0.00    +0.000 HD
ENDBRANCH  21  24
ENDBRANCH  19  20
ENDBRANCH   4  19
TORSDOF 8
ENDMDL
MODEL 3
REMARK VINA RESULT:    -8.322      2.420      3.012
REMARK INTER + INTRA:         -13.437
REMARK INTER:                 -12.032
REMARK INTRA:                  -1.405
REMARK UNBOUND:                -1.223
REMARK  Name = 
REMARK  9 active torsions:
REMARK  status: ('A' for Active; 'I' for Inactive)
REMARK    1  A    between atoms: C_1  and  C_2
REMARK    2  A    between atoms: C_2  and  C_3
REMARK    3  A    between atoms: C_3  and  N_4
REMARK    4  A    between atoms: C_3  and  C_12
REMARK    5  A    between atoms: N_4  and  C_5
REMARK    6  A    between atoms: C_5  and  C_6
REMARK    7  A    between atoms: C_15  and  C_16
REMARK    8  A    between atoms: C_16  and  N_17
REMARK    9  A    between atoms: C_18  and  C_20
REMARK                            x       y       z     vdW  Elec       q    Type
REMARK                         _______ _______ _______ _____ _____    ______ ____
ROOT
ATOM      1  C   UNL     1      46.008   5.162  12.198  0.00  0.00    +0.000 A 
ATOM      2  C   UNL     1      46.401   4.486  13.368  0.00  0.00    +0.000 A 
ATOM      3  C   UNL     1      47.213   5.106  14.326  0.00  0.00    +0.000 A 
ATOM      4  C   UNL     1      47.598   6.441  14.169  0.00  0.00    +0.000 A 
ATOM      5  C   UNL     1      47.206   7.122  13.013  0.00  0.00    +0.000 A 
ATOM      6  C   UNL     1      46.434   6.487  12.035  0.00  0.00    +0.000 A 
ENDROOT
BRANCH   1   7
ATOM      7  C   UNL     1      45.203   4.420  11.120  0.00  0.00    +0.000 C 
BRANCH   7   9
ATOM      8  C   UNL     1      43.323   2.749  11.798  0.00  0.00    +0.000 C 
ATOM      9  C   UNL     1      43.737   4.198  11.578  0.00  0.00    +0.000 C 
ENDBRANCH   7   9
BRANCH   7  10
ATOM     10  N   UNL     1      45.258   5.105   9.809  0.00  0.00    +0.000 NA
ATOM     11  H   UNL     1      46.231   5.286   9.569  0.00  0.00    +0.000 HD
BRANCH  10  12
ATOM     12  C   UNL     1      44.661   4.289   8.741  0.00  0.00    +0.000 C 
BRANCH  12  13
ATOM     13  C   UNL     1      45.579   3.258   8.124  0.00  0.00    +0.000 A 
ATOM     14  C   UNL     1      46.595   3.690   7.248  0.00  0.00    +0.000 A 
ATOM     15  C   UNL     1      47.535   2.792   6.742  0.00  0.00    +0.000 A 
ATOM     16  C   UNL     1      47.477   1.452   7.112  0.00  0.00    +0.000 A 
ATOM     17  C   UNL     1      46.476   1.010   7.979  0.00  0.00    +0.000 A 
ATOM     18  C   UNL     1      45.535   1.910   8.487  0.00  0.00    +0.000 A 
ENDBRANCH  12  13
ENDBRANCH  10  12
ENDBRANCH   7  10
ENDBRANCH   1   7
BRANCH   4  19
ATOM     19  C   UNL     1      48.453   7.132  15.199  0.00  0.00    +0.000 C 
BRANCH  19  20
ATOM     20  N   UNL     1      49.497   6.267  15.681  0.00  0.00    +0.000 N 
ATOM     21  C   UNL     1      49.733   6.135  17.026  0.00  0.00    +0.000 C 
ATOM     22  O   UNL     1      49.030   6.696  17.862  0.00  0.00    +0.000 OA
ATOM     23  H   UNL     1      50.213   5.986  15.015  0.00  0.00    +0.000 HD
BRANCH  21  24
ATOM     24  C   UNL     1      50.832   5.245  17.420  0.00  0.00    +0.000 A 
ATOM     25  C   UNL     1      52.020   5.794  17.882  0.00  0.00    +0.000 A 
ATOM     26  S   UNL     1      53.181   4.632  18.339  0.00  0.00    +0.000 S 
ATOM     27  C   UNL     1      52.159   3.352  17.875  0.00  0.00    +0.000 A 
ATOM     28  N   UNL     1      52.569   2.058  17.980  0.00  0.00    +0.000 NA
ATOM     29  C   UNL     1      51.703   1.191  17.571  0.00  0.00    +0.000 A 
ATOM     30  N   UNL     1      50.465   1.501  17.072  0.00  0.00    +0.000 N 
ATOM     31  C   UNL     1      50.001   2.790  16.968  0.00  0.00    +0.000 A 
ATOM     32  O   UNL     1      48.874   3.029  16.550  0.00  0.00    +0.000 OA
ATOM     33  C   UNL     1      50.939   3.805  17.406  0.00  0.00    +0.000 A 
ATOM     34  H   UNL     1      49.834   0.771  16.775  0.00  0.00    +0.000 HD
ENDBRANCH  21  24
ENDBRANCH  19  20
ENDBRANCH   4  19
TORSDOF 8
ENDMDL
MODEL 4
REMARK VINA RESULT:    -8.159      1.065      1.613
REMARK INTER + INTRA:         -13.199
REMARK INTER:                 -11.845
REMARK INTRA:                  -1.354
REMARK UNBOUND:                -1.223
REMARK  Name = 
REMARK  9 active torsions:
REMARK  status: ('A' for Active; 'I' for Inactive)
REMARK    1  A    between atoms: C_1  and  C_2
REMARK    2  A    between atoms: C_2  and  C_3
REMARK    3  A    between atoms: C_3  and  N_4
REMARK    4  A    between atoms: C_3  and  C_12
REMARK    5  A    between atoms: N_4  and  C_5
REMARK    6  A    between atoms: C_5  and  C_6
REMARK    7  A    between atoms: C_15  and  C_16
REMARK    8  A    between atoms: C_16  and  N_17
REMARK    9  A    between atoms: C_18  and  C_20
REMARK                            x       y       z     vdW  Elec       q    Type
REMARK                         _______ _______ _______ _____ _____    ______ ____
ROOT
ATOM      1  C   UNL     1      45.692   5.074  11.864  0.00  0.00    +0.000 A 
ATOM      2  C   UNL     1      46.205   4.731  13.130  0.00  0.00    +0.000 A 
ATOM      3  C   UNL     1      47.276   5.434  13.693  0.00  0.00    +0.000 A 
ATOM      4  C   UNL     1      47.820   6.541  13.033  0.00  0.00    +0.000 A 
ATOM      5  C   UNL     1      47.313   6.893  11.779  0.00  0.00    +0.000 A 
ATOM      6  C   UNL     1      46.273   6.160  11.197  0.00  0.00    +0.000 A 
ENDROOT
BRANCH   1   7
ATOM      7  C   UNL     1      44.585   4.218  11.230  0.00  0.00    +0.000 C 
BRANCH   7   9
ATOM      8  C   UNL     1      42.429   5.585  11.754  0.00  0.00    +0.000 C 
ATOM      9  C   UNL     1      43.262   4.341  12.033  0.00  0.00    +0.000 C 
ENDBRANCH   7   9
BRANCH   7  10
ATOM     10  N   UNL     1      44.377   4.540   9.801  0.00  0.00    +0.000 NA
ATOM     11  H   UNL     1      45.182   5.061   9.458  0.00  0.00    +0.000 HD
BRANCH  10  12
ATOM     12  C   UNL     1      44.228   3.326   8.984  0.00  0.00    +0.000 C 
BRANCH  12  13
ATOM     13  C   UNL     1      45.488   2.847   8.299  0.00  0.00    +0.000 A 
ATOM     14  C   UNL     1      45.827   1.482   8.376  0.00  0.00    +0.000 A 
ATOM     15  C   UNL     1      46.917   0.973   7.670  0.00  0.00    +0.000 A 
ATOM     16  C   UNL     1      47.678   1.820   6.870  0.00  0.00    +0.000 A 
ATOM     17  C   UNL     1      47.353   3.175   6.784  0.00  0.00    +0.000 A 
ATOM     18  C   UNL     1      46.261   3.685   7.491  0.00  0.00    +0.000 A 
ENDBRANCH  12  13
ENDBRANCH  10  12
ENDBRANCH   7  10
ENDBRANCH   1   7
BRANCH   4  19
ATOM     19  C   UNL     1      48.959   7.324  13.633  0.00  0.00    +0.000 C 
BRANCH  19  20
ATOM     20  N   UNL     1      48.677   7.705  14.991  0.00  0.00    +0.000 N 
ATOM     21  C   UNL     1      49.404   7.186  16.032  0.00  0.00    +0.000 C 
ATOM     22  O   UNL     1      50.354   6.431  15.840  0.00  0.00    +0.000 OA
ATOM     23  H   UNL     1      47.773   8.135  15.176  0.00  0.00    +0.000 HD
BRANCH  21  24
ATOM     24  C   UNL     1      49.029   7.619  17.383  0.00  0.00    +0.000 A 
ATOM     25  C   UNL     1      49.369   8.896  17.807  0.00  0.00    +0.000 A 
ATOM     26  S   UNL     1      48.828   9.264  19.381  0.00  0.00    +0.000 S 
ATOM     27  C   UNL     1      48.174   7.704  19.577  0.00  0.00    +0.000 A 
ATOM     28  N   UNL     1      47.575   7.340  20.744  0.00  0.00    +0.000 NA
ATOM     29  C   UNL     1      47.145   6.122  20.763  0.00  0.00    +0.000 A 
ATOM     30  N   UNL     1      47.256   5.239  19.721  0.00  0.00    +0.000 N 
ATOM     31  C   UNL     1      47.832   5.569  18.518  0.00  0.00    +0.000 A 
ATOM     32  O   UNL     1      47.882   4.765  17.594  0.00  0.00    +0.000 OA
ATOM     33  C   UNL     1      48.341   6.925  18.446  0.00  0.00    +0.000 A 
ATOM     34  H   UNL     1      46.891   4.301  19.801  0.00  0.00    +0.000 HD
ENDBRANCH  21  24
ENDBRANCH  19  20
ENDBRANCH   4  19
TORSDOF 8
ENDMDL
MODEL 5
REMARK VINA RESULT:    -7.696      1.874      2.325
REMARK INTER + INTRA:         -12.519
REMARK INTER:                 -11.206
REMARK INTRA:                  -1.313
REMARK UNBOUND:                -1.223
REMARK  Name = 
REMARK  9 active torsions:
REMARK  status: ('A' for Active; 'I' for Inactive)
REMARK    1  A    between atoms: C_1  and  C_2
REMARK    2  A    between atoms: C_2  and  C_3
REMARK    3  A    between atoms: C_3  and  N_4
REMARK    4  A    between atoms: C_3  and  C_12
REMARK    5  A    between atoms: N_4  and  C_5
REMARK    6  A    between atoms: C_5  and  C_6
REMARK    7  A    between atoms: C_15  and  C_16
REMARK    8  A    between atoms: C_16  and  N_17
REMARK    9  A    between atoms: C_18  and  C_20
REMARK                            x       y       z     vdW  Elec       q    Type
REMARK                         _______ _______ _______ _____ _____    ______ ____
ROOT
ATOM      1  C   UNL     1      45.742   6.358  11.623  0.00  0.00    +0.000 A 
ATOM      2  C   UNL     1      45.295   7.659  11.922  0.00  0.00    +0.000 A 
ATOM      3  C   UNL     1      46.056   8.522  12.718  0.00  0.00    +0.000 A 
ATOM      4  C   UNL     1      47.314   8.129  13.184  0.00  0.00    +0.000 A 
ATOM      5  C   UNL     1      47.769   6.842  12.887  0.00  0.00    +0.000 A 
ATOM      6  C   UNL     1      46.987   5.963  12.130  0.00  0.00    +0.000 A 
ENDROOT
BRANCH   1   7
ATOM      7  C   UNL     1      44.837   5.401  10.833  0.00  0.00    +0.000 C 
BRANCH   7   9
ATOM      8  C   UNL     1      42.662   5.012  12.214  0.00  0.00    +0.000 C 
ATOM      9  C   UNL     1      43.339   5.740  11.061  0.00  0.00    +0.000 C 
ENDBRANCH   7   9
BRANCH   7  10
ATOM     10  N   UNL     1      45.169   5.379   9.390  0.00  0.00    +0.000 NA
ATOM     11  H   UNL     1      46.181   5.391   9.283  0.00  0.00    +0.000 HD
BRANCH  10  12
ATOM     12  C   UNL     1      44.646   4.175   8.728  0.00  0.00    +0.000 C 
BRANCH  12  13
ATOM     13  C   UNL     1      45.691   3.264   8.123  0.00  0.00    +0.000 A 
ATOM     14  C   UNL     1      45.709   1.907   8.498  0.00  0.00    +0.000 A 
ATOM     15  C   UNL     1      46.579   1.004   7.886  0.00  0.00    +0.000 A 
ATOM     16  C   UNL     1      47.438   1.446   6.884  0.00  0.00    +0.000 A 
ATOM     17  C   UNL     1      47.430   2.788   6.501  0.00  0.00    +0.000 A 
ATOM     18  C   UNL     1      46.557   3.692   7.114  0.00  0.00    +0.000 A 
ENDBRANCH  12  13
ENDBRANCH  10  12
ENDBRANCH   7  10
ENDBRANCH   1   7
BRANCH   4  19
ATOM     19  C   UNL     1      48.158   9.052  14.025  0.00  0.00    +0.000 C 
BRANCH  19  20
ATOM     20  N   UNL     1      48.858   8.332  15.055  0.00  0.00    +0.000 N 
ATOM     21  C   UNL     1      48.612   8.586  16.380  0.00  0.00    +0.000 C 
ATOM     22  O   UNL     1      47.749   9.386  16.733  0.00  0.00    +0.000 OA
ATOM     23  H   UNL     1      49.712   7.849  14.787  0.00  0.00    +0.000 HD
BRANCH  21  24
ATOM     24  C   UNL     1      49.388   7.815  17.358  0.00  0.00    +0.000 A 
ATOM     25  C   UNL     1      50.157   8.486  18.298  0.00  0.00    +0.000 A 
ATOM     26  S   UNL     1      50.966   7.454  19.387  0.00  0.00    +0.000 S 
ATOM     27  C   UNL     1      50.367   6.068  18.599  0.00  0.00    +0.000 A 
ATOM     28  N   UNL     1      50.713   4.821  19.022  0.00  0.00    +0.000 NA
ATOM     29  C   UNL     1      50.206   3.863  18.320  0.00  0.00    +0.000 A 
ATOM     30  N   UNL     1      49.382   4.039  17.239  0.00  0.00    +0.000 N 
ATOM     31  C   UNL     1      48.989   5.277  16.791  0.00  0.00    +0.000 A 
ATOM     32  O   UNL     1      48.223   5.397  15.842  0.00  0.00    +0.000 OA
ATOM     33  C   UNL     1      49.539   6.391  17.539  0.00  0.00    +0.000 A 
ATOM     34  H   UNL     1      49.015   3.243  16.738  0.00  0.00    +0.000 HD
ENDBRANCH  21  24
ENDBRANCH  19  20
ENDBRANCH   4  19
TORSDOF 8
ENDMDL
MODEL 6
REMARK VINA RESULT:    -7.458      4.917      6.233
REMARK INTER + INTRA:         -12.169
REMARK INTER:                 -10.933
REMARK INTRA:                  -1.236
REMARK UNBOUND:                -1.223
REMARK  Name = 
REMARK  9 active torsions:
REMARK  status: ('A' for Active; 'I' for Inactive)
REMARK    1  A    between atoms: C_1  and  C_2
REMARK    2  A    between atoms: C_2  and  C_3
REMARK    3  A    between atoms: C_3  and  N_4
REMARK    4  A    between atoms: C_3  and  C_12
REMARK    5  A    between atoms: N_4  and  C_5
REMARK    6  A    between atoms: C_5  and  C_6
REMARK    7  A    between atoms: C_15  and  C_16
REMARK    8  A    between atoms: C_16  and  N_17
REMARK    9  A    between atoms: C_18  and  C_20
REMARK                            x       y       z     vdW  Elec       q    Type
REMARK                         _______ _______ _______ _____ _____    ______ ____
ROOT
ATOM      1  C   UNL     1      45.273   6.107  11.426  0.00  0.00    +0.000 A 
ATOM      2  C   UNL     1      44.695   7.386  11.332  0.00  0.00    +0.000 A 
ATOM      3  C   UNL     1      45.346   8.516  11.839  0.00  0.00    +0.000 A 
ATOM      4  C   UNL     1      46.625   8.405  12.395  0.00  0.00    +0.000 A 
ATOM      5  C   UNL     1      47.210   7.139  12.487  0.00  0.00    +0.000 A 
ATOM      6  C   UNL     1      46.537   6.004  12.022  0.00  0.00    +0.000 A 
ENDROOT
BRANCH   1   7
ATOM      7  C   UNL     1      44.487   4.875  10.953  0.00  0.00    +0.000 C 
BRANCH   7   9
ATOM      8  C   UNL     1      42.939   4.951  13.048  0.00  0.00    +0.000 C 
ATOM      9  C   UNL     1      43.046   4.882  11.531  0.00  0.00    +0.000 C 
ENDBRANCH   7   9
BRANCH   7  10
ATOM     10  N   UNL     1      44.473   4.751   9.478  0.00  0.00    +0.000 NA
ATOM     11  H   UNL     1      45.335   5.142   9.104  0.00  0.00    +0.000 HD
BRANCH  10  12
ATOM     12  C   UNL     1      44.375   3.348   9.048  0.00  0.00    +0.000 C 
BRANCH  12  13
ATOM     13  C   UNL     1      45.552   2.832   8.251  0.00  0.00    +0.000 A 
ATOM     14  C   UNL     1      45.938   1.486   8.404  0.00  0.00    +0.000 A 
ATOM     15  C   UNL     1      46.943   0.933   7.610  0.00  0.00    +0.000 A 
ATOM     16  C   UNL     1      47.571   1.717   6.647  0.00  0.00    +0.000 A 
ATOM     17  C   UNL     1      47.198   3.053   6.485  0.00  0.00    +0.000 A 
ATOM     18  C   UNL     1      46.190   3.606   7.279  0.00  0.00    +0.000 A 
ENDBRANCH  12  13
ENDBRANCH  10  12
ENDBRANCH   7  10
ENDBRANCH   1   7
BRANCH   4  19
ATOM     19  C   UNL     1      47.352   9.613  12.927  0.00  0.00    +0.000 C 
BRANCH  19  20
ATOM     20  N   UNL     1      48.722   9.637  12.487  0.00  0.00    +0.000 N 
ATOM     21  C   UNL     1      49.092  10.365  11.384  0.00  0.00    +0.000 C 
ATOM     22  O   UNL     1      48.288  11.065  10.775  0.00  0.00    +0.000 OA
ATOM     23  H   UNL     1      49.334   8.902  12.832  0.00  0.00    +0.000 HD
BRANCH  21  24
ATOM     24  C   UNL     1      50.508  10.312  11.002  0.00  0.00    +0.000 A 
ATOM     25  C   UNL     1      51.182  11.492  10.721  0.00  0.00    +0.000 A 
ATOM     26  S   UNL     1      52.827  11.269  10.334  0.00  0.00    +0.000 S 
ATOM     27  C   UNL     1      52.681   9.577  10.465  0.00  0.00    +0.000 A 
ATOM     28  N   UNL     1      53.746   8.764  10.222  0.00  0.00    +0.000 NA
ATOM     29  C   UNL     1      53.489   7.504  10.334  0.00  0.00    +0.000 A 
ATOM     30  N   UNL     1      52.267   6.984  10.674  0.00  0.00    +0.000 N 
ATOM     31  C   UNL     1      51.171   7.766  10.950  0.00  0.00    +0.000 A 
ATOM     32  O   UNL     1      50.102   7.269  11.285  0.00  0.00    +0.000 OA
ATOM     33  C   UNL     1      51.403   9.193  10.828  0.00  0.00    +0.000 A 
ATOM     34  H   UNL     1      52.137   5.986  10.751  0.00  0.00    +0.000 HD
ENDBRANCH  21  24
ENDBRANCH  19  20
ENDBRANCH   4  19
TORSDOF 8
ENDMDL
MODEL 7
REMARK VINA RESULT:    -7.344      3.480      8.561
REMARK INTER + INTRA:         -12.002
REMARK INTER:                 -10.044
REMARK INTRA:                  -1.958
REMARK UNBOUND:                -1.223
REMARK  Name = 
REMARK  9 active torsions:
REMARK  status: ('A' for Active; 'I' for Inactive)
REMARK    1  A    between atoms: C_1  and  C_2
REMARK    2  A    between atoms: C_2  and  C_3
REMARK    3  A    between atoms: C_3  and  N_4
REMARK    4  A    between atoms: C_3  and  C_12
REMARK    5  A    between atoms: N_4  and  C_5
REMARK    6  A    between atoms: C_5  and  C_6
REMARK    7  A    between atoms: C_15  and  C_16
REMARK    8  A    between atoms: C_16  and  N_17
REMARK    9  A    between atoms: C_18  and  C_20
REMARK                            x       y       z     vdW  Elec       q    Type
REMARK                         _______ _______ _______ _____ _____    ______ ____
ROOT
ATOM      1  C   UNL     1      48.638   7.539  16.545  0.00  0.00    +0.000 A 
ATOM      2  C   UNL     1      48.694   6.428  15.684  0.00  0.00    +0.000 A 
ATOM      3  C   UNL     1      48.575   6.577  14.298  0.00  0.00    +0.000 A 
ATOM      4  C   UNL     1      48.463   7.851  13.731  0.00  0.00    +0.000 A 
ATOM      5  C   UNL     1      48.413   8.961  14.578  0.00  0.00    +0.000 A 
ATOM      6  C   UNL     1      48.486   8.807  15.966  0.00  0.00    +0.000 A 
ENDROOT
BRANCH   1   7
ATOM      7  C   UNL     1      48.668   7.331  18.067  0.00  0.00    +0.000 C 
BRANCH   7   9
ATOM      8  C   UNL     1      47.329   9.182  19.321  0.00  0.00    +0.000 C 
ATOM      9  C   UNL     1      48.679   8.693  18.812  0.00  0.00    +0.000 C 
ENDBRANCH   7   9
BRANCH   7  10
ATOM     10  N   UNL     1      47.560   6.470  18.537  0.00  0.00    +0.000 NA
ATOM     11  H   UNL     1      47.025   6.149  17.733  0.00  0.00    +0.000 HD
BRANCH  10  12
ATOM     12  C   UNL     1      48.054   5.293  19.267  0.00  0.00    +0.000 C 
BRANCH  12  13
ATOM     13  C   UNL     1      48.560   4.161  18.401  0.00  0.00    +0.000 A 
ATOM     14  C   UNL     1      47.655   3.504  17.544  0.00  0.00    +0.000 A 
ATOM     15  C   UNL     1      48.095   2.531  16.647  0.00  0.00    +0.000 A 
ATOM     16  C   UNL     1      49.447   2.206  16.589  0.00  0.00    +0.000 A 
ATOM     17  C   UNL     1      50.354   2.849  17.432  0.00  0.00    +0.000 A 
ATOM     18  C   UNL     1      49.914   3.825  18.330  0.00  0.00    +0.000 A 
ENDBRANCH  12  13
ENDBRANCH  10  12
ENDBRANCH   7  10
ENDBRANCH   1   7
BRANCH   4  19
ATOM     19  C   UNL     1      48.356   8.034  12.239  0.00  0.00    +0.000 C 
BRANCH  19  20
ATOM     20  N   UNL     1      47.662   6.934  11.624  0.00  0.00    +0.000 N 
ATOM     21  C   UNL     1      46.297   6.956  11.482  0.00  0.00    +0.000 C 
ATOM     22  O   UNL     1      45.631   7.932  11.815  0.00  0.00    +0.000 OA
ATOM     23  H   UNL     1      48.159   6.049  11.556  0.00  0.00    +0.000 HD
BRANCH  21  24
ATOM     24  C   UNL     1      45.678   5.781  10.860  0.00  0.00    +0.000 A 
ATOM     25  C   UNL     1      45.807   5.587   9.491  0.00  0.00    +0.000 A 
ATOM     26  S   UNL     1      45.068   4.158   8.927  0.00  0.00    +0.000 S 
ATOM     27  C   UNL     1      44.494   3.778  10.485  0.00  0.00    +0.000 A 
ATOM     28  N   UNL     1      43.740   2.665  10.698  0.00  0.00    +0.000 NA
ATOM     29  C   UNL     1      43.352   2.512  11.921  0.00  0.00    +0.000 A 
ATOM     30  N   UNL     1      43.656   3.367  12.948  0.00  0.00    +0.000 N 
ATOM     31  C   UNL     1      44.432   4.489  12.784  0.00  0.00    +0.000 A 
ATOM     32  O   UNL     1      44.713   5.213  13.732  0.00  0.00    +0.000 OA
ATOM     33  C   UNL     1      44.886   4.714  11.425  0.00  0.00    +0.000 A 
ATOM     34  H   UNL     1      43.325   3.183  13.884  0.00  0.00    +0.000 HD
ENDBRANCH  21  24
ENDBRANCH  19  20
ENDBRANCH   4  19
TORSDOF 8
ENDMDL
MODEL 8
REMARK VINA RESULT:    -7.325      3.885      9.875
REMARK INTER + INTRA:         -11.974
REMARK INTER:                  -9.823
REMARK INTRA:                  -2.151
REMARK UNBOUND:                -1.223
REMARK  Name = 
REMARK  9 active torsions:
REMARK  status: ('A' for Active; 'I' for Inactive)
REMARK    1  A    between atoms: C_1  and  C_2
REMARK    2  A    between atoms: C_2  and  C_3
REMARK    3  A    between atoms: C_3  and  N_4
REMARK    4  A    between atoms: C_3  and  C_12
REMARK    5  A    between atoms: N_4  and  C_5
REMARK    6  A    between atoms: C_5  and  C_6
REMARK    7  A    between atoms: C_15  and  C_16
REMARK    8  A    between atoms: C_16  and  N_17
REMARK    9  A    between atoms: C_18  and  C_20
REMARK                            x       y       z     vdW  Elec       q    Type
REMARK                         _______ _______ _______ _____ _____    ______ ____
ROOT
ATOM      1  C   UNL     1      51.306   4.629  17.701  0.00  0.00    +0.000 A 
ATOM      2  C   UNL     1      50.891   3.286  17.770  0.00  0.00    +0.000 A 
ATOM      3  C   UNL     1      49.582   2.914  17.444  0.00  0.00    +0.000 A 
ATOM      4  C   UNL     1      48.671   3.867  16.978  0.00  0.00    +0.000 A 
ATOM      5  C   UNL     1      49.076   5.202  16.901  0.00  0.00    +0.000 A 
ATOM      6  C   UNL     1      50.371   5.580  17.271  0.00  0.00    +0.000 A 
ENDROOT
BRANCH   1   7
ATOM      7  C   UNL     1      52.718   5.018  18.163  0.00  0.00    +0.000 C 
BRANCH   7   9
ATOM      8  C   UNL     1      53.950   6.348  16.290  0.00  0.00    +0.000 C 
ATOM      9  C   UNL     1      53.134   6.394  17.576  0.00  0.00    +0.000 C 
ENDBRANCH   7   9
BRANCH   7  10
ATOM     10  N   UNL     1      52.851   5.001  19.637  0.00  0.00    +0.000 NA
ATOM     11  H   UNL     1      53.838   4.950  19.881  0.00  0.00    +0.000 HD
BRANCH  10  12
ATOM     12  C   UNL     1      52.283   6.211  20.250  0.00  0.00    +0.000 C 
BRANCH  12  13
ATOM     13  C   UNL     1      50.825   6.117  20.639  0.00  0.00    +0.000 A 
ATOM     14  C   UNL     1      49.999   7.243  20.459  0.00  0.00    +0.000 A 
ATOM     15  C   UNL     1      48.626   7.172  20.698  0.00  0.00    +0.000 A 
ATOM     16  C   UNL     1      48.060   5.970  21.113  0.00  0.00    +0.000 A 
ATOM     17  C   UNL     1      48.866   4.846  21.295  0.00  0.00    +0.000 A 
ATOM     18  C   UNL     1      50.242   4.917  21.055  0.00  0.00    +0.000 A 
ENDBRANCH  12  13
ENDBRANCH  10  12
ENDBRANCH   7  10
ENDBRANCH   1   7
BRANCH   4  19
ATOM     19  C   UNL     1      47.263   3.483  16.603  0.00  0.00    +0.000 C 
BRANCH  19  20
ATOM     20  N   UNL     1      46.687   4.429  15.684  0.00  0.00    +0.000 N 
ATOM     21  C   UNL     1      46.742   4.215  14.330  0.00  0.00    +0.000 C 
ATOM     22  O   UNL     1      47.224   3.188  13.859  0.00  0.00    +0.000 OA
ATOM     23  H   UNL     1      46.498   5.364  16.037  0.00  0.00    +0.000 HD
BRANCH  21  24
ATOM     24  C   UNL     1      46.145   5.245  13.473  0.00  0.00    +0.000 A 
ATOM     25  C   UNL     1      46.848   6.416  13.226  0.00  0.00    +0.000 A 
ATOM     26  S   UNL     1      46.041   7.494  12.180  0.00  0.00    +0.000 S 
ATOM     27  C   UNL     1      44.693   6.460  12.070  0.00  0.00    +0.000 A 
ATOM     28  N   UNL     1      43.603   6.810  11.333  0.00  0.00    +0.000 NA
ATOM     29  C   UNL     1      42.645   5.944  11.356  0.00  0.00    +0.000 A 
ATOM     30  N   UNL     1      42.681   4.759  12.044  0.00  0.00    +0.000 N 
ATOM     31  C   UNL     1      43.768   4.354  12.782  0.00  0.00    +0.000 A 
ATOM     32  O   UNL     1      43.780   3.271  13.356  0.00  0.00    +0.000 OA
ATOM     33  C   UNL     1      44.870   5.297  12.797  0.00  0.00    +0.000 A 
ATOM     34  H   UNL     1      41.898   4.123  12.013  0.00  0.00    +0.000 HD
ENDBRANCH  21  24
ENDBRANCH  19  20
ENDBRANCH   4  19
TORSDOF 8
ENDMDL
MODEL 9
REMARK VINA RESULT:    -7.279      3.277      9.126
REMARK INTER + INTRA:         -11.907
REMARK INTER:                  -9.908
REMARK INTRA:                  -1.999
REMARK UNBOUND:                -1.223
REMARK  Name = 
REMARK  9 active torsions:
REMARK  status: ('A' for Active; 'I' for Inactive)
REMARK    1  A    between atoms: C_1  and  C_2
REMARK    2  A    between atoms: C_2  and  C_3
REMARK    3  A    between atoms: C_3  and  N_4
REMARK    4  A    between atoms: C_3  and  C_12
REMARK    5  A    between atoms: N_4  and  C_5
REMARK    6  A    between atoms: C_5  and  C_6
REMARK    7  A    between atoms: C_15  and  C_16
REMARK    8  A    between atoms: C_16  and  N_17
REMARK    9  A    between atoms: C_18  and  C_20
REMARK                            x       y       z     vdW  Elec       q    Type
REMARK                         _______ _______ _______ _____ _____    ______ ____
ROOT
ATOM      1  C   UNL     1      48.772   7.990  16.233  0.00  0.00    +0.000 A 
ATOM      2  C   UNL     1      48.899   6.790  15.508  0.00  0.00    +0.000 A 
ATOM      3  C   UNL     1      48.473   6.696  14.179  0.00  0.00    +0.000 A 
ATOM      4  C   UNL     1      47.969   7.821  13.517  0.00  0.00    +0.000 A 
ATOM      5  C   UNL     1      47.845   9.019  14.226  0.00  0.00    +0.000 A 
ATOM      6  C   UNL     1      48.228   9.098  15.570  0.00  0.00    +0.000 A 
ENDROOT
BRANCH   1   7
ATOM      7  C   UNL     1      49.153   8.030  17.720  0.00  0.00    +0.000 C 
BRANCH   7   9
ATOM      8  C   UNL     1      48.231  10.035  19.105  0.00  0.00    +0.000 C 
ATOM      9  C   UNL     1      49.335   9.493  18.206  0.00  0.00    +0.000 C 
ENDBRANCH   7   9
BRANCH   7  10
ATOM     10  N   UNL     1      48.185   7.299  18.568  0.00  0.00    +0.000 NA
ATOM     11  H   UNL     1      47.418   6.967  17.985  0.00  0.00    +0.000 HD
BRANCH  10  12
ATOM     12  C   UNL     1      48.802   6.139  19.227  0.00  0.00    +0.000 C 
BRANCH  12  13
ATOM     13  C   UNL     1      48.704   4.834  18.469  0.00  0.00    +0.000 A 
ATOM     14  C   UNL     1      47.454   4.442  17.950  0.00  0.00    +0.000 A 
ATOM     15  C   UNL     1      47.333   3.306  17.150  0.00  0.00    +0.000 A 
ATOM     16  C   UNL     1      48.463   2.551  16.850  0.00  0.00    +0.000 A 
ATOM     17  C   UNL     1      49.708   2.928  17.357  0.00  0.00    +0.000 A 
ATOM     18  C   UNL     1      49.829   4.067  18.158  0.00  0.00    +0.000 A 
ENDBRANCH  12  13
ENDBRANCH  10  12
ENDBRANCH   7  10
ENDBRANCH   1   7
BRANCH   4  19
ATOM     19  C   UNL     1      47.525   7.746  12.079  0.00  0.00    +0.000 C 
BRANCH  19  20
ATOM     20  N   UNL     1      46.858   6.503  11.799  0.00  0.00    +0.000 N 
ATOM     21  C   UNL     1      45.489   6.419  11.827  0.00  0.00    +0.000 C 
ATOM     22  O   UNL     1      44.787   7.406  12.030  0.00  0.00    +0.000 OA
ATOM     23  H   UNL     1      47.414   5.653  11.857  0.00  0.00    +0.000 HD
BRANCH  21  24
ATOM     24  C   UNL     1      44.901   5.104  11.548  0.00  0.00    +0.000 A 
ATOM     25  C   UNL     1      44.211   4.440  12.552  0.00  0.00    +0.000 A 
ATOM     26  S   UNL     1      43.552   2.946  12.060  0.00  0.00    +0.000 S 
ATOM     27  C   UNL     1      44.221   3.105  10.502  0.00  0.00    +0.000 A 
ATOM     28  N   UNL     1      44.054   2.128   9.568  0.00  0.00    +0.000 NA
ATOM     29  C   UNL     1      44.634   2.368   8.439  0.00  0.00    +0.000 A 
ATOM     30  N   UNL     1      45.359   3.497   8.159  0.00  0.00    +0.000 N 
ATOM     31  C   UNL     1      45.535   4.517   9.062  0.00  0.00    +0.000 A 
ATOM     32  O   UNL     1      46.160   5.529   8.766  0.00  0.00    +0.000 OA
ATOM     33  C   UNL     1      44.911   4.294  10.353  0.00  0.00    +0.000 A 
ATOM     34  H   UNL     1      45.781   3.624   7.251  0.00  0.00    +0.000 HD
ENDBRANCH  21  24
ENDBRANCH  19  20
ENDBRANCH   4  19
TORSDOF 8
ENDMDL
