MODEL 1
REMARK VINA RESULT:    -7.879      0.000      0.000
REMARK INTER + INTRA:         -12.327
REMARK INTER:                 -11.103
REMARK INTRA:                  -1.224
REMARK UNBOUND:                -1.224
REMARK  Name = 
REMARK  7 active torsions:
REMARK  status: ('A' for Active; 'I' for Inactive)
REMARK    1  A    between atoms: C_2  and  C_20
REMARK    2  A    between atoms: N_3  and  C_4
REMARK    3  A    between atoms: C_4  and  C_5
REMARK    4  A    between atoms: C_8  and  C_9
REMARK    5  A    between atoms: C_9  and  N_10
REMARK    6  A    between atoms: N_10  and  C_11
REMARK    7  A    between atoms: C_11  and  C_12
REMARK                            x       y       z     vdW  Elec       q    Type
REMARK                         _______ _______ _______ _____ _____    ______ ____
ROOT
ATOM      1  C   UNL     1      46.991   6.271  12.314  0.00  0.00    +0.000 A 
ATOM      2  C   UNL     1      46.626   5.212  13.157  0.00  0.00    +0.000 A 
ATOM      3  C   UNL     1      45.600   4.325  12.795  0.00  0.00    +0.000 A 
ATOM      4  C   UNL     1      44.911   4.468  11.580  0.00  0.00    +0.000 A 
ATOM      5  C   UNL     1      45.291   5.517  10.732  0.00  0.00    +0.000 A 
ATOM      6  C   UNL     1      46.322   6.400  11.090  0.00  0.00    +0.000 A 
ENDROOT
BRANCH   1   7
ATOM      7  C   UNL     1      48.101   7.223  12.699  0.00  0.00    +0.000 C 
BRANCH   7  10
ATOM      8  O   UNL     1      48.219   8.399  15.313  0.00  0.00    +0.000 OA
ATOM      9  C   UNL     1      48.829   7.358  15.071  0.00  0.00    +0.000 C 
ATOM     10  N   UNL     1      48.825   6.734  13.845  0.00  0.00    +0.000 N 
ATOM     11  H   UNL     1      49.121   5.767  13.810  0.00  0.00    +0.000 HD
BRANCH   9  12
ATOM     12  C   UNL     1      49.561   6.603  16.087  0.00  0.00    +0.000 A 
ATOM     13  C   UNL     1      50.800   6.986  16.572  0.00  0.00    +0.000 A 
ATOM     14  S   UNL     1      51.249   6.109  17.974  0.00  0.00    +0.000 S 
ATOM     15  C   UNL     1      49.848   5.147  17.894  0.00  0.00    +0.000 A 
ATOM     16  N   UNL     1      49.562   4.242  18.854  0.00  0.00    +0.000 NA
ATOM     17  C   UNL     1      48.441   3.527  18.620  0.00  0.00    +0.000 A 
ATOM     18  C   UNL     1      47.659   3.608  17.481  0.00  0.00    +0.000 A 
ATOM     19  C   UNL     1      47.996   4.549  16.517  0.00  0.00    +0.000 A 
ATOM     20  C   UNL     1      49.092   5.409  16.758  0.00  0.00    +0.000 A 
ENDBRANCH   9  12
ENDBRANCH   7  10
ENDBRANCH   1   7
BRANCH   4  21
ATOM     21  C   UNL     1      43.812   3.506  11.151  0.00  0.00    +0.000 C 
BRANCH  21  22
ATOM     22  N   UNL     1      43.858   3.245   9.712  0.00  0.00    +0.000 NA
ATOM     23  H   UNL     1      44.386   3.997   9.266  0.00  0.00    +0.000 HD
BRANCH  22  24
ATOM     24  C   UNL     1      44.517   1.976   9.367  0.00  0.00    +0.000 C 
BRANCH  24  25
ATOM     25  C   UNL     1      45.628   2.176   8.343  0.00  0.00    +0.000 A 
ATOM     26  C   UNL     1      45.780   3.399   7.683  0.00  0.00    +0.000 A 
ATOM     27  C   UNL     1      46.820   3.560   6.771  0.00  0.00    +0.000 A 
ATOM     28  C   UNL     1      47.670   2.493   6.519  0.00  0.00    +0.000 A 
ATOM     29  C   UNL     1      47.443   1.306   7.195  0.00  0.00    +0.000 A 
ATOM     30  N   UNL     1      46.454   1.126   8.102  0.00  0.00    +0.000 NA
ENDBRANCH  24  25
ENDBRANCH  22  24
ENDBRANCH  21  22
ENDBRANCH   4  21
TORSDOF 7
ENDMDL
MODEL 2
REMARK VINA RESULT:    -7.845      2.020      2.303
REMARK INTER + INTRA:         -12.279
REMARK INTER:                 -11.434
REMARK INTRA:                  -0.846
REMARK UNBOUND:                -1.224
REMARK  Name = 
REMARK  7 active torsions:
REMARK  status: ('A' for Active; 'I' for Inactive)
REMARK    1  A    between atoms: C_2  and  C_20
REMARK    2  A    between atoms: N_3  and  C_4
REMARK    3  A    between atoms: C_4  and  C_5
REMARK    4  A    between atoms: C_8  and  C_9
REMARK    5  A    between atoms: C_9  and  N_10
REMARK    6  A    between atoms: N_10  and  C_11
REMARK    7  A    between atoms: C_11  and  C_12
REMARK                            x       y       z     vdW  Elec       q    Type
REMARK                         _______ _______ _______ _____ _____    ______ ____
ROOT
ATOM      1  C   UNL     1      46.928   6.119  13.044  0.00  0.00    +0.000 A 
ATOM      2  C   UNL     1      46.023   5.180  13.560  0.00  0.00    +0.000 A 
ATOM      3  C   UNL     1      44.921   4.751  12.804  0.00  0.00    +0.000 A 
ATOM      4  C   UNL     1      44.691   5.245  11.509  0.00  0.00    +0.000 A 
ATOM      5  C   UNL     1      45.608   6.169  10.991  0.00  0.00    +0.000 A 
ATOM      6  C   UNL     1      46.714   6.593  11.743  0.00  0.00    +0.000 A 
ENDROOT
BRANCH   1   7
ATOM      7  C   UNL     1      48.119   6.576  13.854  0.00  0.00    +0.000 C 
BRANCH   7  10
ATOM      8  O   UNL     1      50.208   6.462  15.816  0.00  0.00    +0.000 OA
ATOM      9  C   UNL     1      49.062   6.122  16.107  0.00  0.00    +0.000 C 
ATOM     10  N   UNL     1      48.007   6.144  15.224  0.00  0.00    +0.000 N 
ATOM     11  H   UNL     1      47.073   6.110  15.610  0.00  0.00    +0.000 HD
BRANCH   9  12
ATOM     12  C   UNL     1      48.659   5.738  17.460  0.00  0.00    +0.000 A 
ATOM     13  C   UNL     1      48.759   4.444  17.943  0.00  0.00    +0.000 A 
ATOM     14  S   UNL     1      48.534   4.365  19.640  0.00  0.00    +0.000 S 
ATOM     15  C   UNL     1      48.208   6.033  19.735  0.00  0.00    +0.000 A 
ATOM     16  N   UNL     1      48.015   6.644  20.923  0.00  0.00    +0.000 NA
ATOM     17  C   UNL     1      47.720   7.958  20.825  0.00  0.00    +0.000 A 
ATOM     18  C   UNL     1      47.535   8.653  19.643  0.00  0.00    +0.000 A 
ATOM     19  C   UNL     1      47.737   7.981  18.445  0.00  0.00    +0.000 A 
ATOM     20  C   UNL     1      48.162   6.634  18.483  0.00  0.00    +0.000 A 
ENDBRANCH   9  12
ENDBRANCH   7  10
ENDBRANCH   1   7
BRANCH   4  21
ATOM     21  C   UNL     1      43.518   4.779  10.658  0.00  0.00    +0.000 C 
BRANCH  21  22
ATOM     22  N   UNL     1      43.970   4.204   9.390  0.00  0.00    +0.000 NA
ATOM     23  H   UNL     1      44.719   4.792   9.020  0.00  0.00    +0.000 HD
BRANCH  22  24
ATOM     24  C   UNL     1      44.501   2.839   9.521  0.00  0.00    +0.000 C 
BRANCH  24  25
ATOM     25  C   UNL     1      45.540   2.531   8.449  0.00  0.00    +0.000 A 
ATOM     26  C   UNL     1      45.932   3.511   7.533  0.00  0.00    +0.000 A 
ATOM     27  C   UNL     1      46.902   3.208   6.580  0.00  0.00    +0.000 A 
ATOM     28  C   UNL     1      47.441   1.929   6.546  0.00  0.00    +0.000 A 
ATOM     29  C   UNL     1      46.987   1.007   7.474  0.00  0.00    +0.000 A 
ATOM     30  N   UNL     1      46.061   1.278   8.424  0.00  0.00    +0.000 NA
ENDBRANCH  24  25
ENDBRANCH  22  24
ENDBRANCH  21  22
ENDBRANCH   4  21
TORSDOF 7
ENDMDL
MODEL 3
REMARK VINA RESULT:    -7.311      1.642      2.446
REMARK INTER + INTRA:         -11.527
REMARK INTER:                 -10.941
REMARK INTRA:                  -0.586
REMARK UNBOUND:                -1.224
REMARK  Name = 
REMARK  7 active torsions:
REMARK  status: ('A' for Active; 'I' for Inactive)
REMARK    1  A    between atoms: C_2  and  C_20
REMARK    2  A    between atoms: N_3  and  C_4
REMARK    3  A    between atoms: C_4  and  C_5
REMARK    4  A    between atoms: C_8  and  C_9
REMARK    5  A    between atoms: C_9  and  N_10
REMARK    6  A    between atoms: N_10  and  C_11
REMARK    7  A    between atoms: C_11  and  C_12
REMARK                            x       y       z     vdW  Elec       q    Type
REMARK                         _______ _______ _______ _____ _____    ______ ____
ROOT
ATOM      1  C   UNL     1      46.597   6.829  13.083  0.00  0.00    +0.000 A 
ATOM      2  C   UNL     1      45.685   7.644  12.398  0.00  0.00    +0.000 A 
ATOM      3  C   UNL     1      44.649   7.082  11.636  0.00  0.00    +0.000 A 
ATOM      4  C   UNL     1      44.493   5.690  11.536  0.00  0.00    +0.000 A 
ATOM      5  C   UNL     1      45.396   4.879  12.237  0.00  0.00    +0.000 A 
ATOM      6  C   UNL     1      46.427   5.440  13.005  0.00  0.00    +0.000 A 
ENDROOT
BRANCH   1   7
ATOM      7  C   UNL     1      47.709   7.433  13.910  0.00  0.00    +0.000 C 
BRANCH   7  10
ATOM      8  O   UNL     1      49.059   7.986  16.379  0.00  0.00    +0.000 OA
ATOM      9  C   UNL     1      48.863   6.824  16.024  0.00  0.00    +0.000 C 
ATOM     10  N   UNL     1      48.227   6.476  14.855  0.00  0.00    +0.000 N 
ATOM     11  H   UNL     1      47.875   5.531  14.776  0.00  0.00    +0.000 HD
BRANCH   9  12
ATOM     12  C   UNL     1      49.202   5.665  16.849  0.00  0.00    +0.000 A 
ATOM     13  C   UNL     1      48.261   4.755  17.301  0.00  0.00    +0.000 A 
ATOM     14  S   UNL     1      48.983   3.341  17.948  0.00  0.00    +0.000 S 
ATOM     15  C   UNL     1      50.550   3.966  17.722  0.00  0.00    +0.000 A 
ATOM     16  N   UNL     1      51.646   3.225  17.988  0.00  0.00    +0.000 NA
ATOM     17  C   UNL     1      52.813   3.880  17.802  0.00  0.00    +0.000 A 
ATOM     18  C   UNL     1      52.938   5.212  17.453  0.00  0.00    +0.000 A 
ATOM     19  C   UNL     1      51.782   5.937  17.195  0.00  0.00    +0.000 A 
ATOM     20  C   UNL     1      50.534   5.276  17.259  0.00  0.00    +0.000 A 
ENDBRANCH   9  12
ENDBRANCH   7  10
ENDBRANCH   1   7
BRANCH   4  21
ATOM     21  C   UNL     1      43.364   5.053  10.737  0.00  0.00    +0.000 C 
BRANCH  21  22
ATOM     22  N   UNL     1      43.838   4.541   9.451  0.00  0.00    +0.000 NA
ATOM     23  H   UNL     1      44.635   5.108   9.154  0.00  0.00    +0.000 HD
BRANCH  22  24
ATOM     24  C   UNL     1      44.287   3.142   9.507  0.00  0.00    +0.000 C 
BRANCH  24  25
ATOM     25  C   UNL     1      45.374   2.854   8.478  0.00  0.00    +0.000 A 
ATOM     26  C   UNL     1      45.979   1.596   8.410  0.00  0.00    +0.000 A 
ATOM     27  C   UNL     1      46.952   1.355   7.443  0.00  0.00    +0.000 A 
ATOM     28  C   UNL     1      47.316   2.380   6.581  0.00  0.00    +0.000 A 
ATOM     29  C   UNL     1      46.687   3.605   6.722  0.00  0.00    +0.000 A 
ATOM     30  N   UNL     1      45.724   3.862   7.639  0.00  0.00    +0.000 NA
ENDBRANCH  24  25
ENDBRANCH  22  24
ENDBRANCH  21  22
ENDBRANCH   4  21
TORSDOF 7
ENDMDL
MODEL 4
REMARK VINA RESULT:    -6.963      3.147      5.262
REMARK INTER + INTRA:         -11.035
REMARK INTER:                 -10.283
REMARK INTRA:                  -0.753
REMARK UNBOUND:                -1.224
REMARK  Name = 
REMARK  7 active torsions:
REMARK  status: ('A' for Active; 'I' for Inactive)
REMARK    1  A    between atoms: C_2  and  C_20
REMARK    2  A    between atoms: N_3  and  C_4
REMARK    3  A    between atoms: C_4  and  C_5
REMARK    4  A    between atoms: C_8  and  C_9
REMARK    5  A    between atoms: C_9  and  N_10
REMARK    6  A    between atoms: N_10  and  C_11
REMARK    7  A    between atoms: C_11  and  C_12
REMARK                            x       y       z     vdW  Elec       q    Type
REMARK                         _______ _______ _______ _____ _____    ______ ____
ROOT
ATOM      1  C   UNL     1      46.504   5.377  13.512  0.00  0.00    +0.000 A 
ATOM      2  C   UNL     1      45.317   5.961  13.048  0.00  0.00    +0.000 A 
ATOM      3  C   UNL     1      44.335   5.188  12.411  0.00  0.00    +0.000 A 
ATOM      4  C   UNL     1      44.509   3.807  12.219  0.00  0.00    +0.000 A 
ATOM      5  C   UNL     1      45.689   3.224  12.700  0.00  0.00    +0.000 A 
ATOM      6  C   UNL     1      46.668   3.995  13.344  0.00  0.00    +0.000 A 
ENDROOT
BRANCH   1   7
ATOM      7  C   UNL     1      47.559   6.208  14.206  0.00  0.00    +0.000 C 
BRANCH   7  10
ATOM      8  O   UNL     1      49.526   6.984  12.267  0.00  0.00    +0.000 OA
ATOM      9  C   UNL     1      48.675   7.788  12.646  0.00  0.00    +0.000 C 
ATOM     10  N   UNL     1      47.701   7.495  13.573  0.00  0.00    +0.000 N 
ATOM     11  H   UNL     1      46.900   8.110  13.621  0.00  0.00    +0.000 HD
BRANCH   9  12
ATOM     12  C   UNL     1      48.536   9.132  12.086  0.00  0.00    +0.000 A 
ATOM     13  C   UNL     1      47.355   9.853  12.129  0.00  0.00    +0.000 A 
ATOM     14  S   UNL     1      47.582  11.498  11.705  0.00  0.00    +0.000 S 
ATOM     15  C   UNL     1      49.232  11.246  11.369  0.00  0.00    +0.000 A 
ATOM     16  N   UNL     1      50.045  12.270  11.038  0.00  0.00    +0.000 NA
ATOM     17  C   UNL     1      51.312  11.898  10.756  0.00  0.00    +0.000 A 
ATOM     18  C   UNL     1      51.776  10.596  10.712  0.00  0.00    +0.000 A 
ATOM     19  C   UNL     1      50.901   9.573  11.054  0.00  0.00    +0.000 A 
ATOM     20  C   UNL     1      49.592   9.908  11.472  0.00  0.00    +0.000 A 
ENDBRANCH   9  12
ENDBRANCH   7  10
ENDBRANCH   1   7
BRANCH   4  21
ATOM     21  C   UNL     1      43.450   2.940  11.553  0.00  0.00    +0.000 C 
BRANCH  21  22
ATOM     22  N   UNL     1      43.985   2.241  10.383  0.00  0.00    +0.000 NA
ATOM     23  H   UNL     1      43.275   1.589  10.047  0.00  0.00    +0.000 HD
BRANCH  22  24
ATOM     24  C   UNL     1      44.325   3.139   9.269  0.00  0.00    +0.000 C 
BRANCH  24  25
ATOM     25  C   UNL     1      45.474   2.589   8.430  0.00  0.00    +0.000 A 
ATOM     26  C   UNL     1      46.225   3.434   7.608  0.00  0.00    +0.000 A 
ATOM     27  C   UNL     1      47.284   2.908   6.872  0.00  0.00    +0.000 A 
ATOM     28  C   UNL     1      47.555   1.549   6.953  0.00  0.00    +0.000 A 
ATOM     29  C   UNL     1      46.753   0.773   7.773  0.00  0.00    +0.000 A 
ATOM     30  N   UNL     1      45.731   1.259   8.516  0.00  0.00    +0.000 NA
ENDBRANCH  24  25
ENDBRANCH  22  24
ENDBRANCH  21  22
ENDBRANCH   4  21
TORSDOF 7
ENDMDL
MODEL 5
REMARK VINA RESULT:    -6.946      2.605      3.394
REMARK INTER + INTRA:         -11.012
REMARK INTER:                 -10.133
REMARK INTRA:                  -0.880
REMARK UNBOUND:                -1.224
REMARK  Name = 
REMARK  7 active torsions:
REMARK  status: ('A' for Active; 'I' for Inactive)
REMARK    1  A    between atoms: C_2  and  C_20
REMARK    2  A    between atoms: N_3  and  C_4
REMARK    3  A    between atoms: C_4  and  C_5
REMARK    4  A    between atoms: C_8  and  C_9
REMARK    5  A    between atoms: C_9  and  N_10
REMARK    6  A    between atoms: N_10  and  C_11
REMARK    7  A    between atoms: C_11  and  C_12
REMARK                            x       y       z     vdW  Elec       q    Type
REMARK                         _______ _______ _______ _____ _____    ______ ____
ROOT
ATOM      1  C   UNL     1      46.628   4.936  13.699  0.00  0.00    +0.000 A 
ATOM      2  C   UNL     1      46.143   6.117  13.122  0.00  0.00    +0.000 A 
ATOM      3  C   UNL     1      45.186   6.078  12.096  0.00  0.00    +0.000 A 
ATOM      4  C   UNL     1      44.683   4.856  11.618  0.00  0.00    +0.000 A 
ATOM      5  C   UNL     1      45.157   3.678  12.210  0.00  0.00    +0.000 A 
ATOM      6  C   UNL     1      46.109   3.717  13.240  0.00  0.00    +0.000 A 
ENDROOT
BRANCH   1   7
ATOM      7  C   UNL     1      47.654   4.977  14.809  0.00  0.00    +0.000 C 
BRANCH   7  10
ATOM      8  O   UNL     1      49.940   5.967  16.230  0.00  0.00    +0.000 OA
ATOM      9  C   UNL     1      49.026   6.729  15.914  0.00  0.00    +0.000 C 
ATOM     10  N   UNL     1      47.897   6.332  15.236  0.00  0.00    +0.000 N 
ATOM     11  H   UNL     1      47.342   7.050  14.790  0.00  0.00    +0.000 HD
BRANCH   9  12
ATOM     12  C   UNL     1      49.071   8.173  16.141  0.00  0.00    +0.000 A 
ATOM     13  C   UNL     1      49.583   9.070  15.219  0.00  0.00    +0.000 A 
ATOM     14  S   UNL     1      49.199  10.694  15.610  0.00  0.00    +0.000 S 
ATOM     15  C   UNL     1      48.432  10.227  17.056  0.00  0.00    +0.000 A 
ATOM     16  N   UNL     1      47.800  11.128  17.838  0.00  0.00    +0.000 NA
ATOM     17  C   UNL     1      47.285  10.607  18.972  0.00  0.00    +0.000 A 
ATOM     18  C   UNL     1      47.429   9.297  19.392  0.00  0.00    +0.000 A 
ATOM     19  C   UNL     1      48.092   8.407  18.558  0.00  0.00    +0.000 A 
ATOM     20  C   UNL     1      48.554   8.865  17.303  0.00  0.00    +0.000 A 
ENDBRANCH   9  12
ENDBRANCH   7  10
ENDBRANCH   1   7
BRANCH   4  21
ATOM     21  C   UNL     1      43.627   4.784  10.524  0.00  0.00    +0.000 C 
BRANCH  21  22
ATOM     22  N   UNL     1      43.976   3.795   9.504  0.00  0.00    +0.000 NA
ATOM     23  H   UNL     1      43.117   3.501   9.036  0.00  0.00    +0.000 HD
BRANCH  22  24
ATOM     24  C   UNL     1      44.888   4.313   8.473  0.00  0.00    +0.000 C 
BRANCH  24  25
ATOM     25  C   UNL     1      45.840   3.235   7.967  0.00  0.00    +0.000 A 
ATOM     26  C   UNL     1      45.736   1.918   8.425  0.00  0.00    +0.000 A 
ATOM     27  C   UNL     1      46.603   0.950   7.926  0.00  0.00    +0.000 A 
ATOM     28  C   UNL     1      47.571   1.319   7.002  0.00  0.00    +0.000 A 
ATOM     29  C   UNL     1      47.625   2.647   6.613  0.00  0.00    +0.000 A 
ATOM     30  N   UNL     1      46.783   3.606   7.064  0.00  0.00    +0.000 NA
ENDBRANCH  24  25
ENDBRANCH  22  24
ENDBRANCH  21  22
ENDBRANCH   4  21
TORSDOF 7
ENDMDL
MODEL 6
REMARK VINA RESULT:    -6.896      2.438      4.363
REMARK INTER + INTRA:         -10.942
REMARK INTER:                  -9.995
REMARK INTRA:                  -0.947
REMARK UNBOUND:                -1.224
REMARK  Name = 
REMARK  7 active torsions:
REMARK  status: ('A' for Active; 'I' for Inactive)
REMARK    1  A    between atoms: C_2  and  C_20
REMARK    2  A    between atoms: N_3  and  C_4
REMARK    3  A    between atoms: C_4  and  C_5
REMARK    4  A    between atoms: C_8  and  C_9
REMARK    5  A    between atoms: C_9  and  N_10
REMARK    6  A    between atoms: N_10  and  C_11
REMARK    7  A    between atoms: C_11  and  C_12
REMARK                            x       y       z     vdW  Elec       q    Type
REMARK                         _______ _______ _______ _____ _____    ______ ____
ROOT
ATOM      1  C   UNL     1      46.597   5.095  13.557  0.00  0.00    +0.000 A 
ATOM      2  C   UNL     1      45.885   6.115  12.909  0.00  0.00    +0.000 A 
ATOM      3  C   UNL     1      44.865   5.812  11.995  0.00  0.00    +0.000 A 
ATOM      4  C   UNL     1      44.524   4.481  11.700  0.00  0.00    +0.000 A 
ATOM      5  C   UNL     1      45.225   3.465  12.363  0.00  0.00    +0.000 A 
ATOM      6  C   UNL     1      46.240   3.767  13.284  0.00  0.00    +0.000 A 
ENDROOT
BRANCH   1   7
ATOM      7  C   UNL     1      47.691   5.420  14.548  0.00  0.00    +0.000 C 
BRANCH   7  10
ATOM      8  O   UNL     1      50.125   6.868  15.003  0.00  0.00    +0.000 OA
ATOM      9  C   UNL     1      49.052   7.466  14.913  0.00  0.00    +0.000 C 
ATOM     10  N   UNL     1      47.843   6.845  14.699  0.00  0.00    +0.000 N 
ATOM     11  H   UNL     1      47.075   7.416  14.374  0.00  0.00    +0.000 HD
BRANCH   9  12
ATOM     12  C   UNL     1      48.944   8.924  14.930  0.00  0.00    +0.000 A 
ATOM     13  C   UNL     1      49.197   9.691  16.054  0.00  0.00    +0.000 A 
ATOM     14  S   UNL     1      49.317  11.361  15.689  0.00  0.00    +0.000 S 
ATOM     15  C   UNL     1      48.940  11.091  14.051  0.00  0.00    +0.000 A 
ATOM     16  N   UNL     1      48.959  12.097  13.152  0.00  0.00    +0.000 NA
ATOM     17  C   UNL     1      48.589  11.729  11.906  0.00  0.00    +0.000 A 
ATOM     18  C   UNL     1      48.142  10.472  11.540  0.00  0.00    +0.000 A 
ATOM     19  C   UNL     1      48.133   9.470  12.501  0.00  0.00    +0.000 A 
ATOM     20  C   UNL     1      48.619   9.764  13.796  0.00  0.00    +0.000 A 
ENDBRANCH   9  12
ENDBRANCH   7  10
ENDBRANCH   1   7
BRANCH   4  21
ATOM     21  C   UNL     1      43.405   4.124  10.732  0.00  0.00    +0.000 C 
BRANCH  21  22
ATOM     22  N   UNL     1      43.885   3.260   9.653  0.00  0.00    +0.000 NA
ATOM     23  H   UNL     1      43.085   2.755   9.267  0.00  0.00    +0.000 HD
BRANCH  22  24
ATOM     24  C   UNL     1      44.518   3.996   8.549  0.00  0.00    +0.000 C 
BRANCH  24  25
ATOM     25  C   UNL     1      45.617   3.178   7.879  0.00  0.00    +0.000 A 
ATOM     26  C   UNL     1      45.893   1.874   8.301  0.00  0.00    +0.000 A 
ATOM     27  C   UNL     1      46.886   1.142   7.654  0.00  0.00    +0.000 A 
ATOM     28  C   UNL     1      47.597   1.733   6.619  0.00  0.00    +0.000 A 
ATOM     29  C   UNL     1      47.280   3.036   6.272  0.00  0.00    +0.000 A 
ATOM     30  N   UNL     1      46.306   3.765   6.868  0.00  0.00    +0.000 NA
ENDBRANCH  24  25
ENDBRANCH  22  24
ENDBRANCH  21  22
ENDBRANCH   4  21
TORSDOF 7
ENDMDL
MODEL 7
REMARK VINA RESULT:    -6.730      3.170      4.561
REMARK INTER + INTRA:         -10.708
REMARK INTER:                  -9.802
REMARK INTRA:                  -0.906
REMARK UNBOUND:                -1.224
REMARK  Name = 
REMARK  7 active torsions:
REMARK  status: ('A' for Active; 'I' for Inactive)
REMARK    1  A    between atoms: C_2  and  C_20
REMARK    2  A    between atoms: N_3  and  C_4
REMARK    3  A    between atoms: C_4  and  C_5
REMARK    4  A    between atoms: C_8  and  C_9
REMARK    5  A    between atoms: C_9  and  N_10
REMARK    6  A    between atoms: N_10  and  C_11
REMARK    7  A    between atoms: C_11  and  C_12
REMARK                            x       y       z     vdW  Elec       q    Type
REMARK                         _______ _______ _______ _____ _____    ______ ____
ROOT
ATOM      1  C   UNL     1      46.715   6.508  12.766  0.00  0.00    +0.000 A 
ATOM      2  C   UNL     1      46.167   5.435  13.483  0.00  0.00    +0.000 A 
ATOM      3  C   UNL     1      45.296   4.526  12.864  0.00  0.00    +0.000 A 
ATOM      4  C   UNL     1      44.947   4.660  11.510  0.00  0.00    +0.000 A 
ATOM      5  C   UNL     1      45.511   5.723  10.792  0.00  0.00    +0.000 A 
ATOM      6  C   UNL     1      46.388   6.628  11.408  0.00  0.00    +0.000 A 
ENDROOT
BRANCH   1   7
ATOM      7  C   UNL     1      47.660   7.484  13.429  0.00  0.00    +0.000 C 
BRANCH   7  10
ATOM      8  O   UNL     1      48.872   9.318  11.588  0.00  0.00    +0.000 OA
ATOM      9  C   UNL     1      49.489   8.326  11.974  0.00  0.00    +0.000 C 
ATOM     10  N   UNL     1      48.978   7.398  12.852  0.00  0.00    +0.000 N 
ATOM     11  H   UNL     1      49.632   6.781  13.314  0.00  0.00    +0.000 HD
BRANCH   9  12
ATOM     12  C   UNL     1      50.882   8.058  11.617  0.00  0.00    +0.000 A 
ATOM     13  C   UNL     1      51.255   7.383  10.467  0.00  0.00    +0.000 A 
ATOM     14  S   UNL     1      52.934   7.515  10.150  0.00  0.00    +0.000 S 
ATOM     15  C   UNL     1      53.197   8.388  11.588  0.00  0.00    +0.000 A 
ATOM     16  N   UNL     1      54.412   8.892  11.891  0.00  0.00    +0.000 NA
ATOM     17  C   UNL     1      54.466   9.516  13.087  0.00  0.00    +0.000 A 
ATOM     18  C   UNL     1      53.430   9.595  14.000  0.00  0.00    +0.000 A 
ATOM     19  C   UNL     1      52.199   9.057  13.647  0.00  0.00    +0.000 A 
ATOM     20  C   UNL     1      52.046   8.492  12.360  0.00  0.00    +0.000 A 
ENDBRANCH   9  12
ENDBRANCH   7  10
ENDBRANCH   1   7
BRANCH   4  21
ATOM     21  C   UNL     1      44.023   3.675  10.807  0.00  0.00    +0.000 C 
BRANCH  21  22
ATOM     22  N   UNL     1      44.684   2.390  10.576  0.00  0.00    +0.000 NA
ATOM     23  H   UNL     1      44.323   1.717  11.254  0.00  0.00    +0.000 HD
BRANCH  22  24
ATOM     24  C   UNL     1      44.443   1.840   9.234  0.00  0.00    +0.000 C 
BRANCH  24  25
ATOM     25  C   UNL     1      45.614   2.106   8.294  0.00  0.00    +0.000 A 
ATOM     26  C   UNL     1      45.813   3.376   7.744  0.00  0.00    +0.000 A 
ATOM     27  C   UNL     1      46.905   3.596   6.908  0.00  0.00    +0.000 A 
ATOM     28  C   UNL     1      47.761   2.542   6.621  0.00  0.00    +0.000 A 
ATOM     29  C   UNL     1      47.487   1.308   7.188  0.00  0.00    +0.000 A 
ATOM     30  N   UNL     1      46.445   1.069   8.019  0.00  0.00    +0.000 NA
ENDBRANCH  24  25
ENDBRANCH  22  24
ENDBRANCH  21  22
ENDBRANCH   4  21
TORSDOF 7
ENDMDL
MODEL 8
REMARK VINA RESULT:    -6.613      1.835      2.340
REMARK INTER + INTRA:         -10.543
REMARK INTER:                 -10.076
REMARK INTRA:                  -0.467
REMARK UNBOUND:                -1.224
REMARK  Name = 
REMARK  7 active torsions:
REMARK  status: ('A' for Active; 'I' for Inactive)
REMARK    1  A    between atoms: C_2  and  C_20
REMARK    2  A    between atoms: N_3  and  C_4
REMARK    3  A    between atoms: C_4  and  C_5
REMARK    4  A    between atoms: C_8  and  C_9
REMARK    5  A    between atoms: C_9  and  N_10
REMARK    6  A    between atoms: N_10  and  C_11
REMARK    7  A    between atoms: C_11  and  C_12
REMARK                            x       y       z     vdW  Elec       q    Type
REMARK                         _______ _______ _______ _____ _____    ______ ____
ROOT
ATOM      1  C   UNL     1      45.820   7.514  12.445  0.00  0.00    +0.000 A 
ATOM      2  C   UNL     1      44.608   7.498  11.741  0.00  0.00    +0.000 A 
ATOM      3  C   UNL     1      44.040   6.289  11.312  0.00  0.00    +0.000 A 
ATOM      4  C   UNL     1      44.665   5.058  11.575  0.00  0.00    +0.000 A 
ATOM      5  C   UNL     1      45.867   5.077  12.294  0.00  0.00    +0.000 A 
ATOM      6  C   UNL     1      46.432   6.285  12.730  0.00  0.00    +0.000 A 
ENDROOT
BRANCH   1   7
ATOM      7  C   UNL     1      46.430   8.815  12.914  0.00  0.00    +0.000 C 
BRANCH   7  10
ATOM      8  O   UNL     1      49.134   8.550  13.830  0.00  0.00    +0.000 OA
ATOM      9  C   UNL     1      48.205   8.587  14.637  0.00  0.00    +0.000 C 
ATOM     10  N   UNL     1      46.883   8.710  14.278  0.00  0.00    +0.000 N 
ATOM     11  H   UNL     1      46.228   9.000  14.993  0.00  0.00    +0.000 HD
BRANCH   9  12
ATOM     12  C   UNL     1      48.401   8.600  16.086  0.00  0.00    +0.000 A 
ATOM     13  C   UNL     1      48.112   9.695  16.882  0.00  0.00    +0.000 A 
ATOM     14  S   UNL     1      48.122   9.307  18.551  0.00  0.00    +0.000 S 
ATOM     15  C   UNL     1      48.603   7.705  18.237  0.00  0.00    +0.000 A 
ATOM     16  N   UNL     1      48.713   6.798  19.230  0.00  0.00    +0.000 NA
ATOM     17  C   UNL     1      49.151   5.587  18.824  0.00  0.00    +0.000 A 
ATOM     18  C   UNL     1      49.547   5.266  17.537  0.00  0.00    +0.000 A 
ATOM     19  C   UNL     1      49.423   6.234  16.550  0.00  0.00    +0.000 A 
ATOM     20  C   UNL     1      48.861   7.486  16.889  0.00  0.00    +0.000 A 
ENDBRANCH   9  12
ENDBRANCH   7  10
ENDBRANCH   1   7
BRANCH   4  21
ATOM     21  C   UNL     1      44.059   3.730  11.143  0.00  0.00    +0.000 C 
BRANCH  21  22
ATOM     22  N   UNL     1      43.848   3.681   9.696  0.00  0.00    +0.000 NA
ATOM     23  H   UNL     1      42.966   4.153   9.484  0.00  0.00    +0.000 HD
BRANCH  22  24
ATOM     24  C   UNL     1      44.905   4.353   8.926  0.00  0.00    +0.000 C 
BRANCH  24  25
ATOM     25  C   UNL     1      45.826   3.351   8.237  0.00  0.00    +0.000 A 
ATOM     26  C   UNL     1      45.748   1.988   8.534  0.00  0.00    +0.000 A 
ATOM     27  C   UNL     1      46.584   1.094   7.871  0.00  0.00    +0.000 A 
ATOM     28  C   UNL     1      47.496   1.580   6.944  0.00  0.00    +0.000 A 
ATOM     29  C   UNL     1      47.529   2.946   6.718  0.00  0.00    +0.000 A 
ATOM     30  N   UNL     1      46.714   3.837   7.332  0.00  0.00    +0.000 NA
ENDBRANCH  24  25
ENDBRANCH  22  24
ENDBRANCH  21  22
ENDBRANCH   4  21
TORSDOF 7
ENDMDL
MODEL 9
REMARK VINA RESULT:    -6.354      3.920      9.931
REMARK INTER + INTRA:         -10.177
REMARK INTER:                  -9.020
REMARK INTRA:                  -1.157
REMARK UNBOUND:                -1.224
REMARK  Name = 
REMARK  7 active torsions:
REMARK  status: ('A' for Active; 'I' for Inactive)
REMARK    1  A    between atoms: C_2  and  C_20
REMARK    2  A    between atoms: N_3  and  C_4
REMARK    3  A    between atoms: C_4  and  C_5
REMARK    4  A    between atoms: C_8  and  C_9
REMARK    5  A    between atoms: C_9  and  N_10
REMARK    6  A    between atoms: N_10  and  C_11
REMARK    7  A    between atoms: C_11  and  C_12
REMARK                            x       y       z     vdW  Elec       q    Type
REMARK                         _______ _______ _______ _____ _____    ______ ____
ROOT
ATOM      1  C   UNL     1      48.582   3.551  17.162  0.00  0.00    +0.000 A 
ATOM      2  C   UNL     1      49.273   2.333  17.109  0.00  0.00    +0.000 A 
ATOM      3  C   UNL     1      50.649   2.273  17.378  0.00  0.00    +0.000 A 
ATOM      4  C   UNL     1      51.375   3.429  17.711  0.00  0.00    +0.000 A 
ATOM      5  C   UNL     1      50.677   4.642  17.780  0.00  0.00    +0.000 A 
ATOM      6  C   UNL     1      49.299   4.701  17.518  0.00  0.00    +0.000 A 
ENDROOT
BRANCH   1   7
ATOM      7  C   UNL     1      47.098   3.614  16.880  0.00  0.00    +0.000 C 
BRANCH   7  10
ATOM      8  O   UNL     1      47.305   3.088  14.068  0.00  0.00    +0.000 OA
ATOM      9  C   UNL     1      46.939   4.193  14.469  0.00  0.00    +0.000 C 
ATOM     10  N   UNL     1      46.817   4.525  15.798  0.00  0.00    +0.000 N 
ATOM     11  H   UNL     1      46.265   5.340  16.029  0.00  0.00    +0.000 HD
BRANCH   9  12
ATOM     12  C   UNL     1      46.498   5.265  13.576  0.00  0.00    +0.000 A 
ATOM     13  C   UNL     1      47.343   6.255  13.105  0.00  0.00    +0.000 A 
ATOM     14  S   UNL     1      46.637   7.159  11.831  0.00  0.00    +0.000 S 
ATOM     15  C   UNL     1      45.169   6.307  11.959  0.00  0.00    +0.000 A 
ATOM     16  N   UNL     1      44.154   6.523  11.096  0.00  0.00    +0.000 NA
ATOM     17  C   UNL     1      43.043   5.803  11.361  0.00  0.00    +0.000 A 
ATOM     18  C   UNL     1      42.869   4.966  12.449  0.00  0.00    +0.000 A 
ATOM     19  C   UNL     1      43.939   4.780  13.314  0.00  0.00    +0.000 A 
ATOM     20  C   UNL     1      45.168   5.415  13.025  0.00  0.00    +0.000 A 
ENDBRANCH   9  12
ENDBRANCH   7  10
ENDBRANCH   1   7
BRANCH   4  21
ATOM     21  C   UNL     1      52.863   3.391  18.032  0.00  0.00    +0.000 C 
BRANCH  21  22
ATOM     22  N   UNL     1      53.107   2.906  19.390  0.00  0.00    +0.000 NA
ATOM     23  H   UNL     1      53.752   2.115  19.338  0.00  0.00    +0.000 HD
BRANCH  22  24
ATOM     24  C   UNL     1      53.713   3.914  20.273  0.00  0.00    +0.000 C 
BRANCH  24  25
ATOM     25  C   UNL     1      52.696   4.957  20.723  0.00  0.00    +0.000 A 
ATOM     26  C   UNL     1      52.852   6.302  20.377  0.00  0.00    +0.000 A 
ATOM     27  C   UNL     1      51.894   7.228  20.782  0.00  0.00    +0.000 A 
ATOM     28  C   UNL     1      50.815   6.797  21.542  0.00  0.00    +0.000 A 
ATOM     29  C   UNL     1      50.740   5.452  21.863  0.00  0.00    +0.000 A 
ATOM     30  N   UNL     1      51.645   4.526  21.466  0.00  0.00    +0.000 NA
ENDBRANCH  24  25
ENDBRANCH  22  24
ENDBRANCH  21  22
ENDBRANCH   4  21
TORSDOF 7
ENDMDL
