MODEL 1
REMARK VINA RESULT:    -7.442      0.000      0.000
REMARK INTER + INTRA:         -10.361
REMARK INTER:                  -9.617
REMARK INTRA:                  -0.744
REMARK UNBOUND:                -0.744
REMARK  Name = 
REMARK  5 active torsions:
REMARK  status: ('A' for Active; 'I' for Inactive)
REMARK    1  A    between atoms: C_2  and  C_4
REMARK    2  A    between atoms: C_6  and  O_7
REMARK    3  A    between atoms: O_7  and  C_8
REMARK    4  A    between atoms: C_8  and  C_9
REMARK    5  A    between atoms: C_14  and  C_15
REMARK                            x       y       z     vdW  Elec       q    Type
REMARK                         _______ _______ _______ _____ _____    ______ ____
ROOT
ATOM      1  C   UNL     1      45.535   5.381  11.838  0.00  0.00    +0.000 A 
ATOM      2  C   UNL     1      45.687   4.528  12.931  0.00  0.00    +0.000 A 
ATOM      3  C   UNL     1      46.767   4.708  13.789  0.00  0.00    +0.000 A 
ATOM      4  F   UNL     1      46.908   3.892  14.844  0.00  0.00    +0.000 F 
ATOM      5  C   UNL     1      47.716   5.708  13.569  0.00  0.00    +0.000 A 
ATOM      6  C   UNL     1      47.597   6.567  12.465  0.00  0.00    +0.000 A 
ATOM      7  C   UNL     1      46.466   6.415  11.651  0.00  0.00    +0.000 A 
ENDROOT
BRANCH   6   8
ATOM      8  C   UNL     1      48.645   7.648  12.206  0.00  0.00    +0.000 C 
ATOM      9  C   UNL     1      49.538   8.010  13.411  0.00  0.00    +0.000 C 
ATOM     10  C   UNL     1      48.793   8.828  14.473  0.00  0.00    +0.000 C 
ATOM     11  N   UNL     1      48.166  10.030  13.932  0.00  0.00    +0.000 NA
ATOM     12  C   UNL     1      47.327   9.760  12.766  0.00  0.00    +0.000 C 
ATOM     13  C   UNL     1      48.042   8.962  11.674  0.00  0.00    +0.000 C 
ATOM     14  H   UNL     1      48.894  10.703  13.675  0.00  0.00    +0.000 HD
ENDBRANCH   6   8
BRANCH   1  15
ATOM     15  C   UNL     1      44.406   5.228  10.850  0.00  0.00    +0.000 C 
BRANCH  15  16
ATOM     16  O   UNL     1      44.945   5.267   9.530  0.00  0.00    +0.000 OA
BRANCH  16  19
ATOM     17  C   UNL     1      46.520   2.598   7.544  0.00  0.00    +0.000 A 
ATOM     18  C   UNL     1      46.267   3.892   7.979  0.00  0.00    +0.000 A 
ATOM     19  C   UNL     1      45.330   4.069   8.990  0.00  0.00    +0.000 A 
ATOM     20  C   UNL     1      44.698   2.953   9.529  0.00  0.00    +0.000 A 
ATOM     21  C   UNL     1      45.022   1.698   9.036  0.00  0.00    +0.000 A 
ATOM     22  N   UNL     1      45.916   1.486   8.049  0.00  0.00    +0.000 NA
BRANCH  17  24
ATOM     23  N   UNL     1      47.331   3.159   5.322  0.00  0.00    +0.000 N 
ATOM     24  C   UNL     1      47.507   2.388   6.438  0.00  0.00    +0.000 C 
ATOM     25  O   UNL     1      48.427   1.584   6.521  0.00  0.00    +0.000 OA
ATOM     26  H   UNL     1      48.011   3.104   4.576  0.00  0.00    +0.000 HD
ATOM     27  H   UNL     1      46.618   3.878   5.314  0.00  0.00    +0.000 HD
ENDBRANCH  17  24
ENDBRANCH  16  19
ENDBRANCH  15  16
ENDBRANCH   1  15
TORSDOF 5
ENDMDL
MODEL 2
REMARK VINA RESULT:    -6.860      4.634      8.714
REMARK INTER + INTRA:          -9.609
REMARK INTER:                  -9.282
REMARK INTRA:                  -0.327
REMARK UNBOUND:                -0.744
REMARK  Name = 
REMARK  5 active torsions:
REMARK  status: ('A' for Active; 'I' for Inactive)
REMARK    1  A    between atoms: C_2  and  C_4
REMARK    2  A    between atoms: C_6  and  O_7
REMARK    3  A    between atoms: O_7  and  C_8
REMARK    4  A    between atoms: C_8  and  C_9
REMARK    5  A    between atoms: C_14  and  C_15
REMARK                            x       y       z     vdW  Elec       q    Type
REMARK                         _______ _______ _______ _____ _____    ______ ____
ROOT
ATOM      1  C   UNL     1      46.732   5.178  13.490  0.00  0.00    +0.000 A 
ATOM      2  C   UNL     1      47.572   6.191  13.028  0.00  0.00    +0.000 A 
ATOM      3  C   UNL     1      47.261   6.845  11.840  0.00  0.00    +0.000 A 
ATOM      4  F   UNL     1      48.065   7.824  11.401  0.00  0.00    +0.000 F 
ATOM      5  C   UNL     1      46.139   6.495  11.087  0.00  0.00    +0.000 A 
ATOM      6  C   UNL     1      45.287   5.466  11.519  0.00  0.00    +0.000 A 
ATOM      7  C   UNL     1      45.579   4.866  12.753  0.00  0.00    +0.000 A 
ENDROOT
BRANCH   6   8
ATOM      8  C   UNL     1      44.071   5.063  10.687  0.00  0.00    +0.000 C 
ATOM      9  C   UNL     1      42.962   4.311  11.453  0.00  0.00    +0.000 C 
ATOM     10  C   UNL     1      43.352   2.867  11.790  0.00  0.00    +0.000 C 
ATOM     11  N   UNL     1      43.764   2.099  10.620  0.00  0.00    +0.000 NA
ATOM     12  C   UNL     1      44.796   2.770   9.831  0.00  0.00    +0.000 C 
ATOM     13  C   UNL     1      44.435   4.209   9.457  0.00  0.00    +0.000 C 
ATOM     14  H   UNL     1      42.948   1.923  10.028  0.00  0.00    +0.000 HD
ENDBRANCH   6   8
BRANCH   1  15
ATOM     15  C   UNL     1      47.021   4.408  14.753  0.00  0.00    +0.000 C 
BRANCH  15  16
ATOM     16  O   UNL     1      48.099   5.042  15.440  0.00  0.00    +0.000 OA
BRANCH  16  19
ATOM     17  C   UNL     1      48.039   5.189  19.117  0.00  0.00    +0.000 A 
ATOM     18  C   UNL     1      47.833   5.621  17.813  0.00  0.00    +0.000 A 
ATOM     19  C   UNL     1      48.213   4.777  16.778  0.00  0.00    +0.000 A 
ATOM     20  C   UNL     1      48.768   3.538  17.085  0.00  0.00    +0.000 A 
ATOM     21  C   UNL     1      48.928   3.189  18.417  0.00  0.00    +0.000 A 
ATOM     22  N   UNL     1      48.583   3.985  19.450  0.00  0.00    +0.000 NA
BRANCH  17  24
ATOM     23  N   UNL     1      47.241   5.482  21.395  0.00  0.00    +0.000 N 
ATOM     24  C   UNL     1      47.662   6.096  20.247  0.00  0.00    +0.000 C 
ATOM     25  O   UNL     1      47.732   7.315  20.163  0.00  0.00    +0.000 OA
ATOM     26  H   UNL     1      47.040   6.048  22.208  0.00  0.00    +0.000 HD
ATOM     27  H   UNL     1      47.277   4.473  21.469  0.00  0.00    +0.000 HD
ENDBRANCH  17  24
ENDBRANCH  16  19
ENDBRANCH  15  16
ENDBRANCH   1  15
TORSDOF 5
ENDMDL
MODEL 3
REMARK VINA RESULT:    -6.836      4.546      8.059
REMARK INTER + INTRA:          -9.579
REMARK INTER:                  -9.161
REMARK INTRA:                  -0.417
REMARK UNBOUND:                -0.744
REMARK  Name = 
REMARK  5 active torsions:
REMARK  status: ('A' for Active; 'I' for Inactive)
REMARK    1  A    between atoms: C_2  and  C_4
REMARK    2  A    between atoms: C_6  and  O_7
REMARK    3  A    between atoms: O_7  and  C_8
REMARK    4  A    between atoms: C_8  and  C_9
REMARK    5  A    between atoms: C_14  and  C_15
REMARK                            x       y       z     vdW  Elec       q    Type
REMARK                         _______ _______ _______ _____ _____    ______ ____
ROOT
ATOM      1  C   UNL     1      46.790   4.804  13.657  0.00  0.00    +0.000 A 
ATOM      2  C   UNL     1      47.665   5.846  13.352  0.00  0.00    +0.000 A 
ATOM      3  C   UNL     1      47.413   6.642  12.239  0.00  0.00    +0.000 A 
ATOM      4  F   UNL     1      48.251   7.649  11.951  0.00  0.00    +0.000 F 
ATOM      5  C   UNL     1      46.317   6.408  11.407  0.00  0.00    +0.000 A 
ATOM      6  C   UNL     1      45.432   5.353  11.680  0.00  0.00    +0.000 A 
ATOM      7  C   UNL     1      45.664   4.605  12.844  0.00  0.00    +0.000 A 
ENDROOT
BRANCH   6   8
ATOM      8  C   UNL     1      44.245   5.076  10.759  0.00  0.00    +0.000 C 
ATOM      9  C   UNL     1      43.076   4.299  11.399  0.00  0.00    +0.000 C 
ATOM     10  C   UNL     1      43.400   2.815  11.613  0.00  0.00    +0.000 C 
ATOM     11  N   UNL     1      43.842   2.146  10.394  0.00  0.00    +0.000 NA
ATOM     12  C   UNL     1      44.932   2.849   9.721  0.00  0.00    +0.000 C 
ATOM     13  C   UNL     1      44.639   4.330   9.471  0.00  0.00    +0.000 C 
ATOM     14  H   UNL     1      43.050   2.058   9.752  0.00  0.00    +0.000 HD
ENDBRANCH   6   8
BRANCH   1  15
ATOM     15  C   UNL     1      47.015   3.883  14.829  0.00  0.00    +0.000 C 
BRANCH  15  16
ATOM     16  O   UNL     1      47.063   4.664  16.023  0.00  0.00    +0.000 OA
BRANCH  16  19
ATOM     17  C   UNL     1      50.088   3.379  17.681  0.00  0.00    +0.000 A 
ATOM     18  C   UNL     1      49.055   3.424  16.752  0.00  0.00    +0.000 A 
ATOM     19  C   UNL     1      48.144   4.469  16.838  0.00  0.00    +0.000 A 
ATOM     20  C   UNL     1      48.308   5.428  17.835  0.00  0.00    +0.000 A 
ATOM     21  C   UNL     1      49.374   5.305  18.712  0.00  0.00    +0.000 A 
ATOM     22  N   UNL     1      50.272   4.299  18.668  0.00  0.00    +0.000 NA
BRANCH  17  24
ATOM     23  N   UNL     1      52.216   2.407  18.342  0.00  0.00    +0.000 N 
ATOM     24  C   UNL     1      51.064   2.246  17.621  0.00  0.00    +0.000 C 
ATOM     25  O   UNL     1      50.850   1.227  16.978  0.00  0.00    +0.000 OA
ATOM     26  H   UNL     1      52.875   1.643  18.390  0.00  0.00    +0.000 HD
ATOM     27  H   UNL     1      52.329   3.219  18.936  0.00  0.00    +0.000 HD
ENDBRANCH  17  24
ENDBRANCH  16  19
ENDBRANCH  15  16
ENDBRANCH   1  15
TORSDOF 5
ENDMDL
MODEL 4
REMARK VINA RESULT:    -6.770      4.319      7.850
REMARK INTER + INTRA:          -9.493
REMARK INTER:                  -8.856
REMARK INTRA:                  -0.638
REMARK UNBOUND:                -0.744
REMARK  Name = 
REMARK  5 active torsions:
REMARK  status: ('A' for Active; 'I' for Inactive)
REMARK    1  A    between atoms: C_2  and  C_4
REMARK    2  A    between atoms: C_6  and  O_7
REMARK    3  A    between atoms: O_7  and  C_8
REMARK    4  A    between atoms: C_8  and  C_9
REMARK    5  A    between atoms: C_14  and  C_15
REMARK                            x       y       z     vdW  Elec       q    Type
REMARK                         _______ _______ _______ _____ _____    ______ ____
ROOT
ATOM      1  C   UNL     1      47.255   7.296  12.951  0.00  0.00    +0.000 A 
ATOM      2  C   UNL     1      46.756   8.597  12.996  0.00  0.00    +0.000 A 
ATOM      3  C   UNL     1      45.516   8.872  12.427  0.00  0.00    +0.000 A 
ATOM      4  F   UNL     1      45.034  10.122  12.477  0.00  0.00    +0.000 F 
ATOM      5  C   UNL     1      44.770   7.878  11.790  0.00  0.00    +0.000 A 
ATOM      6  C   UNL     1      45.259   6.564  11.713  0.00  0.00    +0.000 A 
ATOM      7  C   UNL     1      46.476   6.293  12.353  0.00  0.00    +0.000 A 
ENDROOT
BRANCH   6   8
ATOM      8  C   UNL     1      44.457   5.478  10.997  0.00  0.00    +0.000 C 
ATOM      9  C   UNL     1      43.011   5.282  11.497  0.00  0.00    +0.000 C 
ATOM     10  C   UNL     1      42.948   4.586  12.862  0.00  0.00    +0.000 C 
ATOM     11  N   UNL     1      43.667   3.317  12.890  0.00  0.00    +0.000 NA
ATOM     12  C   UNL     1      45.039   3.427  12.400  0.00  0.00    +0.000 C 
ATOM     13  C   UNL     1      45.143   4.099  11.029  0.00  0.00    +0.000 C 
ATOM     14  H   UNL     1      43.161   2.630  12.324  0.00  0.00    +0.000 HD
ENDBRANCH   6   8
BRANCH   1  15
ATOM     15  C   UNL     1      48.602   6.932  13.522  0.00  0.00    +0.000 C 
BRANCH  15  16
ATOM     16  O   UNL     1      48.660   7.373  14.877  0.00  0.00    +0.000 OA
BRANCH  16  19
ATOM     17  C   UNL     1      48.660   4.579  17.274  0.00  0.00    +0.000 A 
ATOM     18  C   UNL     1      48.153   5.442  16.311  0.00  0.00    +0.000 A 
ATOM     19  C   UNL     1      48.992   6.431  15.814  0.00  0.00    +0.000 A 
ATOM     20  C   UNL     1      50.298   6.510  16.287  0.00  0.00    +0.000 A 
ATOM     21  C   UNL     1      50.719   5.600  17.244  0.00  0.00    +0.000 A 
ATOM     22  N   UNL     1      49.932   4.634  17.760  0.00  0.00    +0.000 NA
BRANCH  17  24
ATOM     23  N   UNL     1      48.182   2.945  19.009  0.00  0.00    +0.000 N 
ATOM     24  C   UNL     1      47.764   3.523  17.843  0.00  0.00    +0.000 C 
ATOM     25  O   UNL     1      46.712   3.197  17.309  0.00  0.00    +0.000 OA
ATOM     26  H   UNL     1      47.579   2.276  19.469  0.00  0.00    +0.000 HD
ATOM     27  H   UNL     1      49.009   3.295  19.477  0.00  0.00    +0.000 HD
ENDBRANCH  17  24
ENDBRANCH  16  19
ENDBRANCH  15  16
ENDBRANCH   1  15
TORSDOF 5
ENDMDL
MODEL 5
REMARK VINA RESULT:    -6.756      3.197      7.339
REMARK INTER + INTRA:          -9.475
REMARK INTER:                  -8.945
REMARK INTRA:                  -0.530
REMARK UNBOUND:                -0.744
REMARK  Name = 
REMARK  5 active torsions:
REMARK  status: ('A' for Active; 'I' for Inactive)
REMARK    1  A    between atoms: C_2  and  C_4
REMARK    2  A    between atoms: C_6  and  O_7
REMARK    3  A    between atoms: O_7  and  C_8
REMARK    4  A    between atoms: C_8  and  C_9
REMARK    5  A    between atoms: C_14  and  C_15
REMARK                            x       y       z     vdW  Elec       q    Type
REMARK                         _______ _______ _______ _____ _____    ______ ____
ROOT
ATOM      1  C   UNL     1      47.376   6.714  12.242  0.00  0.00    +0.000 A 
ATOM      2  C   UNL     1      47.508   6.030  13.449  0.00  0.00    +0.000 A 
ATOM      3  C   UNL     1      46.598   5.027  13.767  0.00  0.00    +0.000 A 
ATOM      4  F   UNL     1      46.730   4.365  14.926  0.00  0.00    +0.000 F 
ATOM      5  C   UNL     1      45.540   4.705  12.915  0.00  0.00    +0.000 A 
ATOM      6  C   UNL     1      45.372   5.392  11.702  0.00  0.00    +0.000 A 
ATOM      7  C   UNL     1      46.339   6.351  11.368  0.00  0.00    +0.000 A 
ENDROOT
BRANCH   6   8
ATOM      8  C   UNL     1      44.203   5.061  10.777  0.00  0.00    +0.000 C 
ATOM      9  C   UNL     1      43.037   4.289  11.430  0.00  0.00    +0.000 C 
ATOM     10  C   UNL     1      43.383   2.820  11.705  0.00  0.00    +0.000 C 
ATOM     11  N   UNL     1      43.853   2.112  10.519  0.00  0.00    +0.000 NA
ATOM     12  C   UNL     1      44.941   2.807   9.834  0.00  0.00    +0.000 C 
ATOM     13  C   UNL     1      44.627   4.272   9.523  0.00  0.00    +0.000 C 
ATOM     14  H   UNL     1      43.072   1.986   9.870  0.00  0.00    +0.000 HD
ENDBRANCH   6   8
BRANCH   1  15
ATOM     15  C   UNL     1      48.308   7.831  11.844  0.00  0.00    +0.000 C 
BRANCH  15  16
ATOM     16  O   UNL     1      47.989   8.989  12.614  0.00  0.00    +0.000 OA
BRANCH  16  19
ATOM     17  C   UNL     1      45.039  10.859  11.453  0.00  0.00    +0.000 A 
ATOM     18  C   UNL     1      45.747   9.865  12.116  0.00  0.00    +0.000 A 
ATOM     19  C   UNL     1      47.134   9.890  12.039  0.00  0.00    +0.000 A 
ATOM     20  C   UNL     1      47.753  10.906  11.316  0.00  0.00    +0.000 A 
ATOM     21  C   UNL     1      46.963  11.860  10.693  0.00  0.00    +0.000 A 
ATOM     22  N   UNL     1      45.615  11.863  10.735  0.00  0.00    +0.000 NA
BRANCH  17  24
ATOM     23  N   UNL     1      42.946   9.687  11.059  0.00  0.00    +0.000 N 
ATOM     24  C   UNL     1      43.543  10.835  11.502  0.00  0.00    +0.000 C 
ATOM     25  O   UNL     1      42.884  11.777  11.922  0.00  0.00    +0.000 OA
ATOM     26  H   UNL     1      41.942   9.595  11.136  0.00  0.00    +0.000 HD
ATOM     27  H   UNL     1      43.515   8.890  10.801  0.00  0.00    +0.000 HD
ENDBRANCH  17  24
ENDBRANCH  16  19
ENDBRANCH  15  16
ENDBRANCH   1  15
TORSDOF 5
ENDMDL
MODEL 6
REMARK VINA RESULT:    -6.413      3.464      4.881
REMARK INTER + INTRA:          -9.031
REMARK INTER:                  -8.667
REMARK INTRA:                  -0.364
REMARK UNBOUND:                -0.744
REMARK  Name = 
REMARK  5 active torsions:
REMARK  status: ('A' for Active; 'I' for Inactive)
REMARK    1  A    between atoms: C_2  and  C_4
REMARK    2  A    between atoms: C_6  and  O_7
REMARK    3  A    between atoms: O_7  and  C_8
REMARK    4  A    between atoms: C_8  and  C_9
REMARK    5  A    between atoms: C_14  and  C_15
REMARK                            x       y       z     vdW  Elec       q    Type
REMARK                         _______ _______ _______ _____ _____    ______ ____
ROOT
ATOM      1  C   UNL     1      47.447   5.204  14.294  0.00  0.00    +0.000 A 
ATOM      2  C   UNL     1      47.560   6.359  13.521  0.00  0.00    +0.000 A 
ATOM      3  C   UNL     1      48.255   7.452  14.027  0.00  0.00    +0.000 A 
ATOM      4  F   UNL     1      48.370   8.559  13.280  0.00  0.00    +0.000 F 
ATOM      5  C   UNL     1      48.823   7.429  15.303  0.00  0.00    +0.000 A 
ATOM      6  C   UNL     1      48.707   6.286  16.110  0.00  0.00    +0.000 A 
ATOM      7  C   UNL     1      48.063   5.171  15.555  0.00  0.00    +0.000 A 
ENDROOT
BRANCH   6   8
ATOM      8  C   UNL     1      49.305   6.263  17.516  0.00  0.00    +0.000 C 
ATOM      9  C   UNL     1      49.894   4.910  17.965  0.00  0.00    +0.000 C 
ATOM     10  C   UNL     1      48.811   3.872  18.286  0.00  0.00    +0.000 C 
ATOM     11  N   UNL     1      47.838   4.347  19.265  0.00  0.00    +0.000 NA
ATOM     12  C   UNL     1      47.261   5.643  18.913  0.00  0.00    +0.000 C 
ATOM     13  C   UNL     1      48.311   6.713  18.604  0.00  0.00    +0.000 C 
ATOM     14  H   UNL     1      48.288   4.416  20.182  0.00  0.00    +0.000 HD
ENDBRANCH   6   8
BRANCH   1  15
ATOM     15  C   UNL     1      46.685   3.992  13.822  0.00  0.00    +0.000 C 
BRANCH  15  16
ATOM     16  O   UNL     1      45.288   4.268  13.907  0.00  0.00    +0.000 OA
BRANCH  16  19
ATOM     17  C   UNL     1      44.292   4.440  10.368  0.00  0.00    +0.000 A 
ATOM     18  C   UNL     1      45.087   4.123  11.462  0.00  0.00    +0.000 A 
ATOM     19  C   UNL     1      44.634   4.485  12.725  0.00  0.00    +0.000 A 
ATOM     20  C   UNL     1      43.408   5.134  12.842  0.00  0.00    +0.000 A 
ATOM     21  C   UNL     1      42.681   5.402  11.693  0.00  0.00    +0.000 A 
ATOM     22  N   UNL     1      43.091   5.077  10.450  0.00  0.00    +0.000 NA
BRANCH  17  24
ATOM     23  N   UNL     1      44.274   2.924   8.467  0.00  0.00    +0.000 N 
ATOM     24  C   UNL     1      44.775   4.082   8.996  0.00  0.00    +0.000 C 
ATOM     25  O   UNL     1      45.562   4.782   8.373  0.00  0.00    +0.000 OA
ATOM     26  H   UNL     1      44.516   2.675   7.518  0.00  0.00    +0.000 HD
ATOM     27  H   UNL     1      43.558   2.411   8.965  0.00  0.00    +0.000 HD
ENDBRANCH  17  24
ENDBRANCH  16  19
ENDBRANCH  15  16
ENDBRANCH   1  15
TORSDOF 5
ENDMDL
MODEL 7
REMARK VINA RESULT:    -6.393      3.280      4.948
REMARK INTER + INTRA:          -9.006
REMARK INTER:                  -8.265
REMARK INTRA:                  -0.741
REMARK UNBOUND:                -0.744
REMARK  Name = 
REMARK  5 active torsions:
REMARK  status: ('A' for Active; 'I' for Inactive)
REMARK    1  A    between atoms: C_2  and  C_4
REMARK    2  A    between atoms: C_6  and  O_7
REMARK    3  A    between atoms: O_7  and  C_8
REMARK    4  A    between atoms: C_8  and  C_9
REMARK    5  A    between atoms: C_14  and  C_15
REMARK                            x       y       z     vdW  Elec       q    Type
REMARK                         _______ _______ _______ _____ _____    ______ ____
ROOT
ATOM      1  C   UNL     1      48.326   6.921  13.577  0.00  0.00    +0.000 A 
ATOM      2  C   UNL     1      49.537   7.611  13.615  0.00  0.00    +0.000 A 
ATOM      3  C   UNL     1      50.326   7.540  14.758  0.00  0.00    +0.000 A 
ATOM      4  F   UNL     1      51.494   8.198  14.791  0.00  0.00    +0.000 F 
ATOM      5  C   UNL     1      49.923   6.812  15.879  0.00  0.00    +0.000 A 
ATOM      6  C   UNL     1      48.699   6.123  15.875  0.00  0.00    +0.000 A 
ATOM      7  C   UNL     1      47.951   6.151  14.689  0.00  0.00    +0.000 A 
ENDROOT
BRANCH   6   8
ATOM      8  C   UNL     1      48.241   5.345  17.107  0.00  0.00    +0.000 C 
ATOM      9  C   UNL     1      49.370   4.821  18.018  0.00  0.00    +0.000 C 
ATOM     10  C   UNL     1      50.120   3.632  17.405  0.00  0.00    +0.000 C 
ATOM     11  N   UNL     1      49.235   2.537  17.020  0.00  0.00    +0.000 NA
ATOM     12  C   UNL     1      48.124   2.971  16.176  0.00  0.00    +0.000 C 
ATOM     13  C   UNL     1      47.337   4.145  16.764  0.00  0.00    +0.000 C 
ATOM     14  H   UNL     1      48.864   2.090  17.863  0.00  0.00    +0.000 HD
ENDBRANCH   6   8
BRANCH   1  15
ATOM     15  C   UNL     1      47.406   6.975  12.384  0.00  0.00    +0.000 C 
BRANCH  15  16
ATOM     16  O   UNL     1      46.066   6.771  12.828  0.00  0.00    +0.000 OA
BRANCH  16  19
ATOM     17  C   UNL     1      44.687   4.456  10.321  0.00  0.00    +0.000 A 
ATOM     18  C   UNL     1      45.543   5.415  10.846  0.00  0.00    +0.000 A 
ATOM     19  C   UNL     1      45.335   5.830  12.156  0.00  0.00    +0.000 A 
ATOM     20  C   UNL     1      44.293   5.265  12.886  0.00  0.00    +0.000 A 
ATOM     21  C   UNL     1      43.494   4.308  12.279  0.00  0.00    +0.000 A 
ATOM     22  N   UNL     1      43.658   3.888  11.008  0.00  0.00    +0.000 NA
BRANCH  17  24
ATOM     23  N   UNL     1      44.217   2.877   8.534  0.00  0.00    +0.000 N 
ATOM     24  C   UNL     1      44.879   4.015   8.904  0.00  0.00    +0.000 C 
ATOM     25  O   UNL     1      45.577   4.634   8.111  0.00  0.00    +0.000 OA
ATOM     26  H   UNL     1      44.259   2.576   7.570  0.00  0.00    +0.000 HD
ATOM     27  H   UNL     1      43.576   2.434   9.181  0.00  0.00    +0.000 HD
ENDBRANCH  17  24
ENDBRANCH  16  19
ENDBRANCH  15  16
ENDBRANCH   1  15
TORSDOF 5
ENDMDL
MODEL 8
REMARK VINA RESULT:    -6.267      3.243      4.565
REMARK INTER + INTRA:          -8.842
REMARK INTER:                  -8.220
REMARK INTRA:                  -0.622
REMARK UNBOUND:                -0.744
REMARK  Name = 
REMARK  5 active torsions:
REMARK  status: ('A' for Active; 'I' for Inactive)
REMARK    1  A    between atoms: C_2  and  C_4
REMARK    2  A    between atoms: C_6  and  O_7
REMARK    3  A    between atoms: O_7  and  C_8
REMARK    4  A    between atoms: C_8  and  C_9
REMARK    5  A    between atoms: C_14  and  C_15
REMARK                            x       y       z     vdW  Elec       q    Type
REMARK                         _______ _______ _______ _____ _____    ______ ____
ROOT
ATOM      1  C   UNL     1      47.513   5.067  15.095  0.00  0.00    +0.000 A 
ATOM      2  C   UNL     1      47.046   3.908  15.714  0.00  0.00    +0.000 A 
ATOM      3  C   UNL     1      47.359   3.676  17.049  0.00  0.00    +0.000 A 
ATOM      4  F   UNL     1      46.902   2.566  17.646  0.00  0.00    +0.000 F 
ATOM      5  C   UNL     1      48.150   4.566  17.779  0.00  0.00    +0.000 A 
ATOM      6  C   UNL     1      48.650   5.730  17.174  0.00  0.00    +0.000 A 
ATOM      7  C   UNL     1      48.267   5.980  15.848  0.00  0.00    +0.000 A 
ENDROOT
BRANCH   6   8
ATOM      8  C   UNL     1      49.537   6.695  17.959  0.00  0.00    +0.000 C 
ATOM      9  C   UNL     1      49.266   6.758  19.477  0.00  0.00    +0.000 C 
ATOM     10  C   UNL     1      47.966   7.498  19.814  0.00  0.00    +0.000 C 
ATOM     11  N   UNL     1      47.905   8.837  19.236  0.00  0.00    +0.000 NA
ATOM     12  C   UNL     1      48.182   8.852  17.801  0.00  0.00    +0.000 C 
ATOM     13  C   UNL     1      49.483   8.139  17.425  0.00  0.00    +0.000 C 
ATOM     14  H   UNL     1      48.577   9.442  19.715  0.00  0.00    +0.000 HD
ENDBRANCH   6   8
BRANCH   1  15
ATOM     15  C   UNL     1      47.238   5.370  13.644  0.00  0.00    +0.000 C 
BRANCH  15  16
ATOM     16  O   UNL     1      45.931   5.931  13.533  0.00  0.00    +0.000 OA
BRANCH  16  19
ATOM     17  C   UNL     1      44.619   4.690  10.326  0.00  0.00    +0.000 A 
ATOM     18  C   UNL     1      45.566   5.151  11.231  0.00  0.00    +0.000 A 
ATOM     19  C   UNL     1      45.144   5.454  12.520  0.00  0.00    +0.000 A 
ATOM     20  C   UNL     1      43.805   5.275  12.852  0.00  0.00    +0.000 A 
ATOM     21  C   UNL     1      42.933   4.802  11.883  0.00  0.00    +0.000 A 
ATOM     22  N   UNL     1      43.302   4.508  10.619  0.00  0.00    +0.000 NA
BRANCH  17  24
ATOM     23  N   UNL     1      44.364   3.381   8.293  0.00  0.00    +0.000 N 
ATOM     24  C   UNL     1      45.048   4.383   8.925  0.00  0.00    +0.000 C 
ATOM     25  O   UNL     1      45.949   4.994   8.365  0.00  0.00    +0.000 OA
ATOM     26  H   UNL     1      44.570   3.183   7.324  0.00  0.00    +0.000 HD
ATOM     27  H   UNL     1      43.566   2.953   8.745  0.00  0.00    +0.000 HD
ENDBRANCH  17  24
ENDBRANCH  16  19
ENDBRANCH  15  16
ENDBRANCH   1  15
TORSDOF 5
ENDMDL
MODEL 9
REMARK VINA RESULT:    -6.217      3.528      4.894
REMARK INTER + INTRA:          -8.778
REMARK INTER:                  -8.137
REMARK INTRA:                  -0.641
REMARK UNBOUND:                -0.744
REMARK  Name = 
REMARK  5 active torsions:
REMARK  status: ('A' for Active; 'I' for Inactive)
REMARK    1  A    between atoms: C_2  and  C_4
REMARK    2  A    between atoms: C_6  and  O_7
REMARK    3  A    between atoms: O_7  and  C_8
REMARK    4  A    between atoms: C_8  and  C_9
REMARK    5  A    between atoms: C_14  and  C_15
REMARK                            x       y       z     vdW  Elec       q    Type
REMARK                         _______ _______ _______ _____ _____    ______ ____
ROOT
ATOM      1  C   UNL     1      47.542   5.037  15.126  0.00  0.00    +0.000 A 
ATOM      2  C   UNL     1      47.004   3.905  15.736  0.00  0.00    +0.000 A 
ATOM      3  C   UNL     1      47.314   3.635  17.065  0.00  0.00    +0.000 A 
ATOM      4  F   UNL     1      46.790   2.550  17.652  0.00  0.00    +0.000 F 
ATOM      5  C   UNL     1      48.172   4.459  17.796  0.00  0.00    +0.000 A 
ATOM      6  C   UNL     1      48.743   5.594  17.200  0.00  0.00    +0.000 A 
ATOM      7  C   UNL     1      48.364   5.887  15.882  0.00  0.00    +0.000 A 
ENDROOT
BRANCH   6   8
ATOM      8  C   UNL     1      49.701   6.486  17.988  0.00  0.00    +0.000 C 
ATOM      9  C   UNL     1      50.686   7.316  17.137  0.00  0.00    +0.000 C 
ATOM     10  C   UNL     1      51.804   6.461  16.528  0.00  0.00    +0.000 C 
ATOM     11  N   UNL     1      52.532   5.679  17.522  0.00  0.00    +0.000 NA
ATOM     12  C   UNL     1      51.652   4.889  18.382  0.00  0.00    +0.000 C 
ATOM     13  C   UNL     1      50.534   5.712  19.027  0.00  0.00    +0.000 C 
ATOM     14  H   UNL     1      53.093   6.309  18.101  0.00  0.00    +0.000 HD
ENDBRANCH   6   8
BRANCH   1  15
ATOM     15  C   UNL     1      47.273   5.377  13.682  0.00  0.00    +0.000 C 
BRANCH  15  16
ATOM     16  O   UNL     1      45.965   5.939  13.580  0.00  0.00    +0.000 OA
BRANCH  16  19
ATOM     17  C   UNL     1      44.655   4.757  10.349  0.00  0.00    +0.000 A 
ATOM     18  C   UNL     1      45.601   5.205  11.262  0.00  0.00    +0.000 A 
ATOM     19  C   UNL     1      45.180   5.478  12.558  0.00  0.00    +0.000 A 
ATOM     20  C   UNL     1      43.842   5.283  12.889  0.00  0.00    +0.000 A 
ATOM     21  C   UNL     1      42.972   4.825  11.912  0.00  0.00    +0.000 A 
ATOM     22  N   UNL     1      43.340   4.560  10.641  0.00  0.00    +0.000 NA
BRANCH  17  24
ATOM     23  N   UNL     1      44.318   3.590   8.243  0.00  0.00    +0.000 N 
ATOM     24  C   UNL     1      45.084   4.483   8.941  0.00  0.00    +0.000 C 
ATOM     25  O   UNL     1      46.054   5.027   8.432  0.00  0.00    +0.000 OA
ATOM     26  H   UNL     1      44.525   3.423   7.269  0.00  0.00    +0.000 HD
ATOM     27  H   UNL     1      43.470   3.222   8.657  0.00  0.00    +0.000 HD
ENDBRANCH  17  24
ENDBRANCH  16  19
ENDBRANCH  15  16
ENDBRANCH   1  15
TORSDOF 5
ENDMDL
