MODEL 1
REMARK VINA RESULT:    -8.249      0.000      0.000
REMARK INTER + INTRA:         -12.716
REMARK INTER:                 -11.624
REMARK INTRA:                  -1.091
REMARK UNBOUND:                -1.091
REMARK  Name = 
REMARK  7 active torsions:
REMARK  status: ('A' for Active; 'I' for Inactive)
REMARK    1  A    between atoms: C_2  and  C_3
REMARK    2  A    between atoms: C_3  and  N_4
REMARK    3  A    between atoms: C_3  and  C_17
REMARK    4  A    between atoms: C_5  and  C_7
REMARK    5  A    between atoms: C_20  and  C_21
REMARK    6  A    between atoms: C_21  and  N_22
REMARK    7  A    between atoms: C_23  and  C_25
REMARK                            x       y       z     vdW  Elec       q    Type
REMARK                         _______ _______ _______ _____ _____    ______ ____
ROOT
ATOM      1  C   UNL     1      48.225   6.914  15.005  0.00  0.00    +0.000 C 
ENDROOT
BRANCH   1   2
ATOM      2  C   UNL     1      47.339   6.013  14.146  0.00  0.00    +0.000 A 
ATOM      3  C   UNL     1      46.655   6.548  13.040  0.00  0.00    +0.000 A 
ATOM      4  C   UNL     1      45.826   5.743  12.246  0.00  0.00    +0.000 A 
ATOM      5  C   UNL     1      45.643   4.388  12.550  0.00  0.00    +0.000 A 
ATOM      6  C   UNL     1      46.332   3.848  13.641  0.00  0.00    +0.000 A 
ATOM      7  C   UNL     1      47.151   4.651  14.441  0.00  0.00    +0.000 A 
BRANCH   5   8
ATOM      8  C   UNL     1      44.720   3.520  11.734  0.00  0.00    +0.000 C 
BRANCH   8   9
ATOM      9  N   UNL     1      45.377   2.974  10.573  0.00  0.00    +0.000 N 
ATOM     10  C   UNL     1      45.035   3.389   9.304  0.00  0.00    +0.000 C 
ATOM     11  O   UNL     1      44.177   4.239   9.079  0.00  0.00    +0.000 OA
ATOM     12  H   UNL     1      46.222   2.439  10.713  0.00  0.00    +0.000 HD
BRANCH  10  13
ATOM     13  C   UNL     1      45.791   2.764   8.185  0.00  0.00    +0.000 A 
ATOM     14  C   UNL     1      46.212   1.427   8.260  0.00  0.00    +0.000 A 
ATOM     15  C   UNL     1      46.935   0.861   7.210  0.00  0.00    +0.000 A 
ATOM     16  C   UNL     1      47.231   1.618   6.078  0.00  0.00    +0.000 A 
ATOM     17  C   UNL     1      46.795   2.939   5.986  0.00  0.00    +0.000 A 
ATOM     18  C   UNL     1      46.069   3.514   7.037  0.00  0.00    +0.000 A 
ENDBRANCH  10  13
ENDBRANCH   8   9
ENDBRANCH   5   8
ENDBRANCH   1   2
BRANCH   1  19
ATOM     19  N   UNL     1      49.317   6.133  15.569  0.00  0.00    +0.000 N 
ATOM     20  C   UNL     1      49.333   5.787  16.895  0.00  0.00    +0.000 C 
ATOM     21  O   UNL     1      48.391   6.071  17.630  0.00  0.00    +0.000 OA
ATOM     22  H   UNL     1      50.119   5.954  14.972  0.00  0.00    +0.000 HD
BRANCH  20  23
ATOM     23  C   UNL     1      50.506   5.055  17.405  0.00  0.00    +0.000 A 
ATOM     24  C   UNL     1      51.555   5.769  17.970  0.00  0.00    +0.000 A 
ATOM     25  S   UNL     1      52.856   4.796  18.490  0.00  0.00    +0.000 S 
ATOM     26  C   UNL     1      52.075   3.381  17.961  0.00  0.00    +0.000 A 
ATOM     27  N   UNL     1      52.680   2.169  18.078  0.00  0.00    +0.000 NA
ATOM     28  C   UNL     1      51.986   1.178  17.627  0.00  0.00    +0.000 A 
ATOM     29  N   UNL     1      50.732   1.289  17.088  0.00  0.00    +0.000 N 
ATOM     30  C   UNL     1      50.070   2.488  16.972  0.00  0.00    +0.000 A 
ATOM     31  O   UNL     1      48.934   2.547  16.515  0.00  0.00    +0.000 OA
ATOM     32  C   UNL     1      50.824   3.643  17.427  0.00  0.00    +0.000 A 
ATOM     33  H   UNL     1      50.235   0.471  16.767  0.00  0.00    +0.000 HD
ENDBRANCH  20  23
ENDBRANCH   1  19
BRANCH   1  35
ATOM     34  N   UNL     1      49.104   9.046  13.698  0.00  0.00    +0.000 NA
ATOM     35  C   UNL     1      48.732   8.097  14.256  0.00  0.00    +0.000 C 
ENDBRANCH   1  35
TORSDOF 7
ENDMDL
MODEL 2
REMARK VINA RESULT:    -8.162      2.767      4.290
REMARK INTER + INTRA:         -12.593
REMARK INTER:                 -11.329
REMARK INTRA:                  -1.264
REMARK UNBOUND:                -1.091
REMARK  Name = 
REMARK  7 active torsions:
REMARK  status: ('A' for Active; 'I' for Inactive)
REMARK    1  A    between atoms: C_2  and  C_3
REMARK    2  A    between atoms: C_3  and  N_4
REMARK    3  A    between atoms: C_3  and  C_17
REMARK    4  A    between atoms: C_5  and  C_7
REMARK    5  A    between atoms: C_20  and  C_21
REMARK    6  A    between atoms: C_21  and  N_22
REMARK    7  A    between atoms: C_23  and  C_25
REMARK                            x       y       z     vdW  Elec       q    Type
REMARK                         _______ _______ _______ _____ _____    ______ ____
ROOT
ATOM      1  C   UNL     1      47.834   4.836  15.667  0.00  0.00    +0.000 C 
ENDROOT
BRANCH   1   2
ATOM      2  C   UNL     1      47.051   5.012  14.366  0.00  0.00    +0.000 A 
ATOM      3  C   UNL     1      46.171   4.005  13.936  0.00  0.00    +0.000 A 
ATOM      4  C   UNL     1      45.452   4.138  12.740  0.00  0.00    +0.000 A 
ATOM      5  C   UNL     1      45.612   5.272  11.934  0.00  0.00    +0.000 A 
ATOM      6  C   UNL     1      46.477   6.284  12.365  0.00  0.00    +0.000 A 
ATOM      7  C   UNL     1      47.203   6.148  13.552  0.00  0.00    +0.000 A 
BRANCH   5   8
ATOM      8  C   UNL     1      44.882   5.411  10.622  0.00  0.00    +0.000 C 
BRANCH   8   9
ATOM      9  N   UNL     1      45.551   4.711   9.554  0.00  0.00    +0.000 N 
ATOM     10  C   UNL     1      45.149   3.450   9.171  0.00  0.00    +0.000 C 
ATOM     11  O   UNL     1      44.210   2.852   9.691  0.00  0.00    +0.000 OA
ATOM     12  H   UNL     1      46.180   5.237   8.963  0.00  0.00    +0.000 HD
BRANCH  10  13
ATOM     13  C   UNL     1      45.907   2.834   8.047  0.00  0.00    +0.000 A 
ATOM     14  C   UNL     1      46.324   1.496   8.111  0.00  0.00    +0.000 A 
ATOM     15  C   UNL     1      47.048   0.938   7.057  0.00  0.00    +0.000 A 
ATOM     16  C   UNL     1      47.349   1.705   5.934  0.00  0.00    +0.000 A 
ATOM     17  C   UNL     1      46.917   3.028   5.853  0.00  0.00    +0.000 A 
ATOM     18  C   UNL     1      46.190   3.595   6.908  0.00  0.00    +0.000 A 
ENDBRANCH  10  13
ENDBRANCH   8   9
ENDBRANCH   5   8
ENDBRANCH   1   2
BRANCH   1  19
ATOM     19  N   UNL     1      48.056   6.136  16.285  0.00  0.00    +0.000 N 
ATOM     20  C   UNL     1      49.312   6.546  16.649  0.00  0.00    +0.000 C 
ATOM     21  O   UNL     1      50.295   5.853  16.403  0.00  0.00    +0.000 OA
ATOM     22  H   UNL     1      47.235   6.677  16.540  0.00  0.00    +0.000 HD
BRANCH  20  23
ATOM     23  C   UNL     1      49.445   7.845  17.330  0.00  0.00    +0.000 A 
ATOM     24  C   UNL     1      50.353   8.776  16.840  0.00  0.00    +0.000 A 
ATOM     25  S   UNL     1      50.423  10.221  17.744  0.00  0.00    +0.000 S 
ATOM     26  C   UNL     1      49.254   9.651  18.840  0.00  0.00    +0.000 A 
ATOM     27  N   UNL     1      48.876  10.406  19.905  0.00  0.00    +0.000 NA
ATOM     28  C   UNL     1      47.991   9.853  20.666  0.00  0.00    +0.000 A 
ATOM     29  N   UNL     1      47.436   8.621  20.444  0.00  0.00    +0.000 N 
ATOM     30  C   UNL     1      47.767   7.833  19.367  0.00  0.00    +0.000 A 
ATOM     31  O   UNL     1      47.226   6.748  19.181  0.00  0.00    +0.000 OA
ATOM     32  C   UNL     1      48.791   8.390  18.501  0.00  0.00    +0.000 A 
ATOM     33  H   UNL     1      46.735   8.252  21.071  0.00  0.00    +0.000 HD
ENDBRANCH  20  23
ENDBRANCH   1  19
BRANCH   1  35
ATOM     34  N   UNL     1      46.683   3.168  17.375  0.00  0.00    +0.000 NA
ATOM     35  C   UNL     1      47.173   3.891  16.609  0.00  0.00    +0.000 C 
ENDBRANCH   1  35
TORSDOF 7
ENDMDL
MODEL 3
REMARK VINA RESULT:    -8.161      1.480      1.996
REMARK INTER + INTRA:         -12.592
REMARK INTER:                 -11.355
REMARK INTRA:                  -1.238
REMARK UNBOUND:                -1.091
REMARK  Name = 
REMARK  7 active torsions:
REMARK  status: ('A' for Active; 'I' for Inactive)
REMARK    1  A    between atoms: C_2  and  C_3
REMARK    2  A    between atoms: C_3  and  N_4
REMARK    3  A    between atoms: C_3  and  C_17
REMARK    4  A    between atoms: C_5  and  C_7
REMARK    5  A    between atoms: C_20  and  C_21
REMARK    6  A    between atoms: C_21  and  N_22
REMARK    7  A    between atoms: C_23  and  C_25
REMARK                            x       y       z     vdW  Elec       q    Type
REMARK                         _______ _______ _______ _____ _____    ______ ____
ROOT
ATOM      1  C   UNL     1      47.446   8.228  14.153  0.00  0.00    +0.000 C 
ENDROOT
BRANCH   1   2
ATOM      2  C   UNL     1      46.531   7.484  13.181  0.00  0.00    +0.000 A 
ATOM      3  C   UNL     1      46.626   6.087  13.058  0.00  0.00    +0.000 A 
ATOM      4  C   UNL     1      45.807   5.384  12.164  0.00  0.00    +0.000 A 
ATOM      5  C   UNL     1      44.887   6.063  11.354  0.00  0.00    +0.000 A 
ATOM      6  C   UNL     1      44.779   7.452  11.483  0.00  0.00    +0.000 A 
ATOM      7  C   UNL     1      45.603   8.156  12.367  0.00  0.00    +0.000 A 
BRANCH   5   8
ATOM      8  C   UNL     1      44.031   5.329  10.355  0.00  0.00    +0.000 C 
BRANCH   8   9
ATOM      9  N   UNL     1      44.822   4.670   9.345  0.00  0.00    +0.000 N 
ATOM     10  C   UNL     1      44.885   3.295   9.280  0.00  0.00    +0.000 C 
ATOM     11  O   UNL     1      44.279   2.552  10.048  0.00  0.00    +0.000 OA
ATOM     12  H   UNL     1      45.162   5.223   8.573  0.00  0.00    +0.000 HD
BRANCH  10  13
ATOM     13  C   UNL     1      45.723   2.729   8.187  0.00  0.00    +0.000 A 
ATOM     14  C   UNL     1      46.190   1.407   8.251  0.00  0.00    +0.000 A 
ATOM     15  C   UNL     1      46.988   0.897   7.227  0.00  0.00    +0.000 A 
ATOM     16  C   UNL     1      47.315   1.695   6.133  0.00  0.00    +0.000 A 
ATOM     17  C   UNL     1      46.835   3.002   6.051  0.00  0.00    +0.000 A 
ATOM     18  C   UNL     1      46.033   3.520   7.076  0.00  0.00    +0.000 A 
ENDBRANCH  10  13
ENDBRANCH   8   9
ENDBRANCH   5   8
ENDBRANCH   1   2
BRANCH   1  19
ATOM     19  N   UNL     1      48.312   7.278  14.837  0.00  0.00    +0.000 N 
ATOM     20  C   UNL     1      48.801   7.534  16.091  0.00  0.00    +0.000 C 
ATOM     21  O   UNL     1      48.467   8.547  16.700  0.00  0.00    +0.000 OA
ATOM     22  H   UNL     1      48.632   6.473  14.305  0.00  0.00    +0.000 HD
BRANCH  20  23
ATOM     23  C   UNL     1      49.725   6.554  16.687  0.00  0.00    +0.000 A 
ATOM     24  C   UNL     1      50.983   6.975  17.099  0.00  0.00    +0.000 A 
ATOM     25  S   UNL     1      51.955   5.730  17.742  0.00  0.00    +0.000 S 
ATOM     26  C   UNL     1      50.738   4.573  17.478  0.00  0.00    +0.000 A 
ATOM     27  N   UNL     1      50.946   3.265  17.782  0.00  0.00    +0.000 NA
ATOM     28  C   UNL     1      49.948   2.489  17.522  0.00  0.00    +0.000 A 
ATOM     29  N   UNL     1      48.752   2.909  17.003  0.00  0.00    +0.000 N 
ATOM     30  C   UNL     1      48.486   4.224  16.704  0.00  0.00    +0.000 A 
ATOM     31  O   UNL     1      47.392   4.570  16.271  0.00  0.00    +0.000 OA
ATOM     32  C   UNL     1      49.592   5.135  16.939  0.00  0.00    +0.000 A 
ATOM     33  H   UNL     1      48.004   2.251  16.837  0.00  0.00    +0.000 HD
ENDBRANCH  20  23
ENDBRANCH   1  19
BRANCH   1  35
ATOM     34  N   UNL     1      48.882  10.111  12.962  0.00  0.00    +0.000 NA
ATOM     35  C   UNL     1      48.234   9.302  13.487  0.00  0.00    +0.000 C 
ENDBRANCH   1  35
TORSDOF 7
ENDMDL
MODEL 4
REMARK VINA RESULT:    -7.800      2.311      3.211
REMARK INTER + INTRA:         -12.083
REMARK INTER:                 -11.134
REMARK INTRA:                  -0.949
REMARK UNBOUND:                -1.091
REMARK  Name = 
REMARK  7 active torsions:
REMARK  status: ('A' for Active; 'I' for Inactive)
REMARK    1  A    between atoms: C_2  and  C_3
REMARK    2  A    between atoms: C_3  and  N_4
REMARK    3  A    between atoms: C_3  and  C_17
REMARK    4  A    between atoms: C_5  and  C_7
REMARK    5  A    between atoms: C_20  and  C_21
REMARK    6  A    between atoms: C_21  and  N_22
REMARK    7  A    between atoms: C_23  and  C_25
REMARK                            x       y       z     vdW  Elec       q    Type
REMARK                         _______ _______ _______ _____ _____    ______ ____
ROOT
ATOM      1  C   UNL     1      47.543   8.900  13.850  0.00  0.00    +0.000 C 
ENDROOT
BRANCH   1   2
ATOM      2  C   UNL     1      46.648   7.991  13.009  0.00  0.00    +0.000 A 
ATOM      3  C   UNL     1      46.970   6.631  12.861  0.00  0.00    +0.000 A 
ATOM      4  C   UNL     1      46.171   5.781  12.083  0.00  0.00    +0.000 A 
ATOM      5  C   UNL     1      45.043   6.275  11.416  0.00  0.00    +0.000 A 
ATOM      6  C   UNL     1      44.710   7.625  11.572  0.00  0.00    +0.000 A 
ATOM      7  C   UNL     1      45.512   8.476  12.339  0.00  0.00    +0.000 A 
BRANCH   5   8
ATOM      8  C   UNL     1      44.199   5.385  10.540  0.00  0.00    +0.000 C 
BRANCH   8   9
ATOM      9  N   UNL     1      44.983   4.724   9.526  0.00  0.00    +0.000 N 
ATOM     10  C   UNL     1      44.843   3.373   9.290  0.00  0.00    +0.000 C 
ATOM     11  O   UNL     1      44.053   2.658   9.902  0.00  0.00    +0.000 OA
ATOM     12  H   UNL     1      45.482   5.298   8.863  0.00  0.00    +0.000 HD
BRANCH  10  13
ATOM     13  C   UNL     1      45.696   2.806   8.210  0.00  0.00    +0.000 A 
ATOM     14  C   UNL     1      46.070   3.586   7.106  0.00  0.00    +0.000 A 
ATOM     15  C   UNL     1      46.856   3.034   6.093  0.00  0.00    +0.000 A 
ATOM     16  C   UNL     1      47.281   1.711   6.182  0.00  0.00    +0.000 A 
ATOM     17  C   UNL     1      46.933   0.936   7.289  0.00  0.00    +0.000 A 
ATOM     18  C   UNL     1      46.144   1.484   8.308  0.00  0.00    +0.000 A 
ENDBRANCH  10  13
ENDBRANCH   8   9
ENDBRANCH   5   8
ENDBRANCH   1   2
BRANCH   1  19
ATOM     19  N   UNL     1      47.747   8.307  15.165  0.00  0.00    +0.000 N 
ATOM     20  C   UNL     1      48.260   9.037  16.204  0.00  0.00    +0.000 C 
ATOM     21  O   UNL     1      48.501  10.234  16.071  0.00  0.00    +0.000 OA
ATOM     22  H   UNL     1      47.603   7.304  15.251  0.00  0.00    +0.000 HD
BRANCH  20  23
ATOM     23  C   UNL     1      48.500   8.347  17.483  0.00  0.00    +0.000 A 
ATOM     24  C   UNL     1      48.094   8.954  18.665  0.00  0.00    +0.000 A 
ATOM     25  S   UNL     1      48.462   8.057  20.068  0.00  0.00    +0.000 S 
ATOM     26  C   UNL     1      49.197   6.829  19.151  0.00  0.00    +0.000 A 
ATOM     27  N   UNL     1      49.767   5.755  19.760  0.00  0.00    +0.000 NA
ATOM     28  C   UNL     1      50.301   4.902  18.952  0.00  0.00    +0.000 A 
ATOM     29  N   UNL     1      50.298   5.017  17.587  0.00  0.00    +0.000 N 
ATOM     30  C   UNL     1      49.712   6.070  16.926  0.00  0.00    +0.000 A 
ATOM     31  O   UNL     1      49.698   6.125  15.700  0.00  0.00    +0.000 OA
ATOM     32  C   UNL     1      49.132   7.082  17.791  0.00  0.00    +0.000 A 
ATOM     33  H   UNL     1      50.721   4.305  17.009  0.00  0.00    +0.000 HD
ENDBRANCH  20  23
ENDBRANCH   1  19
BRANCH   1  35
ATOM     34  N   UNL     1      49.833   9.473  12.644  0.00  0.00    +0.000 NA
ATOM     35  C   UNL     1      48.839   9.202  13.182  0.00  0.00    +0.000 C 
ENDBRANCH   1  35
TORSDOF 7
ENDMDL
MODEL 5
REMARK VINA RESULT:    -7.694      2.331      3.087
REMARK INTER + INTRA:         -11.934
REMARK INTER:                 -11.295
REMARK INTRA:                  -0.639
REMARK UNBOUND:                -1.091
REMARK  Name = 
REMARK  7 active torsions:
REMARK  status: ('A' for Active; 'I' for Inactive)
REMARK    1  A    between atoms: C_2  and  C_3
REMARK    2  A    between atoms: C_3  and  N_4
REMARK    3  A    between atoms: C_3  and  C_17
REMARK    4  A    between atoms: C_5  and  C_7
REMARK    5  A    between atoms: C_20  and  C_21
REMARK    6  A    between atoms: C_21  and  N_22
REMARK    7  A    between atoms: C_23  and  C_25
REMARK                            x       y       z     vdW  Elec       q    Type
REMARK                         _______ _______ _______ _____ _____    ______ ____
ROOT
ATOM      1  C   UNL     1      47.940   7.457  14.026  0.00  0.00    +0.000 C 
ENDROOT
BRANCH   1   2
ATOM      2  C   UNL     1      46.877   6.799  13.147  0.00  0.00    +0.000 A 
ATOM      3  C   UNL     1      46.672   5.410  13.215  0.00  0.00    +0.000 A 
ATOM      4  C   UNL     1      45.712   4.782  12.409  0.00  0.00    +0.000 A 
ATOM      5  C   UNL     1      44.948   5.525  11.500  0.00  0.00    +0.000 A 
ATOM      6  C   UNL     1      45.138   6.909  11.439  0.00  0.00    +0.000 A 
ATOM      7  C   UNL     1      46.103   7.535  12.235  0.00  0.00    +0.000 A 
BRANCH   5   8
ATOM      8  C   UNL     1      43.944   4.860  10.594  0.00  0.00    +0.000 C 
BRANCH   8   9
ATOM      9  N   UNL     1      44.558   3.880   9.732  0.00  0.00    +0.000 N 
ATOM     10  C   UNL     1      45.466   4.255   8.766  0.00  0.00    +0.000 C 
ATOM     11  O   UNL     1      45.816   5.419   8.583  0.00  0.00    +0.000 OA
ATOM     12  H   UNL     1      44.467   2.906   9.981  0.00  0.00    +0.000 HD
BRANCH  10  13
ATOM     13  C   UNL     1      46.044   3.154   7.948  0.00  0.00    +0.000 A 
ATOM     14  C   UNL     1      46.079   1.839   8.435  0.00  0.00    +0.000 A 
ATOM     15  C   UNL     1      46.639   0.821   7.662  0.00  0.00    +0.000 A 
ATOM     16  C   UNL     1      47.154   1.106   6.400  0.00  0.00    +0.000 A 
ATOM     17  C   UNL     1      47.101   2.407   5.899  0.00  0.00    +0.000 A 
ATOM     18  C   UNL     1      46.541   3.433   6.670  0.00  0.00    +0.000 A 
ENDBRANCH  10  13
ENDBRANCH   8   9
ENDBRANCH   5   8
ENDBRANCH   1   2
BRANCH   1  19
ATOM     19  N   UNL     1      48.225   6.605  15.172  0.00  0.00    +0.000 N 
ATOM     20  C   UNL     1      48.756   7.118  16.326  0.00  0.00    +0.000 C 
ATOM     21  O   UNL     1      48.945   8.325  16.448  0.00  0.00    +0.000 OA
ATOM     22  H   UNL     1      48.123   5.602  15.044  0.00  0.00    +0.000 HD
BRANCH  20  23
ATOM     23  C   UNL     1      49.078   6.181  17.416  0.00  0.00    +0.000 A 
ATOM     24  C   UNL     1      49.982   5.153  17.179  0.00  0.00    +0.000 A 
ATOM     25  S   UNL     1      50.237   4.130  18.520  0.00  0.00    +0.000 S 
ATOM     26  C   UNL     1      49.133   5.010  19.466  0.00  0.00    +0.000 A 
ATOM     27  N   UNL     1      48.853   4.628  20.740  0.00  0.00    +0.000 NA
ATOM     28  C   UNL     1      47.989   5.373  21.345  0.00  0.00    +0.000 A 
ATOM     29  N   UNL     1      47.397   6.480  20.796  0.00  0.00    +0.000 N 
ATOM     30  C   UNL     1      47.669   6.919  19.522  0.00  0.00    +0.000 A 
ATOM     31  O   UNL     1      47.145   7.934  19.073  0.00  0.00    +0.000 OA
ATOM     32  C   UNL     1      48.604   6.091  18.781  0.00  0.00    +0.000 A 
ATOM     33  H   UNL     1      46.740   7.030  21.329  0.00  0.00    +0.000 HD
ENDBRANCH  20  23
ENDBRANCH   1  19
BRANCH   1  35
ATOM     34  N   UNL     1      50.140   8.011  12.655  0.00  0.00    +0.000 NA
ATOM     35  C   UNL     1      49.181   7.787  13.271  0.00  0.00    +0.000 C 
ENDBRANCH   1  35
TORSDOF 7
ENDMDL
MODEL 6
REMARK VINA RESULT:    -7.533      1.939      2.430
REMARK INTER + INTRA:         -11.706
REMARK INTER:                 -11.172
REMARK INTRA:                  -0.535
REMARK UNBOUND:                -1.091
REMARK  Name = 
REMARK  7 active torsions:
REMARK  status: ('A' for Active; 'I' for Inactive)
REMARK    1  A    between atoms: C_2  and  C_3
REMARK    2  A    between atoms: C_3  and  N_4
REMARK    3  A    between atoms: C_3  and  C_17
REMARK    4  A    between atoms: C_5  and  C_7
REMARK    5  A    between atoms: C_20  and  C_21
REMARK    6  A    between atoms: C_21  and  N_22
REMARK    7  A    between atoms: C_23  and  C_25
REMARK                            x       y       z     vdW  Elec       q    Type
REMARK                         _______ _______ _______ _____ _____    ______ ____
ROOT
ATOM      1  C   UNL     1      47.672   7.537  13.948  0.00  0.00    +0.000 C 
ENDROOT
BRANCH   1   2
ATOM      2  C   UNL     1      46.629   6.839  13.075  0.00  0.00    +0.000 A 
ATOM      3  C   UNL     1      46.545   5.436  13.069  0.00  0.00    +0.000 A 
ATOM      4  C   UNL     1      45.605   4.774  12.267  0.00  0.00    +0.000 A 
ATOM      5  C   UNL     1      44.742   5.497  11.434  0.00  0.00    +0.000 A 
ATOM      6  C   UNL     1      44.813   6.894  11.446  0.00  0.00    +0.000 A 
ATOM      7  C   UNL     1      45.757   7.556  12.238  0.00  0.00    +0.000 A 
BRANCH   5   8
ATOM      8  C   UNL     1      43.757   4.799  10.530  0.00  0.00    +0.000 C 
BRANCH   8   9
ATOM      9  N   UNL     1      44.401   3.841   9.666  0.00  0.00    +0.000 N 
ATOM     10  C   UNL     1      45.387   4.231   8.785  0.00  0.00    +0.000 C 
ATOM     11  O   UNL     1      45.784   5.390   8.684  0.00  0.00    +0.000 OA
ATOM     12  H   UNL     1      44.263   2.860   9.859  0.00  0.00    +0.000 HD
BRANCH  10  13
ATOM     13  C   UNL     1      45.987   3.152   7.955  0.00  0.00    +0.000 A 
ATOM     14  C   UNL     1      46.066   1.836   8.435  0.00  0.00    +0.000 A 
ATOM     15  C   UNL     1      46.647   0.838   7.651  0.00  0.00    +0.000 A 
ATOM     16  C   UNL     1      47.140   1.144   6.385  0.00  0.00    +0.000 A 
ATOM     17  C   UNL     1      47.044   2.445   5.891  0.00  0.00    +0.000 A 
ATOM     18  C   UNL     1      46.462   3.451   6.673  0.00  0.00    +0.000 A 
ENDBRANCH  10  13
ENDBRANCH   8   9
ENDBRANCH   5   8
ENDBRANCH   1   2
BRANCH   1  19
ATOM     19  N   UNL     1      48.174   6.607  14.950  0.00  0.00    +0.000 N 
ATOM     20  C   UNL     1      48.765   7.053  16.102  0.00  0.00    +0.000 C 
ATOM     21  O   UNL     1      48.828   8.254  16.352  0.00  0.00    +0.000 OA
ATOM     22  H   UNL     1      48.173   5.620  14.711  0.00  0.00    +0.000 HD
BRANCH  20  23
ATOM     23  C   UNL     1      49.308   6.051  17.035  0.00  0.00    +0.000 A 
ATOM     24  C   UNL     1      48.434   5.333  17.841  0.00  0.00    +0.000 A 
ATOM     25  S   UNL     1      49.203   4.230  18.890  0.00  0.00    +0.000 S 
ATOM     26  C   UNL     1      50.740   4.683  18.321  0.00  0.00    +0.000 A 
ATOM     27  N   UNL     1      51.865   4.129  18.847  0.00  0.00    +0.000 NA
ATOM     28  C   UNL     1      52.966   4.568  18.336  0.00  0.00    +0.000 A 
ATOM     29  N   UNL     1      53.042   5.497  17.333  0.00  0.00    +0.000 N 
ATOM     30  C   UNL     1      51.932   6.065  16.753  0.00  0.00    +0.000 A 
ATOM     31  O   UNL     1      52.035   6.870  15.833  0.00  0.00    +0.000 OA
ATOM     32  C   UNL     1      50.666   5.637  17.320  0.00  0.00    +0.000 A 
ATOM     33  H   UNL     1      53.937   5.787  16.966  0.00  0.00    +0.000 HD
ENDBRANCH  20  23
ENDBRANCH   1  19
BRANCH   1  35
ATOM     34  N   UNL     1      49.626   8.629  12.528  0.00  0.00    +0.000 NA
ATOM     35  C   UNL     1      48.781   8.129  13.149  0.00  0.00    +0.000 C 
ENDBRANCH   1  35
TORSDOF 7
ENDMDL
MODEL 7
REMARK VINA RESULT:    -7.523      4.640      5.145
REMARK INTER + INTRA:         -11.693
REMARK INTER:                 -10.479
REMARK INTRA:                  -1.214
REMARK UNBOUND:                -1.091
REMARK  Name = 
REMARK  7 active torsions:
REMARK  status: ('A' for Active; 'I' for Inactive)
REMARK    1  A    between atoms: C_2  and  C_3
REMARK    2  A    between atoms: C_3  and  N_4
REMARK    3  A    between atoms: C_3  and  C_17
REMARK    4  A    between atoms: C_5  and  C_7
REMARK    5  A    between atoms: C_20  and  C_21
REMARK    6  A    between atoms: C_21  and  N_22
REMARK    7  A    between atoms: C_23  and  C_25
REMARK                            x       y       z     vdW  Elec       q    Type
REMARK                         _______ _______ _______ _____ _____    ______ ____
ROOT
ATOM      1  C   UNL     1      45.894   8.957  12.888  0.00  0.00    +0.000 C 
ENDROOT
BRANCH   1   2
ATOM      2  C   UNL     1      45.474   7.529  12.542  0.00  0.00    +0.000 A 
ATOM      3  C   UNL     1      46.274   6.445  12.942  0.00  0.00    +0.000 A 
ATOM      4  C   UNL     1      45.916   5.128  12.624  0.00  0.00    +0.000 A 
ATOM      5  C   UNL     1      44.759   4.863  11.879  0.00  0.00    +0.000 A 
ATOM      6  C   UNL     1      43.952   5.937  11.490  0.00  0.00    +0.000 A 
ATOM      7  C   UNL     1      44.314   7.253  11.797  0.00  0.00    +0.000 A 
BRANCH   5   8
ATOM      8  C   UNL     1      44.384   3.456  11.490  0.00  0.00    +0.000 C 
BRANCH   8   9
ATOM      9  N   UNL     1      45.192   2.962  10.402  0.00  0.00    +0.000 N 
ATOM     10  C   UNL     1      44.941   3.344   9.102  0.00  0.00    +0.000 C 
ATOM     11  O   UNL     1      44.043   4.121   8.786  0.00  0.00    +0.000 OA
ATOM     12  H   UNL     1      46.060   2.498  10.629  0.00  0.00    +0.000 HD
BRANCH  10  13
ATOM     13  C   UNL     1      45.850   2.780   8.067  0.00  0.00    +0.000 A 
ATOM     14  C   UNL     1      46.305   1.455   8.156  0.00  0.00    +0.000 A 
ATOM     15  C   UNL     1      47.170   0.946   7.187  0.00  0.00    +0.000 A 
ATOM     16  C   UNL     1      47.575   1.748   6.122  0.00  0.00    +0.000 A 
ATOM     17  C   UNL     1      47.107   3.057   6.014  0.00  0.00    +0.000 A 
ATOM     18  C   UNL     1      46.239   3.575   6.984  0.00  0.00    +0.000 A 
ENDBRANCH  10  13
ENDBRANCH   8   9
ENDBRANCH   5   8
ENDBRANCH   1   2
BRANCH   1  19
ATOM     19  N   UNL     1      47.292   9.157  12.532  0.00  0.00    +0.000 N 
ATOM     20  C   UNL     1      48.230   9.471  13.479  0.00  0.00    +0.000 C 
ATOM     21  O   UNL     1      47.928   9.527  14.668  0.00  0.00    +0.000 OA
ATOM     22  H   UNL     1      47.524   9.168  11.542  0.00  0.00    +0.000 HD
BRANCH  20  23
ATOM     23  C   UNL     1      49.610   9.724  13.030  0.00  0.00    +0.000 A 
ATOM     24  C   UNL     1      50.250  10.889  13.433  0.00  0.00    +0.000 A 
ATOM     25  S   UNL     1      51.830  11.064  12.815  0.00  0.00    +0.000 S 
ATOM     26  C   UNL     1      51.714   9.595  11.966  0.00  0.00    +0.000 A 
ATOM     27  N   UNL     1      52.738   9.164  11.183  0.00  0.00    +0.000 NA
ATOM     28  C   UNL     1      52.519   8.042  10.584  0.00  0.00    +0.000 A 
ATOM     29  N   UNL     1      51.373   7.302  10.714  0.00  0.00    +0.000 N 
ATOM     30  C   UNL     1      50.322   7.684  11.514  0.00  0.00    +0.000 A 
ATOM     31  O   UNL     1      49.324   6.981  11.633  0.00  0.00    +0.000 OA
ATOM     32  C   UNL     1      50.500   8.962  12.179  0.00  0.00    +0.000 A 
ATOM     33  H   UNL     1      51.271   6.423  10.229  0.00  0.00    +0.000 HD
ENDBRANCH  20  23
ENDBRANCH   1  19
BRANCH   1  35
ATOM     34  N   UNL     1      44.370  10.802  11.748  0.00  0.00    +0.000 NA
ATOM     35  C   UNL     1      45.018   9.980  12.252  0.00  0.00    +0.000 C 
ENDBRANCH   1  35
TORSDOF 7
ENDMDL
MODEL 8
REMARK VINA RESULT:    -6.533      2.988      3.663
REMARK INTER + INTRA:         -10.298
REMARK INTER:                  -9.341
REMARK INTRA:                  -0.957
REMARK UNBOUND:                -1.091
REMARK  Name = 
REMARK  7 active torsions:
REMARK  status: ('A' for Active; 'I' for Inactive)
REMARK    1  A    between atoms: C_2  and  C_3
REMARK    2  A    between atoms: C_3  and  N_4
REMARK    3  A    between atoms: C_3  and  C_17
REMARK    4  A    between atoms: C_5  and  C_7
REMARK    5  A    between atoms: C_20  and  C_21
REMARK    6  A    between atoms: C_21  and  N_22
REMARK    7  A    between atoms: C_23  and  C_25
REMARK                            x       y       z     vdW  Elec       q    Type
REMARK                         _______ _______ _______ _____ _____    ______ ____
ROOT
ATOM      1  C   UNL     1      48.203   9.764  13.327  0.00  0.00    +0.000 C 
ENDROOT
BRANCH   1   2
ATOM      2  C   UNL     1      47.249   8.755  12.687  0.00  0.00    +0.000 A 
ATOM      3  C   UNL     1      47.730   7.502  12.271  0.00  0.00    +0.000 A 
ATOM      4  C   UNL     1      46.877   6.566  11.670  0.00  0.00    +0.000 A 
ATOM      5  C   UNL     1      45.527   6.868  11.450  0.00  0.00    +0.000 A 
ATOM      6  C   UNL     1      45.041   8.109  11.875  0.00  0.00    +0.000 A 
ATOM      7  C   UNL     1      45.893   9.048  12.465  0.00  0.00    +0.000 A 
BRANCH   5   8
ATOM      8  C   UNL     1      44.606   5.891  10.764  0.00  0.00    +0.000 C 
BRANCH   8   9
ATOM      9  N   UNL     1      45.301   5.086   9.791  0.00  0.00    +0.000 N 
ATOM     10  C   UNL     1      44.839   3.834   9.445  0.00  0.00    +0.000 C 
ATOM     11  O   UNL     1      43.823   3.334   9.922  0.00  0.00    +0.000 OA
ATOM     12  H   UNL     1      46.008   5.531   9.224  0.00  0.00    +0.000 HD
BRANCH  10  13
ATOM     13  C   UNL     1      45.632   3.103   8.420  0.00  0.00    +0.000 A 
ATOM     14  C   UNL     1      46.136   3.770   7.292  0.00  0.00    +0.000 A 
ATOM     15  C   UNL     1      46.863   3.067   6.331  0.00  0.00    +0.000 A 
ATOM     16  C   UNL     1      47.100   1.704   6.494  0.00  0.00    +0.000 A 
ATOM     17  C   UNL     1      46.623   1.040   7.624  0.00  0.00    +0.000 A 
ATOM     18  C   UNL     1      45.891   1.740   8.592  0.00  0.00    +0.000 A 
ENDBRANCH  10  13
ENDBRANCH   8   9
ENDBRANCH   5   8
ENDBRANCH   1   2
BRANCH   1  19
ATOM     19  N   UNL     1      49.116   9.073  14.227  0.00  0.00    +0.000 N 
ATOM     20  C   UNL     1      49.397   9.567  15.473  0.00  0.00    +0.000 C 
ATOM     21  O   UNL     1      48.833  10.576  15.891  0.00  0.00    +0.000 OA
ATOM     22  H   UNL     1      49.623   8.276  13.854  0.00  0.00    +0.000 HD
BRANCH  20  23
ATOM     23  C   UNL     1      50.382   8.847  16.298  0.00  0.00    +0.000 A 
ATOM     24  C   UNL     1      51.716   8.843  15.909  0.00  0.00    +0.000 A 
ATOM     25  S   UNL     1      52.737   7.947  16.940  0.00  0.00    +0.000 S 
ATOM     26  C   UNL     1      51.431   7.512  17.938  0.00  0.00    +0.000 A 
ATOM     27  N   UNL     1      51.619   6.698  19.011  0.00  0.00    +0.000 NA
ATOM     28  C   UNL     1      50.546   6.434  19.678  0.00  0.00    +0.000 A 
ATOM     29  N   UNL     1      49.304   6.929  19.379  0.00  0.00    +0.000 N 
ATOM     30  C   UNL     1      49.070   7.775  18.321  0.00  0.00    +0.000 A 
ATOM     31  O   UNL     1      47.950   8.226  18.102  0.00  0.00    +0.000 OA
ATOM     32  C   UNL     1      50.238   8.071  17.511  0.00  0.00    +0.000 A 
ATOM     33  H   UNL     1      48.506   6.696  19.952  0.00  0.00    +0.000 HD
ENDBRANCH  20  23
ENDBRANCH   1  19
BRANCH   1  35
ATOM     34  N   UNL     1      49.549  11.207  11.557  0.00  0.00    +0.000 NA
ATOM     35  C   UNL     1      48.941  10.572  12.316  0.00  0.00    +0.000 C 
ENDBRANCH   1  35
TORSDOF 7
ENDMDL
MODEL 9
REMARK VINA RESULT:    -6.403      3.008      8.902
REMARK INTER + INTRA:         -10.115
REMARK INTER:                 -10.020
REMARK INTRA:                  -0.095
REMARK UNBOUND:                -1.091
REMARK  Name = 
REMARK  7 active torsions:
REMARK  status: ('A' for Active; 'I' for Inactive)
REMARK    1  A    between atoms: C_2  and  C_3
REMARK    2  A    between atoms: C_3  and  N_4
REMARK    3  A    between atoms: C_3  and  C_17
REMARK    4  A    between atoms: C_5  and  C_7
REMARK    5  A    between atoms: C_20  and  C_21
REMARK    6  A    between atoms: C_21  and  N_22
REMARK    7  A    between atoms: C_23  and  C_25
REMARK                            x       y       z     vdW  Elec       q    Type
REMARK                         _______ _______ _______ _____ _____    ______ ____
ROOT
ATOM      1  C   UNL     1      47.111   7.950  12.097  0.00  0.00    +0.000 C 
ENDROOT
BRANCH   1   2
ATOM      2  C   UNL     1      47.701   7.698  13.485  0.00  0.00    +0.000 A 
ATOM      3  C   UNL     1      47.969   8.781  14.340  0.00  0.00    +0.000 A 
ATOM      4  C   UNL     1      48.522   8.576  15.612  0.00  0.00    +0.000 A 
ATOM      5  C   UNL     1      48.842   7.285  16.051  0.00  0.00    +0.000 A 
ATOM      6  C   UNL     1      48.565   6.203  15.209  0.00  0.00    +0.000 A 
ATOM      7  C   UNL     1      48.023   6.407  13.936  0.00  0.00    +0.000 A 
BRANCH   5   8
ATOM      8  C   UNL     1      49.480   7.051  17.397  0.00  0.00    +0.000 C 
BRANCH   8   9
ATOM      9  N   UNL     1      50.339   5.893  17.394  0.00  0.00    +0.000 N 
ATOM     10  C   UNL     1      49.969   4.733  18.041  0.00  0.00    +0.000 C 
ATOM     11  O   UNL     1      48.904   4.603  18.640  0.00  0.00    +0.000 OA
ATOM     12  H   UNL     1      51.114   5.879  16.748  0.00  0.00    +0.000 HD
BRANCH  10  13
ATOM     13  C   UNL     1      50.931   3.601  17.957  0.00  0.00    +0.000 A 
ATOM     14  C   UNL     1      50.571   2.397  17.333  0.00  0.00    +0.000 A 
ATOM     15  C   UNL     1      51.478   1.339  17.277  0.00  0.00    +0.000 A 
ATOM     16  C   UNL     1      52.748   1.479  17.831  0.00  0.00    +0.000 A 
ATOM     17  C   UNL     1      53.122   2.681  18.432  0.00  0.00    +0.000 A 
ATOM     18  C   UNL     1      52.215   3.747  18.492  0.00  0.00    +0.000 A 
ENDBRANCH  10  13
ENDBRANCH   8   9
ENDBRANCH   5   8
ENDBRANCH   1   2
BRANCH   1  19
ATOM     19  N   UNL     1      46.479   6.733  11.606  0.00  0.00    +0.000 N 
ATOM     20  C   UNL     1      45.269   6.313  12.092  0.00  0.00    +0.000 C 
ATOM     21  O   UNL     1      44.652   6.990  12.910  0.00  0.00    +0.000 OA
ATOM     22  H   UNL     1      47.021   6.148  10.976  0.00  0.00    +0.000 HD
BRANCH  20  23
ATOM     23  C   UNL     1      44.728   5.037  11.594  0.00  0.00    +0.000 A 
ATOM     24  C   UNL     1      43.913   4.278  12.425  0.00  0.00    +0.000 A 
ATOM     25  S   UNL     1      43.384   2.814  11.729  0.00  0.00    +0.000 S 
ATOM     26  C   UNL     1      44.241   3.127  10.294  0.00  0.00    +0.000 A 
ATOM     27  N   UNL     1      44.240   2.227   9.275  0.00  0.00    +0.000 NA
ATOM     28  C   UNL     1      44.939   2.580   8.249  0.00  0.00    +0.000 A 
ATOM     29  N   UNL     1      45.622   3.763   8.142  0.00  0.00    +0.000 N 
ATOM     30  C   UNL     1      45.631   4.714   9.135  0.00  0.00    +0.000 A 
ATOM     31  O   UNL     1      46.226   5.777   8.994  0.00  0.00    +0.000 OA
ATOM     32  C   UNL     1      44.893   4.349  10.331  0.00  0.00    +0.000 A 
ATOM     33  H   UNL     1      46.138   3.986   7.304  0.00  0.00    +0.000 HD
ENDBRANCH  20  23
ENDBRANCH   1  19
BRANCH   1  35
ATOM     34  N   UNL     1      45.398   9.971  12.079  0.00  0.00    +0.000 NA
ATOM     35  C   UNL     1      46.166   9.100  12.079  0.00  0.00    +0.000 C 
ENDBRANCH   1  35
TORSDOF 7
ENDMDL
