MODEL 1
REMARK VINA RESULT:    -7.994      0.000      0.000
REMARK INTER + INTRA:          -9.574
REMARK INTER:                  -8.929
REMARK INTRA:                  -0.645
REMARK UNBOUND:                -0.645
REMARK  Name = 
REMARK  2 active torsions:
REMARK  status: ('A' for Active; 'I' for Inactive)
REMARK    1  A    between atoms: N_5  and  C_6
REMARK    2  A    between atoms: C_6  and  C_7
REMARK                            x       y       z     vdW  Elec       q    Type
REMARK                         _______ _______ _______ _____ _____    ______ ____
ROOT
ATOM      1  C   UNL     1      45.373   4.483  12.020  0.00  0.00    +0.000 A 
ATOM      2  C   UNL     1      45.847   3.527  12.916  0.00  0.00    +0.000 A 
ATOM      3  C   UNL     1      46.978   3.815  13.662  0.00  0.00    +0.000 A 
ATOM      4  N   UNL     1      47.667   4.976  13.584  0.00  0.00    +0.000 NA
ATOM      5  C   UNL     1      47.181   5.936  12.774  0.00  0.00    +0.000 A 
ATOM      6  N   UNL     1      47.874   7.128  12.586  0.00  0.00    +0.000 N 
ATOM      7  C   UNL     1      49.332   7.097  12.648  0.00  0.00    +0.000 C 
ATOM      8  C   UNL     1      49.878   7.655  13.958  0.00  0.00    +0.000 C 
ATOM      9  C   UNL     1      49.239   8.997  14.303  0.00  0.00    +0.000 C 
ATOM     10  C   UNL     1      47.722   8.862  14.330  0.00  0.00    +0.000 C 
ATOM     11  C   UNL     1      47.195   8.357  12.990  0.00  0.00    +0.000 C 
ATOM     12  C   UNL     1      46.029   5.722  12.017  0.00  0.00    +0.000 A 
ENDROOT
BRANCH   1  13
ATOM     13  C   UNL     1      44.269   4.168  11.015  0.00  0.00    +0.000 C 
ATOM     14  C   UNL     1      42.814   4.246  11.486  0.00  0.00    +0.000 C 
ATOM     15  C   UNL     1      43.377   5.343  10.651  0.00  0.00    +0.000 C 
BRANCH  13  20
ATOM     16  C   UNL     1      46.921   2.389   6.852  0.00  0.00    +0.000 A 
ATOM     17  C   UNL     1      46.481   3.680   7.101  0.00  0.00    +0.000 A 
ATOM     18  C   UNL     1      45.709   3.938   8.237  0.00  0.00    +0.000 A 
ATOM     19  C   UNL     1      45.385   2.894   9.089  0.00  0.00    +0.000 A 
ATOM     20  N   UNL     1      44.528   2.999  10.179  0.00  0.00    +0.000 N 
ATOM     21  N   UNL     1      45.819   1.634   8.853  0.00  0.00    +0.000 NA
ATOM     22  C   UNL     1      46.574   1.406   7.759  0.00  0.00    +0.000 A 
ATOM     23  H   UNL     1      44.529   2.092  10.638  0.00  0.00    +0.000 HD
ENDBRANCH  13  20
ENDBRANCH   1  13
TORSDOF 2
ENDMDL
MODEL 2
REMARK VINA RESULT:    -7.344      2.221      3.272
REMARK INTER + INTRA:          -8.848
REMARK INTER:                  -8.427
REMARK INTRA:                  -0.421
REMARK UNBOUND:                -0.645
REMARK  Name = 
REMARK  2 active torsions:
REMARK  status: ('A' for Active; 'I' for Inactive)
REMARK    1  A    between atoms: N_5  and  C_6
REMARK    2  A    between atoms: C_6  and  C_7
REMARK                            x       y       z     vdW  Elec       q    Type
REMARK                         _______ _______ _______ _____ _____    ______ ____
ROOT
ATOM      1  C   UNL     1      45.949   5.226  12.764  0.00  0.00    +0.000 A 
ATOM      2  C   UNL     1      46.960   6.017  12.221  0.00  0.00    +0.000 A 
ATOM      3  C   UNL     1      48.088   6.273  12.984  0.00  0.00    +0.000 A 
ATOM      4  N   UNL     1      48.282   5.804  14.238  0.00  0.00    +0.000 NA
ATOM      5  C   UNL     1      47.345   4.982  14.748  0.00  0.00    +0.000 A 
ATOM      6  N   UNL     1      47.440   4.519  16.057  0.00  0.00    +0.000 N 
ATOM      7  C   UNL     1      48.065   5.385  17.052  0.00  0.00    +0.000 C 
ATOM      8  C   UNL     1      49.483   4.948  17.405  0.00  0.00    +0.000 C 
ATOM      9  C   UNL     1      49.550   3.455  17.706  0.00  0.00    +0.000 C 
ATOM     10  C   UNL     1      48.985   2.660  16.536  0.00  0.00    +0.000 C 
ATOM     11  C   UNL     1      47.546   3.074  16.240  0.00  0.00    +0.000 C 
ATOM     12  C   UNL     1      46.200   4.659  14.020  0.00  0.00    +0.000 A 
ENDROOT
BRANCH   1  13
ATOM     13  C   UNL     1      44.594   5.070  12.080  0.00  0.00    +0.000 C 
ATOM     14  C   UNL     1      43.329   5.330  12.904  0.00  0.00    +0.000 C 
ATOM     15  C   UNL     1      43.798   6.356  11.931  0.00  0.00    +0.000 C 
BRANCH  13  20
ATOM     16  C   UNL     1      46.097   2.897   7.547  0.00  0.00    +0.000 A 
ATOM     17  C   UNL     1      45.958   4.244   7.848  0.00  0.00    +0.000 A 
ATOM     18  C   UNL     1      45.459   4.623   9.097  0.00  0.00    +0.000 A 
ATOM     19  C   UNL     1      45.096   3.644  10.010  0.00  0.00    +0.000 A 
ATOM     20  N   UNL     1      44.478   3.889  11.230  0.00  0.00    +0.000 N 
ATOM     21  N   UNL     1      45.238   2.329   9.721  0.00  0.00    +0.000 NA
ATOM     22  C   UNL     1      45.733   1.982   8.515  0.00  0.00    +0.000 A 
ATOM     23  H   UNL     1      44.387   2.990  11.696  0.00  0.00    +0.000 HD
ENDBRANCH  13  20
ENDBRANCH   1  13
TORSDOF 2
ENDMDL
MODEL 3
REMARK VINA RESULT:    -6.051      2.467      7.426
REMARK INTER + INTRA:          -7.404
REMARK INTER:                  -6.801
REMARK INTRA:                  -0.603
REMARK UNBOUND:                -0.645
REMARK  Name = 
REMARK  2 active torsions:
REMARK  status: ('A' for Active; 'I' for Inactive)
REMARK    1  A    between atoms: N_5  and  C_6
REMARK    2  A    between atoms: C_6  and  C_7
REMARK                            x       y       z     vdW  Elec       q    Type
REMARK                         _______ _______ _______ _____ _____    ______ ____
ROOT
ATOM      1  C   UNL     1      47.825   7.794  12.546  0.00  0.00    +0.000 A 
ATOM      2  C   UNL     1      46.923   8.856  12.516  0.00  0.00    +0.000 A 
ATOM      3  C   UNL     1      45.616   8.610  12.127  0.00  0.00    +0.000 A 
ATOM      4  N   UNL     1      45.145   7.393  11.769  0.00  0.00    +0.000 NA
ATOM      5  C   UNL     1      45.986   6.346  11.860  0.00  0.00    +0.000 A 
ATOM      6  N   UNL     1      45.595   5.079  11.440  0.00  0.00    +0.000 N 
ATOM      7  C   UNL     1      44.654   4.979  10.328  0.00  0.00    +0.000 C 
ATOM      8  C   UNL     1      43.239   4.636  10.783  0.00  0.00    +0.000 C 
ATOM      9  C   UNL     1      43.233   3.456  11.749  0.00  0.00    +0.000 C 
ATOM     10  C   UNL     1      44.156   3.741  12.928  0.00  0.00    +0.000 C 
ATOM     11  C   UNL     1      45.578   4.025  12.451  0.00  0.00    +0.000 C 
ATOM     12  C   UNL     1      47.306   6.521  12.274  0.00  0.00    +0.000 A 
ENDROOT
BRANCH   1  13
ATOM     13  C   UNL     1      49.320   8.013  12.757  0.00  0.00    +0.000 C 
ATOM     14  C   UNL     1      50.235   8.011  11.528  0.00  0.00    +0.000 C 
ATOM     15  C   UNL     1      49.869   9.303  12.172  0.00  0.00    +0.000 C 
BRANCH  13  20
ATOM     16  C   UNL     1      48.958   7.134  17.917  0.00  0.00    +0.000 A 
ATOM     17  C   UNL     1      48.613   8.279  17.215  0.00  0.00    +0.000 A 
ATOM     18  C   UNL     1      48.868   8.350  15.843  0.00  0.00    +0.000 A 
ATOM     19  C   UNL     1      49.474   7.277  15.208  0.00  0.00    +0.000 A 
ATOM     20  N   UNL     1      49.887   7.273  13.881  0.00  0.00    +0.000 N 
ATOM     21  N   UNL     1      49.806   6.155  15.889  0.00  0.00    +0.000 NA
ATOM     22  C   UNL     1      49.541   6.100  17.210  0.00  0.00    +0.000 A 
ATOM     23  H   UNL     1      50.243   6.340  13.690  0.00  0.00    +0.000 HD
ENDBRANCH  13  20
ENDBRANCH   1  13
TORSDOF 2
ENDMDL
MODEL 4
REMARK VINA RESULT:    -6.016      1.848      2.411
REMARK INTER + INTRA:          -7.364
REMARK INTER:                  -7.627
REMARK INTRA:                   0.263
REMARK UNBOUND:                -0.645
REMARK  Name = 
REMARK  2 active torsions:
REMARK  status: ('A' for Active; 'I' for Inactive)
REMARK    1  A    between atoms: N_5  and  C_6
REMARK    2  A    between atoms: C_6  and  C_7
REMARK                            x       y       z     vdW  Elec       q    Type
REMARK                         _______ _______ _______ _____ _____    ______ ____
ROOT
ATOM      1  C   UNL     1      46.101   6.198  12.630  0.00  0.00    +0.000 A 
ATOM      2  C   UNL     1      46.071   4.932  13.212  0.00  0.00    +0.000 A 
ATOM      3  C   UNL     1      46.963   4.646  14.232  0.00  0.00    +0.000 A 
ATOM      4  N   UNL     1      47.877   5.520  14.712  0.00  0.00    +0.000 NA
ATOM      5  C   UNL     1      47.872   6.768  14.207  0.00  0.00    +0.000 A 
ATOM      6  N   UNL     1      48.828   7.699  14.599  0.00  0.00    +0.000 N 
ATOM      7  C   UNL     1      50.160   7.215  14.951  0.00  0.00    +0.000 C 
ATOM      8  C   UNL     1      50.399   7.192  16.458  0.00  0.00    +0.000 C 
ATOM      9  C   UNL     1      49.991   8.510  17.108  0.00  0.00    +0.000 C 
ATOM     10  C   UNL     1      48.543   8.835  16.767  0.00  0.00    +0.000 C 
ATOM     11  C   UNL     1      48.342   8.909  15.256  0.00  0.00    +0.000 C 
ATOM     12  C   UNL     1      46.979   7.131  13.199  0.00  0.00    +0.000 A 
ENDROOT
BRANCH   1  13
ATOM     13  C   UNL     1      45.305   6.525  11.370  0.00  0.00    +0.000 C 
ATOM     14  C   UNL     1      43.775   6.511  11.453  0.00  0.00    +0.000 C 
ATOM     15  C   UNL     1      44.500   7.812  11.435  0.00  0.00    +0.000 C 
BRANCH  13  20
ATOM     16  C   UNL     1      44.861   2.345   8.231  0.00  0.00    +0.000 A 
ATOM     17  C   UNL     1      44.611   2.426   9.593  0.00  0.00    +0.000 A 
ATOM     18  C   UNL     1      44.873   3.618  10.272  0.00  0.00    +0.000 A 
ATOM     19  C   UNL     1      45.393   4.698   9.574  0.00  0.00    +0.000 A 
ATOM     20  N   UNL     1      45.807   5.891  10.155  0.00  0.00    +0.000 N 
ATOM     21  N   UNL     1      45.631   4.624   8.243  0.00  0.00    +0.000 NA
ATOM     22  C   UNL     1      45.360   3.469   7.602  0.00  0.00    +0.000 A 
ATOM     23  H   UNL     1      46.087   6.503   9.393  0.00  0.00    +0.000 HD
ENDBRANCH  13  20
ENDBRANCH   1  13
TORSDOF 2
ENDMDL
MODEL 5
REMARK VINA RESULT:    -5.995      2.641      4.417
REMARK INTER + INTRA:          -7.342
REMARK INTER:                  -6.928
REMARK INTRA:                  -0.413
REMARK UNBOUND:                -0.645
REMARK  Name = 
REMARK  2 active torsions:
REMARK  status: ('A' for Active; 'I' for Inactive)
REMARK    1  A    between atoms: N_5  and  C_6
REMARK    2  A    between atoms: C_6  and  C_7
REMARK                            x       y       z     vdW  Elec       q    Type
REMARK                         _______ _______ _______ _____ _____    ______ ____
ROOT
ATOM      1  C   UNL     1      47.355   6.765  13.471  0.00  0.00    +0.000 A 
ATOM      2  C   UNL     1      48.592   7.403  13.379  0.00  0.00    +0.000 A 
ATOM      3  C   UNL     1      49.554   7.132  14.338  0.00  0.00    +0.000 A 
ATOM      4  N   UNL     1      49.379   6.279  15.373  0.00  0.00    +0.000 NA
ATOM      5  C   UNL     1      48.215   5.604  15.435  0.00  0.00    +0.000 A 
ATOM      6  N   UNL     1      47.934   4.766  16.509  0.00  0.00    +0.000 N 
ATOM      7  C   UNL     1      48.480   5.113  17.818  0.00  0.00    +0.000 C 
ATOM      8  C   UNL     1      49.679   4.253  18.203  0.00  0.00    +0.000 C 
ATOM      9  C   UNL     1      49.395   2.770  17.988  0.00  0.00    +0.000 C 
ATOM     10  C   UNL     1      48.957   2.524  16.550  0.00  0.00    +0.000 C 
ATOM     11  C   UNL     1      47.722   3.353  16.207  0.00  0.00    +0.000 C 
ATOM     12  C   UNL     1      47.216   5.808  14.484  0.00  0.00    +0.000 A 
ENDROOT
BRANCH   1  13
ATOM     13  C   UNL     1      46.177   7.163  12.586  0.00  0.00    +0.000 C 
ATOM     14  C   UNL     1      45.479   8.498  12.863  0.00  0.00    +0.000 C 
ATOM     15  C   UNL     1      46.414   8.380  11.709  0.00  0.00    +0.000 C 
BRANCH  13  20
ATOM     16  C   UNL     1      44.841   3.414   9.167  0.00  0.00    +0.000 A 
ATOM     17  C   UNL     1      45.471   4.623   8.912  0.00  0.00    +0.000 A 
ATOM     18  C   UNL     1      45.664   5.533   9.955  0.00  0.00    +0.000 A 
ATOM     19  C   UNL     1      45.210   5.216  11.226  0.00  0.00    +0.000 A 
ATOM     20  N   UNL     1      45.234   6.082  12.314  0.00  0.00    +0.000 N 
ATOM     21  N   UNL     1      44.602   4.034  11.480  0.00  0.00    +0.000 NA
ATOM     22  C   UNL     1      44.434   3.163  10.463  0.00  0.00    +0.000 A 
ATOM     23  H   UNL     1      44.889   5.555  13.112  0.00  0.00    +0.000 HD
ENDBRANCH  13  20
ENDBRANCH   1  13
TORSDOF 2
ENDMDL
MODEL 6
REMARK VINA RESULT:    -5.924      2.792      6.997
REMARK INTER + INTRA:          -7.262
REMARK INTER:                  -7.284
REMARK INTRA:                   0.022
REMARK UNBOUND:                -0.645
REMARK  Name = 
REMARK  2 active torsions:
REMARK  status: ('A' for Active; 'I' for Inactive)
REMARK    1  A    between atoms: N_5  and  C_6
REMARK    2  A    between atoms: C_6  and  C_7
REMARK                            x       y       z     vdW  Elec       q    Type
REMARK                         _______ _______ _______ _____ _____    ______ ____
ROOT
ATOM      1  C   UNL     1      46.791   7.245  12.584  0.00  0.00    +0.000 A 
ATOM      2  C   UNL     1      47.150   6.380  13.615  0.00  0.00    +0.000 A 
ATOM      3  C   UNL     1      46.709   5.067  13.568  0.00  0.00    +0.000 A 
ATOM      4  N   UNL     1      45.943   4.556  12.577  0.00  0.00    +0.000 NA
ATOM      5  C   UNL     1      45.646   5.362  11.540  0.00  0.00    +0.000 A 
ATOM      6  N   UNL     1      44.804   4.930  10.521  0.00  0.00    +0.000 N 
ATOM      7  C   UNL     1      43.738   3.991  10.857  0.00  0.00    +0.000 C 
ATOM      8  C   UNL     1      44.051   2.563  10.421  0.00  0.00    +0.000 C 
ATOM      9  C   UNL     1      44.530   2.514   8.974  0.00  0.00    +0.000 C 
ATOM     10  C   UNL     1      45.725   3.440   8.787  0.00  0.00    +0.000 C 
ATOM     11  C   UNL     1      45.370   4.873   9.176  0.00  0.00    +0.000 C 
ATOM     12  C   UNL     1      46.085   6.685  11.511  0.00  0.00    +0.000 A 
ENDROOT
BRANCH   1  13
ATOM     13  C   UNL     1      47.054   8.746  12.663  0.00  0.00    +0.000 C 
ATOM     14  C   UNL     1      48.206   9.236  13.546  0.00  0.00    +0.000 C 
ATOM     15  C   UNL     1      48.376   9.199  12.067  0.00  0.00    +0.000 C 
BRANCH  13  20
ATOM     16  C   UNL     1      43.970  12.255  10.276  0.00  0.00    +0.000 A 
ATOM     17  C   UNL     1      45.328  12.043  10.094  0.00  0.00    +0.000 A 
ATOM     18  C   UNL     1      45.993  11.110  10.894  0.00  0.00    +0.000 A 
ATOM     19  C   UNL     1      45.285  10.423  11.868  0.00  0.00    +0.000 A 
ATOM     20  N   UNL     1      45.853   9.564  12.802  0.00  0.00    +0.000 N 
ATOM     21  N   UNL     1      43.958  10.623  12.043  0.00  0.00    +0.000 NA
ATOM     22  C   UNL     1      43.330  11.518  11.253  0.00  0.00    +0.000 A 
ATOM     23  H   UNL     1      45.085   9.173  13.342  0.00  0.00    +0.000 HD
ENDBRANCH  13  20
ENDBRANCH   1  13
TORSDOF 2
ENDMDL
MODEL 7
REMARK VINA RESULT:    -5.522      3.599      7.727
REMARK INTER + INTRA:          -6.813
REMARK INTER:                  -6.765
REMARK INTRA:                  -0.048
REMARK UNBOUND:                -0.645
REMARK  Name = 
REMARK  2 active torsions:
REMARK  status: ('A' for Active; 'I' for Inactive)
REMARK    1  A    between atoms: N_5  and  C_6
REMARK    2  A    between atoms: C_6  and  C_7
REMARK                            x       y       z     vdW  Elec       q    Type
REMARK                         _______ _______ _______ _____ _____    ______ ____
ROOT
ATOM      1  C   UNL     1      47.637   5.174  15.356  0.00  0.00    +0.000 A 
ATOM      2  C   UNL     1      48.313   6.194  14.689  0.00  0.00    +0.000 A 
ATOM      3  C   UNL     1      47.934   6.510  13.395  0.00  0.00    +0.000 A 
ATOM      4  N   UNL     1      46.939   5.890  12.720  0.00  0.00    +0.000 NA
ATOM      5  C   UNL     1      46.232   4.950  13.376  0.00  0.00    +0.000 A 
ATOM      6  N   UNL     1      45.242   4.220  12.726  0.00  0.00    +0.000 N 
ATOM      7  C   UNL     1      45.414   3.937  11.304  0.00  0.00    +0.000 C 
ATOM      8  C   UNL     1      44.539   4.819  10.418  0.00  0.00    +0.000 C 
ATOM      9  C   UNL     1      43.095   4.843  10.907  0.00  0.00    +0.000 C 
ATOM     10  C   UNL     1      43.045   5.277  12.367  0.00  0.00    +0.000 C 
ATOM     11  C   UNL     1      43.882   4.346  13.241  0.00  0.00    +0.000 C 
ATOM     12  C   UNL     1      46.542   4.606  14.691  0.00  0.00    +0.000 A 
ENDROOT
BRANCH   1  13
ATOM     13  C   UNL     1      48.125   4.625  16.694  0.00  0.00    +0.000 C 
ATOM     14  C   UNL     1      47.101   4.424  17.814  0.00  0.00    +0.000 C 
ATOM     15  C   UNL     1      47.599   3.246  17.052  0.00  0.00    +0.000 C 
BRANCH  13  20
ATOM     16  C   UNL     1      53.157   3.662  17.827  0.00  0.00    +0.000 A 
ATOM     17  C   UNL     1      52.082   2.787  17.881  0.00  0.00    +0.000 A 
ATOM     18  C   UNL     1      50.794   3.260  17.621  0.00  0.00    +0.000 A 
ATOM     19  C   UNL     1      50.609   4.603  17.328  0.00  0.00    +0.000 A 
ATOM     20  N   UNL     1      49.372   5.216  17.171  0.00  0.00    +0.000 N 
ATOM     21  N   UNL     1      51.657   5.458  17.268  0.00  0.00    +0.000 NA
ATOM     22  C   UNL     1      52.895   4.981  17.509  0.00  0.00    +0.000 A 
ATOM     23  H   UNL     1      49.557   6.182  16.912  0.00  0.00    +0.000 HD
ENDBRANCH  13  20
ENDBRANCH   1  13
TORSDOF 2
ENDMDL
MODEL 8
REMARK VINA RESULT:    -5.453      2.465      6.997
REMARK INTER + INTRA:          -6.736
REMARK INTER:                  -6.080
REMARK INTRA:                  -0.656
REMARK UNBOUND:                -0.645
REMARK  Name = 
REMARK  2 active torsions:
REMARK  status: ('A' for Active; 'I' for Inactive)
REMARK    1  A    between atoms: N_5  and  C_6
REMARK    2  A    between atoms: C_6  and  C_7
REMARK                            x       y       z     vdW  Elec       q    Type
REMARK                         _______ _______ _______ _____ _____    ______ ____
ROOT
ATOM      1  C   UNL     1      47.339   7.927  13.507  0.00  0.00    +0.000 A 
ATOM      2  C   UNL     1      46.519   8.976  13.093  0.00  0.00    +0.000 A 
ATOM      3  C   UNL     1      45.441   8.695  12.270  0.00  0.00    +0.000 A 
ATOM      4  N   UNL     1      45.121   7.456  11.832  0.00  0.00    +0.000 NA
ATOM      5  C   UNL     1      45.862   6.425  12.278  0.00  0.00    +0.000 A 
ATOM      6  N   UNL     1      45.638   5.133  11.815  0.00  0.00    +0.000 N 
ATOM      7  C   UNL     1      45.165   4.963  10.444  0.00  0.00    +0.000 C 
ATOM      8  C   UNL     1      43.678   4.629  10.372  0.00  0.00    +0.000 C 
ATOM      9  C   UNL     1      43.311   3.503  11.332  0.00  0.00    +0.000 C 
ATOM     10  C   UNL     1      43.745   3.861  12.748  0.00  0.00    +0.000 C 
ATOM     11  C   UNL     1      45.246   4.134  12.806  0.00  0.00    +0.000 C 
ATOM     12  C   UNL     1      46.943   6.636  13.134  0.00  0.00    +0.000 A 
ENDROOT
BRANCH   1  13
ATOM     13  C   UNL     1      48.658   8.174  14.234  0.00  0.00    +0.000 C 
ATOM     14  C   UNL     1      48.648   8.207  15.765  0.00  0.00    +0.000 C 
ATOM     15  C   UNL     1      49.166   7.003  15.057  0.00  0.00    +0.000 C 
BRANCH  13  20
ATOM     16  C   UNL     1      51.853   9.421  10.263  0.00  0.00    +0.000 A 
ATOM     17  C   UNL     1      51.630   8.173  10.825  0.00  0.00    +0.000 A 
ATOM     18  C   UNL     1      50.799   8.059  11.943  0.00  0.00    +0.000 A 
ATOM     19  C   UNL     1      50.222   9.200  12.480  0.00  0.00    +0.000 A 
ATOM     20  N   UNL     1      49.478   9.234  13.654  0.00  0.00    +0.000 N 
ATOM     21  N   UNL     1      50.432  10.419  11.929  0.00  0.00    +0.000 NA
ATOM     22  C   UNL     1      51.227  10.507  10.843  0.00  0.00    +0.000 A 
ATOM     23  H   UNL     1      49.146  10.189  13.760  0.00  0.00    +0.000 HD
ENDBRANCH  13  20
ENDBRANCH   1  13
TORSDOF 2
ENDMDL
MODEL 9
REMARK VINA RESULT:    -5.333      2.852      8.072
REMARK INTER + INTRA:          -6.602
REMARK INTER:                  -6.148
REMARK INTRA:                  -0.454
REMARK UNBOUND:                -0.645
REMARK  Name = 
REMARK  2 active torsions:
REMARK  status: ('A' for Active; 'I' for Inactive)
REMARK    1  A    between atoms: N_5  and  C_6
REMARK    2  A    between atoms: C_6  and  C_7
REMARK                            x       y       z     vdW  Elec       q    Type
REMARK                         _______ _______ _______ _____ _____    ______ ____
ROOT
ATOM      1  C   UNL     1      48.021   6.387  14.399  0.00  0.00    +0.000 A 
ATOM      2  C   UNL     1      47.919   5.208  15.136  0.00  0.00    +0.000 A 
ATOM      3  C   UNL     1      46.880   4.335  14.858  0.00  0.00    +0.000 A 
ATOM      4  N   UNL     1      45.942   4.546  13.907  0.00  0.00    +0.000 NA
ATOM      5  C   UNL     1      46.067   5.646  13.141  0.00  0.00    +0.000 A 
ATOM      6  N   UNL     1      45.101   5.967  12.193  0.00  0.00    +0.000 N 
ATOM      7  C   UNL     1      43.715   5.598  12.466  0.00  0.00    +0.000 C 
ATOM      8  C   UNL     1      43.263   4.377  11.671  0.00  0.00    +0.000 C 
ATOM      9  C   UNL     1      43.624   4.506  10.195  0.00  0.00    +0.000 C 
ATOM     10  C   UNL     1      45.118   4.763  10.043  0.00  0.00    +0.000 C 
ATOM     11  C   UNL     1      45.535   6.021  10.799  0.00  0.00    +0.000 C 
ATOM     12  C   UNL     1      47.107   6.551  13.348  0.00  0.00    +0.000 A 
ENDROOT
BRANCH   1  13
ATOM     13  C   UNL     1      49.000   7.493  14.778  0.00  0.00    +0.000 C 
ATOM     14  C   UNL     1      50.110   7.853  13.786  0.00  0.00    +0.000 C 
ATOM     15  C   UNL     1      48.923   8.743  13.919  0.00  0.00    +0.000 C 
BRANCH  13  20
ATOM     16  C   UNL     1      47.966   8.883  19.731  0.00  0.00    +0.000 A 
ATOM     17  C   UNL     1      47.589   9.527  18.562  0.00  0.00    +0.000 A 
ATOM     18  C   UNL     1      48.040   9.043  17.332  0.00  0.00    +0.000 A 
ATOM     19  C   UNL     1      48.869   7.932  17.301  0.00  0.00    +0.000 A 
ATOM     20  N   UNL     1      49.478   7.430  16.156  0.00  0.00    +0.000 N 
ATOM     21  N   UNL     1      49.233   7.297  18.440  0.00  0.00    +0.000 NA
ATOM     22  C   UNL     1      48.779   7.771  19.617  0.00  0.00    +0.000 A 
ATOM     23  H   UNL     1      49.976   6.589  16.438  0.00  0.00    +0.000 HD
ENDBRANCH  13  20
ENDBRANCH   1  13
TORSDOF 2
ENDMDL
