MODEL 1
REMARK VINA RESULT:    -8.296      0.000      0.000
REMARK INTER + INTRA:         -11.653
REMARK INTER:                 -10.720
REMARK INTRA:                  -0.932
REMARK UNBOUND:                -0.932
REMARK  Name = 
REMARK  6 active torsions:
REMARK  status: ('A' for Active; 'I' for Inactive)
REMARK    1  A    between atoms: C_1  and  C_2
REMARK    2  A    between atoms: N_4  and  C_5
REMARK    3  A    between atoms: C_9  and  C_10
REMARK    4  A    between atoms: C_10  and  C_11
REMARK    5  A    between atoms: C_11  and  N_12
REMARK    6  A    between atoms: C_16  and  C_17
REMARK                            x       y       z     vdW  Elec       q    Type
REMARK                         _______ _______ _______ _____ _____    ______ ____
ROOT
ATOM      1  C   UNL     1      43.277   4.788  12.449  0.00  0.00    +0.000 C 
ENDROOT
BRANCH   1   6
ATOM      2  C   UNL     1      46.576   6.537  13.349  0.00  0.00    +0.000 A 
ATOM      3  C   UNL     1      47.383   5.411  13.573  0.00  0.00    +0.000 A 
ATOM      4  C   UNL     1      46.897   4.110  13.409  0.00  0.00    +0.000 A 
ATOM      5  C   UNL     1      45.575   3.899  13.026  0.00  0.00    +0.000 A 
ATOM      6  C   UNL     1      44.737   4.990  12.789  0.00  0.00    +0.000 A 
ATOM      7  C   UNL     1      45.254   6.291  12.942  0.00  0.00    +0.000 A 
BRANCH   2  11
ATOM      8  C   UNL     1      49.738   7.909  11.805  0.00  0.00    +0.000 C 
ATOM      9  C   UNL     1      49.295   8.827  12.948  0.00  0.00    +0.000 C 
ATOM     10  C   UNL     1      48.439   8.077  14.004  0.00  0.00    +0.000 C 
ATOM     11  N   UNL     1      47.077   7.815  13.518  0.00  0.00    +0.000 N 
ATOM     12  C   UNL     1      46.378   8.980  12.951  0.00  0.00    +0.000 C 
ATOM     13  C   UNL     1      47.276   9.721  11.932  0.00  0.00    +0.000 C 
ATOM     14  N   UNL     1      48.630  10.050  12.429  0.00  0.00    +0.000 NA
ATOM     15  H   UNL     1      48.517  10.690  13.216  0.00  0.00    +0.000 HD
ENDBRANCH   2  11
ENDBRANCH   1   6
BRANCH   1  16
ATOM     16  C   UNL     1      43.115   4.216  11.036  0.00  0.00    +0.000 C 
BRANCH  16  17
ATOM     17  N   UNL     1      43.939   4.949  10.064  0.00  0.00    +0.000 N 
ATOM     18  C   UNL     1      44.784   4.100   9.322  0.00  0.00    +0.000 A 
ATOM     19  C   UNL     1      45.629   4.653   8.362  0.00  0.00    +0.000 A 
ATOM     20  C   UNL     1      46.457   3.812   7.609  0.00  0.00    +0.000 A 
ATOM     21  C   UNL     1      46.429   2.435   7.824  0.00  0.00    +0.000 A 
ATOM     22  C   UNL     1      45.555   1.972   8.791  0.00  0.00    +0.000 A 
ATOM     23  N   UNL     1      44.743   2.768   9.528  0.00  0.00    +0.000 NA
ATOM     24  H   UNL     1      44.509   5.668  10.503  0.00  0.00    +0.000 HD
BRANCH  21  25
ATOM     25  C   UNL     1      47.314   1.544   7.033  0.00  0.00    +0.000 C 
ATOM     26  N   UNL     1      48.444   2.065   6.464  0.00  0.00    +0.000 N 
ATOM     27  O   UNL     1      47.044   0.358   6.884  0.00  0.00    +0.000 OA
ATOM     28  H   UNL     1      48.764   3.017   6.535  0.00  0.00    +0.000 HD
ATOM     29  H   UNL     1      49.022   1.421   5.937  0.00  0.00    +0.000 HD
ENDBRANCH  21  25
ENDBRANCH  16  17
ENDBRANCH   1  16
TORSDOF 5
ENDMDL
MODEL 2
REMARK VINA RESULT:    -7.324      3.040      4.156
REMARK INTER + INTRA:         -10.397
REMARK INTER:                  -9.710
REMARK INTRA:                  -0.687
REMARK UNBOUND:                -0.932
REMARK  Name = 
REMARK  6 active torsions:
REMARK  status: ('A' for Active; 'I' for Inactive)
REMARK    1  A    between atoms: C_1  and  C_2
REMARK    2  A    between atoms: N_4  and  C_5
REMARK    3  A    between atoms: C_9  and  C_10
REMARK    4  A    between atoms: C_10  and  C_11
REMARK    5  A    between atoms: C_11  and  N_12
REMARK    6  A    between atoms: C_16  and  C_17
REMARK                            x       y       z     vdW  Elec       q    Type
REMARK                         _______ _______ _______ _____ _____    ______ ____
ROOT
ATOM      1  C   UNL     1      44.048   5.559  12.205  0.00  0.00    +0.000 C 
ENDROOT
BRANCH   1   6
ATOM      2  C   UNL     1      44.570   9.246  11.261  0.00  0.00    +0.000 A 
ATOM      3  C   UNL     1      45.670   9.542  12.080  0.00  0.00    +0.000 A 
ATOM      4  C   UNL     1      46.262   8.576  12.901  0.00  0.00    +0.000 A 
ATOM      5  C   UNL     1      45.756   7.279  12.932  0.00  0.00    +0.000 A 
ATOM      6  C   UNL     1      44.666   6.939  12.130  0.00  0.00    +0.000 A 
ATOM      7  C   UNL     1      44.098   7.923  11.299  0.00  0.00    +0.000 A 
BRANCH   2  11
ATOM      8  C   UNL     1      41.453  11.229  12.045  0.00  0.00    +0.000 C 
ATOM      9  C   UNL     1      41.778  11.368  10.555  0.00  0.00    +0.000 C 
ATOM     10  C   UNL     1      42.599  10.164  10.020  0.00  0.00    +0.000 C 
ATOM     11  N   UNL     1      44.000  10.217  10.459  0.00  0.00    +0.000 N 
ATOM     12  C   UNL     1      44.678  11.505  10.236  0.00  0.00    +0.000 C 
ATOM     13  C   UNL     1      43.814  12.682  10.749  0.00  0.00    +0.000 C 
ATOM     14  N   UNL     1      42.417  12.677  10.263  0.00  0.00    +0.000 NA
ATOM     15  H   UNL     1      42.449  12.779   9.248  0.00  0.00    +0.000 HD
ENDBRANCH   2  11
ENDBRANCH   1   6
BRANCH   1  16
ATOM     16  C   UNL     1      43.510   5.124  10.837  0.00  0.00    +0.000 C 
BRANCH  16  17
ATOM     17  N   UNL     1      43.667   3.676  10.636  0.00  0.00    +0.000 N 
ATOM     18  C   UNL     1      44.580   3.370   9.607  0.00  0.00    +0.000 A 
ATOM     19  C   UNL     1      44.831   2.035   9.298  0.00  0.00    +0.000 A 
ATOM     20  C   UNL     1      45.751   1.723   8.290  0.00  0.00    +0.000 A 
ATOM     21  C   UNL     1      46.407   2.747   7.607  0.00  0.00    +0.000 A 
ATOM     22  C   UNL     1      46.103   4.043   7.984  0.00  0.00    +0.000 A 
ATOM     23  N   UNL     1      45.219   4.365   8.959  0.00  0.00    +0.000 NA
ATOM     24  H   UNL     1      42.784   3.216  10.432  0.00  0.00    +0.000 HD
BRANCH  21  25
ATOM     25  C   UNL     1      47.374   2.419   6.531  0.00  0.00    +0.000 C 
ATOM     26  N   UNL     1      47.312   3.104   5.349  0.00  0.00    +0.000 N 
ATOM     27  O   UNL     1      48.219   1.545   6.688  0.00  0.00    +0.000 OA
ATOM     28  H   UNL     1      46.669   3.845   5.121  0.00  0.00    +0.000 HD
ATOM     29  H   UNL     1      47.994   2.851   4.644  0.00  0.00    +0.000 HD
ENDBRANCH  21  25
ENDBRANCH  16  17
ENDBRANCH   1  16
TORSDOF 5
ENDMDL
MODEL 3
REMARK VINA RESULT:    -7.290      1.462      2.522
REMARK INTER + INTRA:         -10.353
REMARK INTER:                  -9.701
REMARK INTRA:                  -0.652
REMARK UNBOUND:                -0.932
REMARK  Name = 
REMARK  6 active torsions:
REMARK  status: ('A' for Active; 'I' for Inactive)
REMARK    1  A    between atoms: C_1  and  C_2
REMARK    2  A    between atoms: N_4  and  C_5
REMARK    3  A    between atoms: C_9  and  C_10
REMARK    4  A    between atoms: C_10  and  C_11
REMARK    5  A    between atoms: C_11  and  N_12
REMARK    6  A    between atoms: C_16  and  C_17
REMARK                            x       y       z     vdW  Elec       q    Type
REMARK                         _______ _______ _______ _____ _____    ______ ____
ROOT
ATOM      1  C   UNL     1      43.884   5.561  12.289  0.00  0.00    +0.000 C 
ENDROOT
BRANCH   1   6
ATOM      2  C   UNL     1      47.259   7.374  12.564  0.00  0.00    +0.000 A 
ATOM      3  C   UNL     1      46.866   8.660  12.166  0.00  0.00    +0.000 A 
ATOM      4  C   UNL     1      45.538   8.960  11.843  0.00  0.00    +0.000 A 
ATOM      5  C   UNL     1      44.563   7.968  11.900  0.00  0.00    +0.000 A 
ATOM      6  C   UNL     1      44.908   6.675  12.295  0.00  0.00    +0.000 A 
ATOM      7  C   UNL     1      46.248   6.401  12.632  0.00  0.00    +0.000 A 
BRANCH   2  11
ATOM      8  C   UNL     1      50.166   9.763  12.237  0.00  0.00    +0.000 C 
ATOM      9  C   UNL     1      50.701   8.336  12.390  0.00  0.00    +0.000 C 
ATOM     10  C   UNL     1      49.676   7.272  11.914  0.00  0.00    +0.000 C 
ATOM     11  N   UNL     1      48.578   7.099  12.876  0.00  0.00    +0.000 N 
ATOM     12  C   UNL     1      48.996   6.894  14.273  0.00  0.00    +0.000 C 
ATOM     13  C   UNL     1      50.043   7.950  14.698  0.00  0.00    +0.000 C 
ATOM     14  N   UNL     1      51.188   8.090  13.772  0.00  0.00    +0.000 NA
ATOM     15  H   UNL     1      51.682   7.197  13.764  0.00  0.00    +0.000 HD
ENDBRANCH   2  11
ENDBRANCH   1   6
BRANCH   1  16
ATOM     16  C   UNL     1      43.546   5.134  10.856  0.00  0.00    +0.000 C 
BRANCH  16  17
ATOM     17  N   UNL     1      43.722   3.686  10.673  0.00  0.00    +0.000 N 
ATOM     18  C   UNL     1      44.619   3.379   9.630  0.00  0.00    +0.000 A 
ATOM     19  C   UNL     1      44.884   2.043   9.336  0.00  0.00    +0.000 A 
ATOM     20  C   UNL     1      45.788   1.730   8.313  0.00  0.00    +0.000 A 
ATOM     21  C   UNL     1      46.413   2.754   7.602  0.00  0.00    +0.000 A 
ATOM     22  C   UNL     1      46.097   4.050   7.966  0.00  0.00    +0.000 A 
ATOM     23  N   UNL     1      45.228   4.373   8.955  0.00  0.00    +0.000 NA
ATOM     24  H   UNL     1      42.842   3.209  10.494  0.00  0.00    +0.000 HD
BRANCH  21  25
ATOM     25  C   UNL     1      47.363   2.424   6.511  0.00  0.00    +0.000 C 
ATOM     26  N   UNL     1      47.384   3.206   5.389  0.00  0.00    +0.000 N 
ATOM     27  O   UNL     1      48.119   1.464   6.602  0.00  0.00    +0.000 OA
ATOM     28  H   UNL     1      46.817   4.021   5.218  0.00  0.00    +0.000 HD
ATOM     29  H   UNL     1      48.052   2.948   4.671  0.00  0.00    +0.000 HD
ENDBRANCH  21  25
ENDBRANCH  16  17
ENDBRANCH   1  16
TORSDOF 5
ENDMDL
MODEL 4
REMARK VINA RESULT:    -7.227      2.814      3.748
REMARK INTER + INTRA:         -10.271
REMARK INTER:                  -9.580
REMARK INTRA:                  -0.691
REMARK UNBOUND:                -0.932
REMARK  Name = 
REMARK  6 active torsions:
REMARK  status: ('A' for Active; 'I' for Inactive)
REMARK    1  A    between atoms: C_1  and  C_2
REMARK    2  A    between atoms: N_4  and  C_5
REMARK    3  A    between atoms: C_9  and  C_10
REMARK    4  A    between atoms: C_10  and  C_11
REMARK    5  A    between atoms: C_11  and  N_12
REMARK    6  A    between atoms: C_16  and  C_17
REMARK                            x       y       z     vdW  Elec       q    Type
REMARK                         _______ _______ _______ _____ _____    ______ ____
ROOT
ATOM      1  C   UNL     1      44.367   5.492  12.036  0.00  0.00    +0.000 C 
ENDROOT
BRANCH   1   6
ATOM      2  C   UNL     1      44.713   9.277  11.481  0.00  0.00    +0.000 A 
ATOM      3  C   UNL     1      46.051   9.447  11.867  0.00  0.00    +0.000 A 
ATOM      4  C   UNL     1      46.847   8.369  12.269  0.00  0.00    +0.000 A 
ATOM      5  C   UNL     1      46.316   7.083  12.307  0.00  0.00    +0.000 A 
ATOM      6  C   UNL     1      44.990   6.866  11.928  0.00  0.00    +0.000 A 
ATOM      7  C   UNL     1      44.214   7.964  11.510  0.00  0.00    +0.000 A 
BRANCH   2  11
ATOM      8  C   UNL     1      45.838  12.121   9.264  0.00  0.00    +0.000 C 
ATOM      9  C   UNL     1      44.547  12.522   9.983  0.00  0.00    +0.000 C 
ATOM     10  C   UNL     1      44.355  11.750  11.316  0.00  0.00    +0.000 C 
ATOM     11  N   UNL     1      43.944  10.357  11.089  0.00  0.00    +0.000 N 
ATOM     12  C   UNL     1      42.810  10.180  10.166  0.00  0.00    +0.000 C 
ATOM     13  C   UNL     1      43.022  10.993   8.867  0.00  0.00    +0.000 C 
ATOM     14  N   UNL     1      43.373  12.414   9.080  0.00  0.00    +0.000 NA
ATOM     15  H   UNL     1      42.583  12.853   9.555  0.00  0.00    +0.000 HD
ENDBRANCH   2  11
ENDBRANCH   1   6
BRANCH   1  16
ATOM     16  C   UNL     1      43.783   5.046  10.690  0.00  0.00    +0.000 C 
BRANCH  16  17
ATOM     17  N   UNL     1      43.937   3.598  10.493  0.00  0.00    +0.000 N 
ATOM     18  C   UNL     1      44.837   3.286   9.455  0.00  0.00    +0.000 A 
ATOM     19  C   UNL     1      45.082   1.949   9.149  0.00  0.00    +0.000 A 
ATOM     20  C   UNL     1      45.989   1.632   8.131  0.00  0.00    +0.000 A 
ATOM     21  C   UNL     1      46.637   2.652   7.435  0.00  0.00    +0.000 A 
ATOM     22  C   UNL     1      46.340   3.949   7.811  0.00  0.00    +0.000 A 
ATOM     23  N   UNL     1      45.468   4.277   8.795  0.00  0.00    +0.000 NA
ATOM     24  H   UNL     1      43.051   3.137  10.302  0.00  0.00    +0.000 HD
BRANCH  21  25
ATOM     25  C   UNL     1      47.591   2.317   6.349  0.00  0.00    +0.000 C 
ATOM     26  N   UNL     1      47.655   3.126   5.247  0.00  0.00    +0.000 N 
ATOM     27  O   UNL     1      48.314   1.331   6.426  0.00  0.00    +0.000 OA
ATOM     28  H   UNL     1      47.118   3.964   5.090  0.00  0.00    +0.000 HD
ATOM     29  H   UNL     1      48.323   2.864   4.532  0.00  0.00    +0.000 HD
ENDBRANCH  21  25
ENDBRANCH  16  17
ENDBRANCH   1  16
TORSDOF 5
ENDMDL
MODEL 5
REMARK VINA RESULT:    -6.980      3.381      7.457
REMARK INTER + INTRA:          -9.952
REMARK INTER:                  -8.967
REMARK INTRA:                  -0.986
REMARK UNBOUND:                -0.932
REMARK  Name = 
REMARK  6 active torsions:
REMARK  status: ('A' for Active; 'I' for Inactive)
REMARK    1  A    between atoms: C_1  and  C_2
REMARK    2  A    between atoms: N_4  and  C_5
REMARK    3  A    between atoms: C_9  and  C_10
REMARK    4  A    between atoms: C_10  and  C_11
REMARK    5  A    between atoms: C_11  and  N_12
REMARK    6  A    between atoms: C_16  and  C_17
REMARK                            x       y       z     vdW  Elec       q    Type
REMARK                         _______ _______ _______ _____ _____    ______ ____
ROOT
ATOM      1  C   UNL     1      48.025   8.850  12.914  0.00  0.00    +0.000 C 
ENDROOT
BRANCH   1   6
ATOM      2  C   UNL     1      44.845   6.930  11.940  0.00  0.00    +0.000 A 
ATOM      3  C   UNL     1      44.098   7.982  11.389  0.00  0.00    +0.000 A 
ATOM      4  C   UNL     1      44.607   9.281  11.297  0.00  0.00    +0.000 A 
ATOM      5  C   UNL     1      45.885   9.567  11.769  0.00  0.00    +0.000 A 
ATOM      6  C   UNL     1      46.666   8.550  12.321  0.00  0.00    +0.000 A 
ATOM      7  C   UNL     1      46.138   7.247  12.387  0.00  0.00    +0.000 A 
BRANCH   2  11
ATOM      8  C   UNL     1      45.090   4.249   9.291  0.00  0.00    +0.000 C 
ATOM      9  C   UNL     1      44.003   3.864  10.299  0.00  0.00    +0.000 C 
ATOM     10  C   UNL     1      43.402   5.104  11.014  0.00  0.00    +0.000 C 
ATOM     11  N   UNL     1      44.320   5.653  12.022  0.00  0.00    +0.000 N 
ATOM     12  C   UNL     1      44.874   4.670  12.968  0.00  0.00    +0.000 C 
ATOM     13  C   UNL     1      45.430   3.435  12.220  0.00  0.00    +0.000 C 
ATOM     14  N   UNL     1      44.492   2.831  11.248  0.00  0.00    +0.000 NA
ATOM     15  H   UNL     1      43.684   2.496  11.774  0.00  0.00    +0.000 HD
ENDBRANCH   2  11
ENDBRANCH   1   6
BRANCH   1  16
ATOM     16  C   UNL     1      48.846   7.567  13.084  0.00  0.00    +0.000 C 
BRANCH  16  17
ATOM     17  N   UNL     1      49.522   7.532  14.388  0.00  0.00    +0.000 N 
ATOM     18  C   UNL     1      49.020   6.521  15.231  0.00  0.00    +0.000 A 
ATOM     19  C   UNL     1      49.563   6.367  16.505  0.00  0.00    +0.000 A 
ATOM     20  C   UNL     1      49.081   5.352  17.340  0.00  0.00    +0.000 A 
ATOM     21  C   UNL     1      48.067   4.506  16.891  0.00  0.00    +0.000 A 
ATOM     22  C   UNL     1      47.593   4.725  15.611  0.00  0.00    +0.000 A 
ATOM     23  N   UNL     1      48.048   5.699  14.786  0.00  0.00    +0.000 NA
ATOM     24  H   UNL     1      49.462   8.421  14.879  0.00  0.00    +0.000 HD
BRANCH  21  25
ATOM     25  C   UNL     1      47.549   3.436  17.779  0.00  0.00    +0.000 C 
ATOM     26  N   UNL     1      48.211   3.162  18.945  0.00  0.00    +0.000 N 
ATOM     27  O   UNL     1      46.545   2.800  17.481  0.00  0.00    +0.000 OA
ATOM     28  H   UNL     1      49.033   3.630  19.290  0.00  0.00    +0.000 HD
ATOM     29  H   UNL     1      47.819   2.427  19.524  0.00  0.00    +0.000 HD
ENDBRANCH  21  25
ENDBRANCH  16  17
ENDBRANCH   1  16
TORSDOF 5
ENDMDL
MODEL 6
REMARK VINA RESULT:    -6.708      4.533      7.872
REMARK INTER + INTRA:          -9.601
REMARK INTER:                  -9.135
REMARK INTRA:                  -0.466
REMARK UNBOUND:                -0.932
REMARK  Name = 
REMARK  6 active torsions:
REMARK  status: ('A' for Active; 'I' for Inactive)
REMARK    1  A    between atoms: C_1  and  C_2
REMARK    2  A    between atoms: N_4  and  C_5
REMARK    3  A    between atoms: C_9  and  C_10
REMARK    4  A    between atoms: C_10  and  C_11
REMARK    5  A    between atoms: C_11  and  N_12
REMARK    6  A    between atoms: C_16  and  C_17
REMARK                            x       y       z     vdW  Elec       q    Type
REMARK                         _______ _______ _______ _____ _____    ______ ____
ROOT
ATOM      1  C   UNL     1      49.048   6.978  15.102  0.00  0.00    +0.000 C 
ENDROOT
BRANCH   1   6
ATOM      2  C   UNL     1      46.284   6.184  12.555  0.00  0.00    +0.000 A 
ATOM      3  C   UNL     1      45.708   7.457  12.433  0.00  0.00    +0.000 A 
ATOM      4  C   UNL     1      46.209   8.565  13.125  0.00  0.00    +0.000 A 
ATOM      5  C   UNL     1      47.302   8.423  13.975  0.00  0.00    +0.000 A 
ATOM      6  C   UNL     1      47.910   7.175  14.125  0.00  0.00    +0.000 A 
ATOM      7  C   UNL     1      47.399   6.079  13.404  0.00  0.00    +0.000 A 
BRANCH   2  11
ATOM      8  C   UNL     1      43.015   4.432  13.272  0.00  0.00    +0.000 C 
ATOM      9  C   UNL     1      43.875   3.545  12.366  0.00  0.00    +0.000 C 
ATOM     10  C   UNL     1      45.390   3.845  12.521  0.00  0.00    +0.000 C 
ATOM     11  N   UNL     1      45.771   5.103  11.863  0.00  0.00    +0.000 N 
ATOM     12  C   UNL     1      45.306   5.249  10.473  0.00  0.00    +0.000 C 
ATOM     13  C   UNL     1      43.802   4.907  10.353  0.00  0.00    +0.000 C 
ATOM     14  N   UNL     1      43.415   3.612  10.955  0.00  0.00    +0.000 NA
ATOM     15  H   UNL     1      43.907   2.880  10.441  0.00  0.00    +0.000 HD
ENDBRANCH   2  11
ENDBRANCH   1   6
BRANCH   1  16
ATOM     16  C   UNL     1      48.519   6.636  16.499  0.00  0.00    +0.000 C 
BRANCH  16  17
ATOM     17  N   UNL     1      47.996   5.263  16.553  0.00  0.00    +0.000 N 
ATOM     18  C   UNL     1      48.999   4.313  16.831  0.00  0.00    +0.000 A 
ATOM     19  C   UNL     1      48.654   2.966  16.911  0.00  0.00    +0.000 A 
ATOM     20  C   UNL     1      49.643   2.019  17.205  0.00  0.00    +0.000 A 
ATOM     21  C   UNL     1      50.958   2.431  17.417  0.00  0.00    +0.000 A 
ATOM     22  C   UNL     1      51.209   3.788  17.326  0.00  0.00    +0.000 A 
ATOM     23  N   UNL     1      50.266   4.720  17.046  0.00  0.00    +0.000 NA
ATOM     24  H   UNL     1      47.526   4.994  15.693  0.00  0.00    +0.000 HD
BRANCH  21  25
ATOM     25  C   UNL     1      52.008   1.427  17.718  0.00  0.00    +0.000 C 
ATOM     26  N   UNL     1      51.634   0.179  18.136  0.00  0.00    +0.000 N 
ATOM     27  O   UNL     1      53.196   1.703  17.602  0.00  0.00    +0.000 OA
ATOM     28  H   UNL     1      50.691  -0.155  18.252  0.00  0.00    +0.000 HD
ATOM     29  H   UNL     1      52.383  -0.477  18.326  0.00  0.00    +0.000 HD
ENDBRANCH  21  25
ENDBRANCH  16  17
ENDBRANCH   1  16
TORSDOF 5
ENDMDL
MODEL 7
REMARK VINA RESULT:    -6.607      3.736      6.161
REMARK INTER + INTRA:          -9.470
REMARK INTER:                  -8.558
REMARK INTRA:                  -0.912
REMARK UNBOUND:                -0.932
REMARK  Name = 
REMARK  6 active torsions:
REMARK  status: ('A' for Active; 'I' for Inactive)
REMARK    1  A    between atoms: C_1  and  C_2
REMARK    2  A    between atoms: N_4  and  C_5
REMARK    3  A    between atoms: C_9  and  C_10
REMARK    4  A    between atoms: C_10  and  C_11
REMARK    5  A    between atoms: C_11  and  N_12
REMARK    6  A    between atoms: C_16  and  C_17
REMARK                            x       y       z     vdW  Elec       q    Type
REMARK                         _______ _______ _______ _____ _____    ______ ____
ROOT
ATOM      1  C   UNL     1      49.201   8.350  13.483  0.00  0.00    +0.000 C 
ENDROOT
BRANCH   1   6
ATOM      2  C   UNL     1      49.377   6.163  16.636  0.00  0.00    +0.000 A 
ATOM      3  C   UNL     1      50.756   6.225  16.885  0.00  0.00    +0.000 A 
ATOM      4  C   UNL     1      51.620   6.977  16.082  0.00  0.00    +0.000 A 
ATOM      5  C   UNL     1      51.122   7.685  14.991  0.00  0.00    +0.000 A 
ATOM      6  C   UNL     1      49.755   7.655  14.708  0.00  0.00    +0.000 A 
ATOM      7  C   UNL     1      48.904   6.905  15.541  0.00  0.00    +0.000 A 
BRANCH   2  11
ATOM      8  C   UNL     1      49.723   2.473  17.367  0.00  0.00    +0.000 C 
ATOM      9  C   UNL     1      48.319   2.938  17.767  0.00  0.00    +0.000 C 
ATOM     10  C   UNL     1      47.869   4.193  16.972  0.00  0.00    +0.000 C 
ATOM     11  N   UNL     1      48.543   5.411  17.442  0.00  0.00    +0.000 N 
ATOM     12  C   UNL     1      48.509   5.624  18.899  0.00  0.00    +0.000 C 
ATOM     13  C   UNL     1      48.929   4.341  19.656  0.00  0.00    +0.000 C 
ATOM     14  N   UNL     1      48.212   3.117  19.238  0.00  0.00    +0.000 NA
ATOM     15  H   UNL     1      47.224   3.256  19.454  0.00  0.00    +0.000 HD
ENDBRANCH   2  11
ENDBRANCH   1   6
BRANCH   1  16
ATOM     16  C   UNL     1      47.673   8.245  13.437  0.00  0.00    +0.000 C 
BRANCH  16  17
ATOM     17  N   UNL     1      47.199   7.915  12.085  0.00  0.00    +0.000 N 
ATOM     18  C   UNL     1      46.453   6.720  12.051  0.00  0.00    +0.000 A 
ATOM     19  C   UNL     1      45.940   6.275  10.835  0.00  0.00    +0.000 A 
ATOM     20  C   UNL     1      45.182   5.099  10.797  0.00  0.00    +0.000 A 
ATOM     21  C   UNL     1      44.947   4.385  11.972  0.00  0.00    +0.000 A 
ATOM     22  C   UNL     1      45.488   4.904  13.135  0.00  0.00    +0.000 A 
ATOM     23  N   UNL     1      46.221   6.042  13.193  0.00  0.00    +0.000 NA
ATOM     24  H   UNL     1      47.961   7.839  11.416  0.00  0.00    +0.000 HD
BRANCH  21  25
ATOM     25  C   UNL     1      44.153   3.133  11.932  0.00  0.00    +0.000 C 
ATOM     26  N   UNL     1      44.059   2.443  10.754  0.00  0.00    +0.000 N 
ATOM     27  O   UNL     1      43.582   2.715  12.932  0.00  0.00    +0.000 OA
ATOM     28  H   UNL     1      44.497   2.690   9.881  0.00  0.00    +0.000 HD
ATOM     29  H   UNL     1      43.512   1.590  10.772  0.00  0.00    +0.000 HD
ENDBRANCH  21  25
ENDBRANCH  16  17
ENDBRANCH   1  16
TORSDOF 5
ENDMDL
MODEL 8
REMARK VINA RESULT:    -6.439      4.490      8.396
REMARK INTER + INTRA:          -9.254
REMARK INTER:                  -8.596
REMARK INTRA:                  -0.658
REMARK UNBOUND:                -0.932
REMARK  Name = 
REMARK  6 active torsions:
REMARK  status: ('A' for Active; 'I' for Inactive)
REMARK    1  A    between atoms: C_1  and  C_2
REMARK    2  A    between atoms: N_4  and  C_5
REMARK    3  A    between atoms: C_9  and  C_10
REMARK    4  A    between atoms: C_10  and  C_11
REMARK    5  A    between atoms: C_11  and  N_12
REMARK    6  A    between atoms: C_16  and  C_17
REMARK                            x       y       z     vdW  Elec       q    Type
REMARK                         _______ _______ _______ _____ _____    ______ ____
ROOT
ATOM      1  C   UNL     1      48.745   7.342  13.059  0.00  0.00    +0.000 C 
ENDROOT
BRANCH   1   6
ATOM      2  C   UNL     1      45.258   6.976  11.491  0.00  0.00    +0.000 A 
ATOM      3  C   UNL     1      44.818   8.304  11.590  0.00  0.00    +0.000 A 
ATOM      4  C   UNL     1      45.629   9.314  12.119  0.00  0.00    +0.000 A 
ATOM      5  C   UNL     1      46.909   9.015  12.577  0.00  0.00    +0.000 A 
ATOM      6  C   UNL     1      47.390   7.708  12.495  0.00  0.00    +0.000 A 
ATOM      7  C   UNL     1      46.562   6.712  11.943  0.00  0.00    +0.000 A 
BRANCH   2  11
ATOM      8  C   UNL     1      45.316   3.311  12.402  0.00  0.00    +0.000 C 
ATOM      9  C   UNL     1      44.533   3.495  11.098  0.00  0.00    +0.000 C 
ATOM     10  C   UNL     1      44.962   4.775  10.333  0.00  0.00    +0.000 C 
ATOM     11  N   UNL     1      44.438   5.994  10.967  0.00  0.00    +0.000 N 
ATOM     12  C   UNL     1      42.997   5.973  11.269  0.00  0.00    +0.000 C 
ATOM     13  C   UNL     1      42.603   4.667  11.998  0.00  0.00    +0.000 C 
ATOM     14  N   UNL     1      43.068   3.428  11.336  0.00  0.00    +0.000 NA
ATOM     15  H   UNL     1      42.615   3.384  10.423  0.00  0.00    +0.000 HD
ENDBRANCH   2  11
ENDBRANCH   1   6
BRANCH   1  16
ATOM     16  C   UNL     1      48.694   7.235  14.587  0.00  0.00    +0.000 C 
BRANCH  16  17
ATOM     17  N   UNL     1      48.013   6.005  15.016  0.00  0.00    +0.000 N 
ATOM     18  C   UNL     1      48.318   5.654  16.346  0.00  0.00    +0.000 A 
ATOM     19  C   UNL     1      47.747   4.506  16.892  0.00  0.00    +0.000 A 
ATOM     20  C   UNL     1      48.031   4.162  18.219  0.00  0.00    +0.000 A 
ATOM     21  C   UNL     1      48.878   4.967  18.980  0.00  0.00    +0.000 A 
ATOM     22  C   UNL     1      49.393   6.091  18.360  0.00  0.00    +0.000 A 
ATOM     23  N   UNL     1      49.128   6.444  17.078  0.00  0.00    +0.000 NA
ATOM     24  H   UNL     1      48.229   5.214  14.415  0.00  0.00    +0.000 HD
BRANCH  21  25
ATOM     25  C   UNL     1      49.188   4.597  20.383  0.00  0.00    +0.000 C 
ATOM     26  N   UNL     1      50.496   4.530  20.779  0.00  0.00    +0.000 N 
ATOM     27  O   UNL     1      48.293   4.351  21.182  0.00  0.00    +0.000 OA
ATOM     28  H   UNL     1      51.304   4.725  20.209  0.00  0.00    +0.000 HD
ATOM     29  H   UNL     1      50.663   4.279  21.747  0.00  0.00    +0.000 HD
ENDBRANCH  21  25
ENDBRANCH  16  17
ENDBRANCH   1  16
TORSDOF 5
ENDMDL
MODEL 9
REMARK VINA RESULT:    -6.300      3.803      6.464
REMARK INTER + INTRA:          -9.074
REMARK INTER:                  -8.092
REMARK INTRA:                  -0.981
REMARK UNBOUND:                -0.932
REMARK  Name = 
REMARK  6 active torsions:
REMARK  status: ('A' for Active; 'I' for Inactive)
REMARK    1  A    between atoms: C_1  and  C_2
REMARK    2  A    between atoms: N_4  and  C_5
REMARK    3  A    between atoms: C_9  and  C_10
REMARK    4  A    between atoms: C_10  and  C_11
REMARK    5  A    between atoms: C_11  and  N_12
REMARK    6  A    between atoms: C_16  and  C_17
REMARK                            x       y       z     vdW  Elec       q    Type
REMARK                         _______ _______ _______ _____ _____    ______ ____
ROOT
ATOM      1  C   UNL     1      48.836   8.634  14.512  0.00  0.00    +0.000 C 
ENDROOT
BRANCH   1   6
ATOM      2  C   UNL     1      48.684   6.794  17.881  0.00  0.00    +0.000 A 
ATOM      3  C   UNL     1      48.161   7.819  18.682  0.00  0.00    +0.000 A 
ATOM      4  C   UNL     1      47.829   9.072  18.157  0.00  0.00    +0.000 A 
ATOM      5  C   UNL     1      48.025   9.338  16.804  0.00  0.00    +0.000 A 
ATOM      6  C   UNL     1      48.539   8.346  15.968  0.00  0.00    +0.000 A 
ATOM      7  C   UNL     1      48.850   7.086  16.516  0.00  0.00    +0.000 A 
BRANCH   2  11
ATOM      8  C   UNL     1      47.729   3.423  16.470  0.00  0.00    +0.000 C 
ATOM      9  C   UNL     1      48.184   3.251  17.922  0.00  0.00    +0.000 C 
ATOM     10  C   UNL     1      47.995   4.549  18.752  0.00  0.00    +0.000 C 
ATOM     11  N   UNL     1      49.006   5.563  18.422  0.00  0.00    +0.000 N 
ATOM     12  C   UNL     1      50.399   5.085  18.432  0.00  0.00    +0.000 C 
ATOM     13  C   UNL     1      50.540   3.772  17.626  0.00  0.00    +0.000 C 
ATOM     14  N   UNL     1      49.569   2.718  17.992  0.00  0.00    +0.000 NA
ATOM     15  H   UNL     1      49.747   2.466  18.965  0.00  0.00    +0.000 HD
ENDBRANCH   2  11
ENDBRANCH   1   6
BRANCH   1  16
ATOM     16  C   UNL     1      49.002   7.334  13.718  0.00  0.00    +0.000 C 
BRANCH  16  17
ATOM     17  N   UNL     1      48.266   7.386  12.447  0.00  0.00    +0.000 N 
ATOM     18  C   UNL     1      47.178   6.490  12.415  0.00  0.00    +0.000 A 
ATOM     19  C   UNL     1      46.387   6.424  11.270  0.00  0.00    +0.000 A 
ATOM     20  C   UNL     1      45.294   5.550  11.239  0.00  0.00    +0.000 A 
ATOM     21  C   UNL     1      45.007   4.757  12.350  0.00  0.00    +0.000 A 
ATOM     22  C   UNL     1      45.840   4.893  13.445  0.00  0.00    +0.000 A 
ATOM     23  N   UNL     1      46.900   5.735  13.496  0.00  0.00    +0.000 NA
ATOM     24  H   UNL     1      48.863   7.197  11.645  0.00  0.00    +0.000 HD
BRANCH  21  25
ATOM     25  C   UNL     1      43.855   3.823  12.314  0.00  0.00    +0.000 C 
ATOM     26  N   UNL     1      42.703   4.211  11.685  0.00  0.00    +0.000 N 
ATOM     27  O   UNL     1      43.922   2.718  12.840  0.00  0.00    +0.000 OA
ATOM     28  H   UNL     1      42.547   5.087  11.213  0.00  0.00    +0.000 HD
ATOM     29  H   UNL     1      41.943   3.540  11.680  0.00  0.00    +0.000 HD
ENDBRANCH  21  25
ENDBRANCH  16  17
ENDBRANCH   1  16
TORSDOF 5
ENDMDL
