MODEL 1
REMARK VINA RESULT:    -8.742      0.000      0.000
REMARK INTER + INTRA:         -12.791
REMARK INTER:                 -12.065
REMARK INTRA:                  -0.727
REMARK UNBOUND:                -0.727
REMARK  Name = 
REMARK  8 active torsions:
REMARK  status: ('A' for Active; 'I' for Inactive)
REMARK    1  A    between atoms: C_1  and  C_2
REMARK    2  A    between atoms: C_2  and  O_3
REMARK    3  A    between atoms: C_5  and  O_6
REMARK    4  A    between atoms: O_6  and  C_7
REMARK    5  A    between atoms: C_11  and  C_12
REMARK    6  A    between atoms: C_12  and  C_13
REMARK    7  A    between atoms: C_13  and  N_14
REMARK    8  A    between atoms: C_18  and  C_19
REMARK                            x       y       z     vdW  Elec       q    Type
REMARK                         _______ _______ _______ _____ _____    ______ ____
ROOT
ATOM      1  C   UNL     1      43.222   4.814  12.441  0.00  0.00    +0.000 C 
ENDROOT
BRANCH   1   6
ATOM      2  C   UNL     1      46.795   4.842  13.864  0.00  0.00    +0.000 A 
ATOM      3  C   UNL     1      47.222   6.116  13.507  0.00  0.00    +0.000 A 
ATOM      4  C   UNL     1      46.342   6.985  12.858  0.00  0.00    +0.000 A 
ATOM      5  C   UNL     1      45.043   6.573  12.539  0.00  0.00    +0.000 A 
ATOM      6  C   UNL     1      44.610   5.279  12.858  0.00  0.00    +0.000 A 
ATOM      7  C   UNL     1      45.505   4.433  13.535  0.00  0.00    +0.000 A 
BRANCH   2   8
ATOM      8  O   UNL     1      47.696   4.031  14.510  0.00  0.00    +0.000 OA
BRANCH   8  12
ATOM      9  C   UNL     1      49.068   3.938  18.800  0.00  0.00    +0.000 C 
ATOM     10  C   UNL     1      48.781   4.076  17.314  0.00  0.00    +0.000 C 
ATOM     11  C   UNL     1      47.342   4.551  16.985  0.00  0.00    +0.000 C 
ATOM     12  C   UNL     1      47.328   3.528  15.820  0.00  0.00    +0.000 C 
ATOM     13  C   UNL     1      48.434   2.757  16.577  0.00  0.00    +0.000 C 
BRANCH  10  14
ATOM     14  O   UNL     1      49.848   4.834  16.703  0.00  0.00    +0.000 OA
ATOM     15  H   UNL     1      49.537   5.755  16.688  0.00  0.00    +0.000 HD
ENDBRANCH  10  14
ENDBRANCH   8  12
ENDBRANCH   2   8
ENDBRANCH   1   6
BRANCH   1  16
ATOM     16  C   UNL     1      43.181   4.192  11.040  0.00  0.00    +0.000 C 
BRANCH  16  17
ATOM     17  N   UNL     1      43.964   4.929  10.048  0.00  0.00    +0.000 N 
ATOM     18  C   UNL     1      44.790   4.049   9.307  0.00  0.00    +0.000 A 
ATOM     19  C   UNL     1      45.622   4.578   8.327  0.00  0.00    +0.000 A 
ATOM     20  C   UNL     1      46.441   3.720   7.587  0.00  0.00    +0.000 A 
ATOM     21  C   UNL     1      46.421   2.348   7.837  0.00  0.00    +0.000 A 
ATOM     22  C   UNL     1      45.556   1.904   8.820  0.00  0.00    +0.000 A 
ATOM     23  N   UNL     1      44.748   2.719   9.542  0.00  0.00    +0.000 NA
ATOM     24  H   UNL     1      44.560   5.634  10.477  0.00  0.00    +0.000 HD
BRANCH  21  25
ATOM     25  C   UNL     1      47.305   1.446   7.061  0.00  0.00    +0.000 C 
ATOM     26  N   UNL     1      48.353   1.981   6.360  0.00  0.00    +0.000 N 
ATOM     27  O   UNL     1      47.107   0.239   7.034  0.00  0.00    +0.000 OA
ATOM     28  H   UNL     1      48.604   2.956   6.303  0.00  0.00    +0.000 HD
ATOM     29  H   UNL     1      48.925   1.323   5.840  0.00  0.00    +0.000 HD
ENDBRANCH  21  25
ENDBRANCH  16  17
ENDBRANCH   1  16
TORSDOF 7
ENDMDL
MODEL 2
REMARK VINA RESULT:    -7.509      2.654      4.327
REMARK INTER + INTRA:         -11.090
REMARK INTER:                 -10.022
REMARK INTRA:                  -1.067
REMARK UNBOUND:                -0.727
REMARK  Name = 
REMARK  8 active torsions:
REMARK  status: ('A' for Active; 'I' for Inactive)
REMARK    1  A    between atoms: C_1  and  C_2
REMARK    2  A    between atoms: C_2  and  O_3
REMARK    3  A    between atoms: C_5  and  O_6
REMARK    4  A    between atoms: O_6  and  C_7
REMARK    5  A    between atoms: C_11  and  C_12
REMARK    6  A    between atoms: C_12  and  C_13
REMARK    7  A    between atoms: C_13  and  N_14
REMARK    8  A    between atoms: C_18  and  C_19
REMARK                            x       y       z     vdW  Elec       q    Type
REMARK                         _______ _______ _______ _____ _____    ______ ____
ROOT
ATOM      1  C   UNL     1      43.573   5.521  12.205  0.00  0.00    +0.000 C 
ENDROOT
BRANCH   1   6
ATOM      2  C   UNL     1      47.251   6.644  12.155  0.00  0.00    +0.000 A 
ATOM      3  C   UNL     1      47.792   5.855  13.162  0.00  0.00    +0.000 A 
ATOM      4  C   UNL     1      46.988   4.922  13.820  0.00  0.00    +0.000 A 
ATOM      5  C   UNL     1      45.632   4.797  13.491  0.00  0.00    +0.000 A 
ATOM      6  C   UNL     1      45.062   5.612  12.504  0.00  0.00    +0.000 A 
ATOM      7  C   UNL     1      45.900   6.523  11.838  0.00  0.00    +0.000 A 
BRANCH   2   8
ATOM      8  O   UNL     1      48.089   7.538  11.533  0.00  0.00    +0.000 OA
BRANCH   8  12
ATOM      9  C   UNL     1      48.236  11.844  12.848  0.00  0.00    +0.000 C 
ATOM     10  C   UNL     1      48.024  10.449  12.285  0.00  0.00    +0.000 C 
ATOM     11  C   UNL     1      48.010   9.325  13.354  0.00  0.00    +0.000 C 
ATOM     12  C   UNL     1      48.837   8.455  12.373  0.00  0.00    +0.000 C 
ATOM     13  C   UNL     1      49.287   9.769  11.695  0.00  0.00    +0.000 C 
BRANCH  10  14
ATOM     14  O   UNL     1      46.892  10.476  11.388  0.00  0.00    +0.000 OA
ATOM     15  H   UNL     1      46.414  11.297  11.598  0.00  0.00    +0.000 HD
ENDBRANCH  10  14
ENDBRANCH   8  12
ENDBRANCH   2   8
ENDBRANCH   1   6
BRANCH   1  16
ATOM     16  C   UNL     1      43.263   4.917  10.830  0.00  0.00    +0.000 C 
BRANCH  16  17
ATOM     17  N   UNL     1      43.632   3.506  10.711  0.00  0.00    +0.000 N 
ATOM     18  C   UNL     1      44.533   3.312   9.636  0.00  0.00    +0.000 A 
ATOM     19  C   UNL     1      44.980   2.025   9.362  0.00  0.00    +0.000 A 
ATOM     20  C   UNL     1      45.871   1.819   8.305  0.00  0.00    +0.000 A 
ATOM     21  C   UNL     1      46.302   2.900   7.535  0.00  0.00    +0.000 A 
ATOM     22  C   UNL     1      45.819   4.147   7.883  0.00  0.00    +0.000 A 
ATOM     23  N   UNL     1      44.961   4.368   8.910  0.00  0.00    +0.000 NA
ATOM     24  H   UNL     1      42.821   2.911  10.555  0.00  0.00    +0.000 HD
BRANCH  21  25
ATOM     25  C   UNL     1      47.232   2.673   6.404  0.00  0.00    +0.000 C 
ATOM     26  N   UNL     1      48.445   2.082   6.646  0.00  0.00    +0.000 N 
ATOM     27  O   UNL     1      46.935   3.010   5.265  0.00  0.00    +0.000 OA
ATOM     28  H   UNL     1      48.796   1.775   7.539  0.00  0.00    +0.000 HD
ATOM     29  H   UNL     1      49.048   1.955   5.840  0.00  0.00    +0.000 HD
ENDBRANCH  21  25
ENDBRANCH  16  17
ENDBRANCH   1  16
TORSDOF 7
ENDMDL
MODEL 3
REMARK VINA RESULT:    -6.876      3.910      6.313
REMARK INTER + INTRA:         -10.216
REMARK INTER:                  -9.523
REMARK INTRA:                  -0.693
REMARK UNBOUND:                -0.727
REMARK  Name = 
REMARK  8 active torsions:
REMARK  status: ('A' for Active; 'I' for Inactive)
REMARK    1  A    between atoms: C_1  and  C_2
REMARK    2  A    between atoms: C_2  and  O_3
REMARK    3  A    between atoms: C_5  and  O_6
REMARK    4  A    between atoms: O_6  and  C_7
REMARK    5  A    between atoms: C_11  and  C_12
REMARK    6  A    between atoms: C_12  and  C_13
REMARK    7  A    between atoms: C_13  and  N_14
REMARK    8  A    between atoms: C_18  and  C_19
REMARK                            x       y       z     vdW  Elec       q    Type
REMARK                         _______ _______ _______ _____ _____    ______ ____
ROOT
ATOM      1  C   UNL     1      44.509   5.772  12.317  0.00  0.00    +0.000 C 
ENDROOT
BRANCH   1   6
ATOM      2  C   UNL     1      45.492   9.483  12.079  0.00  0.00    +0.000 A 
ATOM      3  C   UNL     1      46.879   9.398  12.066  0.00  0.00    +0.000 A 
ATOM      4  C   UNL     1      47.498   8.146  12.077  0.00  0.00    +0.000 A 
ATOM      5  C   UNL     1      46.730   6.976  12.131  0.00  0.00    +0.000 A 
ATOM      6  C   UNL     1      45.332   7.045  12.184  0.00  0.00    +0.000 A 
ATOM      7  C   UNL     1      44.734   8.316  12.143  0.00  0.00    +0.000 A 
BRANCH   2   8
ATOM      8  O   UNL     1      44.935  10.738  12.056  0.00  0.00    +0.000 OA
BRANCH   8  12
ATOM      9  C   UNL     1      43.336  12.563   8.260  0.00  0.00    +0.000 C 
ATOM     10  C   UNL     1      44.060  12.026   9.483  0.00  0.00    +0.000 C 
ATOM     11  C   UNL     1      43.766  10.535   9.795  0.00  0.00    +0.000 C 
ATOM     12  C   UNL     1      43.711  10.916  11.297  0.00  0.00    +0.000 C 
ATOM     13  C   UNL     1      43.406  12.363  10.848  0.00  0.00    +0.000 C 
BRANCH  10  14
ATOM     14  O   UNL     1      45.457  12.385   9.391  0.00  0.00    +0.000 OA
ATOM     15  H   UNL     1      45.856  11.725   8.797  0.00  0.00    +0.000 HD
ENDBRANCH  10  14
ENDBRANCH   8  12
ENDBRANCH   2   8
ENDBRANCH   1   6
BRANCH   1  16
ATOM     16  C   UNL     1      43.924   5.282  10.987  0.00  0.00    +0.000 C 
BRANCH  16  17
ATOM     17  N   UNL     1      43.984   3.829  10.819  0.00  0.00    +0.000 N 
ATOM     18  C   UNL     1      44.806   3.486   9.719  0.00  0.00    +0.000 A 
ATOM     19  C   UNL     1      44.966   2.143   9.397  0.00  0.00    +0.000 A 
ATOM     20  C   UNL     1      45.776   1.789   8.314  0.00  0.00    +0.000 A 
ATOM     21  C   UNL     1      46.413   2.781   7.567  0.00  0.00    +0.000 A 
ATOM     22  C   UNL     1      46.211   4.089   7.963  0.00  0.00    +0.000 A 
ATOM     23  N   UNL     1      45.436   4.451   9.014  0.00  0.00    +0.000 NA
ATOM     24  H   UNL     1      43.063   3.424  10.664  0.00  0.00    +0.000 HD
BRANCH  21  25
ATOM     25  C   UNL     1      47.257   2.399   6.409  0.00  0.00    +0.000 C 
ATOM     26  N   UNL     1      47.248   3.188   5.289  0.00  0.00    +0.000 N 
ATOM     27  O   UNL     1      47.950   1.391   6.439  0.00  0.00    +0.000 OA
ATOM     28  H   UNL     1      46.712   4.030   5.151  0.00  0.00    +0.000 HD
ATOM     29  H   UNL     1      47.837   2.881   4.522  0.00  0.00    +0.000 HD
ENDBRANCH  21  25
ENDBRANCH  16  17
ENDBRANCH   1  16
TORSDOF 7
ENDMDL
MODEL 4
REMARK VINA RESULT:    -6.851      3.367      8.601
REMARK INTER + INTRA:         -10.181
REMARK INTER:                  -9.569
REMARK INTRA:                  -0.612
REMARK UNBOUND:                -0.727
REMARK  Name = 
REMARK  8 active torsions:
REMARK  status: ('A' for Active; 'I' for Inactive)
REMARK    1  A    between atoms: C_1  and  C_2
REMARK    2  A    between atoms: C_2  and  O_3
REMARK    3  A    between atoms: C_5  and  O_6
REMARK    4  A    between atoms: O_6  and  C_7
REMARK    5  A    between atoms: C_11  and  C_12
REMARK    6  A    between atoms: C_12  and  C_13
REMARK    7  A    between atoms: C_13  and  N_14
REMARK    8  A    between atoms: C_18  and  C_19
REMARK                            x       y       z     vdW  Elec       q    Type
REMARK                         _______ _______ _______ _____ _____    ______ ____
ROOT
ATOM      1  C   UNL     1      46.203   6.839  12.948  0.00  0.00    +0.000 C 
ENDROOT
BRANCH   1   6
ATOM      2  C   UNL     1      44.536   4.181  10.723  0.00  0.00    +0.000 A 
ATOM      3  C   UNL     1      43.283   4.076  11.314  0.00  0.00    +0.000 A 
ATOM      4  C   UNL     1      42.954   4.899  12.393  0.00  0.00    +0.000 A 
ATOM      5  C   UNL     1      43.888   5.810  12.902  0.00  0.00    +0.000 A 
ATOM      6  C   UNL     1      45.170   5.900  12.342  0.00  0.00    +0.000 A 
ATOM      7  C   UNL     1      45.466   5.080  11.240  0.00  0.00    +0.000 A 
BRANCH   2   8
ATOM      8  O   UNL     1      44.805   3.355   9.659  0.00  0.00    +0.000 OA
BRANCH   8  12
ATOM      9  C   UNL     1      46.899   2.886   5.698  0.00  0.00    +0.000 C 
ATOM     10  C   UNL     1      46.301   2.875   7.095  0.00  0.00    +0.000 C 
ATOM     11  C   UNL     1      44.757   3.028   7.127  0.00  0.00    +0.000 C 
ATOM     12  C   UNL     1      44.930   3.967   8.349  0.00  0.00    +0.000 C 
ATOM     13  C   UNL     1      46.375   4.220   7.862  0.00  0.00    +0.000 C 
BRANCH  10  14
ATOM     14  O   UNL     1      46.836   1.747   7.821  0.00  0.00    +0.000 OA
ATOM     15  H   UNL     1      46.357   1.733   8.668  0.00  0.00    +0.000 HD
ENDBRANCH  10  14
ENDBRANCH   8  12
ENDBRANCH   2   8
ENDBRANCH   1   6
BRANCH   1  16
ATOM     16  C   UNL     1      47.312   6.111  13.718  0.00  0.00    +0.000 C 
BRANCH  16  17
ATOM     17  N   UNL     1      46.819   5.040  14.585  0.00  0.00    +0.000 N 
ATOM     18  C   UNL     1      47.645   4.898  15.726  0.00  0.00    +0.000 A 
ATOM     19  C   UNL     1      47.337   3.912  16.656  0.00  0.00    +0.000 A 
ATOM     20  C   UNL     1      48.143   3.762  17.789  0.00  0.00    +0.000 A 
ATOM     21  C   UNL     1      49.246   4.597  17.975  0.00  0.00    +0.000 A 
ATOM     22  C   UNL     1      49.472   5.559  17.009  0.00  0.00    +0.000 A 
ATOM     23  N   UNL     1      48.697   5.725  15.909  0.00  0.00    +0.000 NA
ATOM     24  H   UNL     1      46.788   4.143  14.104  0.00  0.00    +0.000 HD
BRANCH  21  25
ATOM     25  C   UNL     1      50.106   4.421  19.169  0.00  0.00    +0.000 C 
ATOM     26  N   UNL     1      51.353   3.875  19.018  0.00  0.00    +0.000 N 
ATOM     27  O   UNL     1      49.716   4.750  20.282  0.00  0.00    +0.000 OA
ATOM     28  H   UNL     1      51.772   3.562  18.156  0.00  0.00    +0.000 HD
ATOM     29  H   UNL     1      51.901   3.769  19.866  0.00  0.00    +0.000 HD
ENDBRANCH  21  25
ENDBRANCH  16  17
ENDBRANCH   1  16
TORSDOF 7
ENDMDL
MODEL 5
REMARK VINA RESULT:    -6.813      2.256      3.054
REMARK INTER + INTRA:         -10.129
REMARK INTER:                  -9.367
REMARK INTRA:                  -0.762
REMARK UNBOUND:                -0.727
REMARK  Name = 
REMARK  8 active torsions:
REMARK  status: ('A' for Active; 'I' for Inactive)
REMARK    1  A    between atoms: C_1  and  C_2
REMARK    2  A    between atoms: C_2  and  O_3
REMARK    3  A    between atoms: C_5  and  O_6
REMARK    4  A    between atoms: O_6  and  C_7
REMARK    5  A    between atoms: C_11  and  C_12
REMARK    6  A    between atoms: C_12  and  C_13
REMARK    7  A    between atoms: C_13  and  N_14
REMARK    8  A    between atoms: C_18  and  C_19
REMARK                            x       y       z     vdW  Elec       q    Type
REMARK                         _______ _______ _______ _____ _____    ______ ____
ROOT
ATOM      1  C   UNL     1      44.386   6.144  12.243  0.00  0.00    +0.000 C 
ENDROOT
BRANCH   1   6
ATOM      2  C   UNL     1      47.666   8.124  12.581  0.00  0.00    +0.000 A 
ATOM      3  C   UNL     1      47.240   9.413  12.284  0.00  0.00    +0.000 A 
ATOM      4  C   UNL     1      45.888   9.655  12.030  0.00  0.00    +0.000 A 
ATOM      5  C   UNL     1      44.964   8.602  12.043  0.00  0.00    +0.000 A 
ATOM      6  C   UNL     1      45.384   7.291  12.303  0.00  0.00    +0.000 A 
ATOM      7  C   UNL     1      46.745   7.079  12.583  0.00  0.00    +0.000 A 
BRANCH   2   8
ATOM      8  O   UNL     1      49.004   7.943  12.834  0.00  0.00    +0.000 OA
BRANCH   8  12
ATOM      9  C   UNL     1      49.700   6.914  17.165  0.00  0.00    +0.000 C 
ATOM     10  C   UNL     1      49.378   7.071  15.688  0.00  0.00    +0.000 C 
ATOM     11  C   UNL     1      50.557   7.605  14.833  0.00  0.00    +0.000 C 
ATOM     12  C   UNL     1      49.534   8.487  14.071  0.00  0.00    +0.000 C 
ATOM     13  C   UNL     1      48.613   8.365  15.306  0.00  0.00    +0.000 C 
BRANCH  10  14
ATOM     14  O   UNL     1      48.759   5.855  15.215  0.00  0.00    +0.000 OA
ATOM     15  H   UNL     1      48.521   5.356  16.016  0.00  0.00    +0.000 HD
ENDBRANCH  10  14
ENDBRANCH   8  12
ENDBRANCH   2   8
ENDBRANCH   1   6
BRANCH   1  16
ATOM     16  C   UNL     1      44.130   5.632  10.820  0.00  0.00    +0.000 C 
BRANCH  16  17
ATOM     17  N   UNL     1      44.197   4.175  10.699  0.00  0.00    +0.000 N 
ATOM     18  C   UNL     1      44.981   3.801   9.580  0.00  0.00    +0.000 A 
ATOM     19  C   UNL     1      45.141   2.449   9.298  0.00  0.00    +0.000 A 
ATOM     20  C   UNL     1      45.914   2.065   8.199  0.00  0.00    +0.000 A 
ATOM     21  C   UNL     1      46.514   3.036   7.395  0.00  0.00    +0.000 A 
ATOM     22  C   UNL     1      46.315   4.355   7.754  0.00  0.00    +0.000 A 
ATOM     23  N   UNL     1      45.575   4.747   8.821  0.00  0.00    +0.000 NA
ATOM     24  H   UNL     1      43.275   3.758  10.592  0.00  0.00    +0.000 HD
BRANCH  21  25
ATOM     25  C   UNL     1      47.317   2.622   6.220  0.00  0.00    +0.000 C 
ATOM     26  N   UNL     1      48.551   2.060   6.419  0.00  0.00    +0.000 N 
ATOM     27  O   UNL     1      46.897   2.783   5.081  0.00  0.00    +0.000 OA
ATOM     28  H   UNL     1      48.998   1.890   7.306  0.00  0.00    +0.000 HD
ATOM     29  H   UNL     1      49.063   1.800   5.583  0.00  0.00    +0.000 HD
ENDBRANCH  21  25
ENDBRANCH  16  17
ENDBRANCH   1  16
TORSDOF 7
ENDMDL
MODEL 6
REMARK VINA RESULT:    -6.713      4.833      7.493
REMARK INTER + INTRA:          -9.991
REMARK INTER:                  -9.094
REMARK INTRA:                  -0.897
REMARK UNBOUND:                -0.727
REMARK  Name = 
REMARK  8 active torsions:
REMARK  status: ('A' for Active; 'I' for Inactive)
REMARK    1  A    between atoms: C_1  and  C_2
REMARK    2  A    between atoms: C_2  and  O_3
REMARK    3  A    between atoms: C_5  and  O_6
REMARK    4  A    between atoms: O_6  and  C_7
REMARK    5  A    between atoms: C_11  and  C_12
REMARK    6  A    between atoms: C_12  and  C_13
REMARK    7  A    between atoms: C_13  and  N_14
REMARK    8  A    between atoms: C_18  and  C_19
REMARK                            x       y       z     vdW  Elec       q    Type
REMARK                         _______ _______ _______ _____ _____    ______ ____
ROOT
ATOM      1  C   UNL     1      45.756   8.790  13.209  0.00  0.00    +0.000 C 
ENDROOT
BRANCH   1   6
ATOM      2  C   UNL     1      43.922  10.631  10.374  0.00  0.00    +0.000 A 
ATOM      3  C   UNL     1      44.854  11.602  10.030  0.00  0.00    +0.000 A 
ATOM      4  C   UNL     1      46.095  11.631  10.671  0.00  0.00    +0.000 A 
ATOM      5  C   UNL     1      46.394  10.705  11.678  0.00  0.00    +0.000 A 
ATOM      6  C   UNL     1      45.450   9.743  12.063  0.00  0.00    +0.000 A 
ATOM      7  C   UNL     1      44.221   9.719  11.383  0.00  0.00    +0.000 A 
BRANCH   2   8
ATOM      8  O   UNL     1      42.722  10.641   9.705  0.00  0.00    +0.000 OA
BRANCH   8  12
ATOM      9  C   UNL     1      38.935  10.944  12.126  0.00  0.00    +0.000 C 
ATOM     10  C   UNL     1      40.207  10.637  11.353  0.00  0.00    +0.000 C 
ATOM     11  C   UNL     1      41.386  11.597  11.660  0.00  0.00    +0.000 C 
ATOM     12  C   UNL     1      41.715  11.589  10.145  0.00  0.00    +0.000 C 
ATOM     13  C   UNL     1      40.248  11.171   9.898  0.00  0.00    +0.000 C 
BRANCH  10  14
ATOM     14  O   UNL     1      40.496   9.227  11.475  0.00  0.00    +0.000 OA
ATOM     15  H   UNL     1      41.006   9.136  12.299  0.00  0.00    +0.000 HD
ENDBRANCH  10  14
ENDBRANCH   8  12
ENDBRANCH   2   8
ENDBRANCH   1   6
BRANCH   1  16
ATOM     16  C   UNL     1      46.701   7.647  12.816  0.00  0.00    +0.000 C 
BRANCH  16  17
ATOM     17  N   UNL     1      46.286   6.340  13.326  0.00  0.00    +0.000 N 
ATOM     18  C   UNL     1      45.859   5.502  12.267  0.00  0.00    +0.000 A 
ATOM     19  C   UNL     1      45.410   4.221  12.568  0.00  0.00    +0.000 A 
ATOM     20  C   UNL     1      44.988   3.381  11.533  0.00  0.00    +0.000 A 
ATOM     21  C   UNL     1      45.018   3.833  10.213  0.00  0.00    +0.000 A 
ATOM     22  C   UNL     1      45.490   5.114  10.001  0.00  0.00    +0.000 A 
ATOM     23  N   UNL     1      45.912   5.940  10.991  0.00  0.00    +0.000 NA
ATOM     24  H   UNL     1      45.523   6.416  13.996  0.00  0.00    +0.000 HD
BRANCH  21  25
ATOM     25  C   UNL     1      44.552   2.944   9.122  0.00  0.00    +0.000 C 
ATOM     26  N   UNL     1      44.324   3.475   7.880  0.00  0.00    +0.000 N 
ATOM     27  O   UNL     1      44.362   1.751   9.319  0.00  0.00    +0.000 OA
ATOM     28  H   UNL     1      44.437   4.439   7.609  0.00  0.00    +0.000 HD
ATOM     29  H   UNL     1      43.999   2.827   7.170  0.00  0.00    +0.000 HD
ENDBRANCH  21  25
ENDBRANCH  16  17
ENDBRANCH   1  16
TORSDOF 7
ENDMDL
MODEL 7
REMARK VINA RESULT:    -6.490      4.313      7.792
REMARK INTER + INTRA:          -9.682
REMARK INTER:                  -8.642
REMARK INTRA:                  -1.040
REMARK UNBOUND:                -0.727
REMARK  Name = 
REMARK  8 active torsions:
REMARK  status: ('A' for Active; 'I' for Inactive)
REMARK    1  A    between atoms: C_1  and  C_2
REMARK    2  A    between atoms: C_2  and  O_3
REMARK    3  A    between atoms: C_5  and  O_6
REMARK    4  A    between atoms: O_6  and  C_7
REMARK    5  A    between atoms: C_11  and  C_12
REMARK    6  A    between atoms: C_12  and  C_13
REMARK    7  A    between atoms: C_13  and  N_14
REMARK    8  A    between atoms: C_18  and  C_19
REMARK                            x       y       z     vdW  Elec       q    Type
REMARK                         _______ _______ _______ _____ _____    ______ ____
ROOT
ATOM      1  C   UNL     1      49.315   9.365  13.631  0.00  0.00    +0.000 C 
ENDROOT
BRANCH   1   6
ATOM      2  C   UNL     1      45.748   8.630  12.395  0.00  0.00    +0.000 A 
ATOM      3  C   UNL     1      45.401   9.848  11.823  0.00  0.00    +0.000 A 
ATOM      4  C   UNL     1      46.332  10.887  11.784  0.00  0.00    +0.000 A 
ATOM      5  C   UNL     1      47.605  10.720  12.344  0.00  0.00    +0.000 A 
ATOM      6  C   UNL     1      47.958   9.512  12.960  0.00  0.00    +0.000 A 
ATOM      7  C   UNL     1      47.011   8.473  12.960  0.00  0.00    +0.000 A 
BRANCH   2   8
ATOM      8  O   UNL     1      44.798   7.638  12.397  0.00  0.00    +0.000 OA
BRANCH   8  12
ATOM      9  C   UNL     1      43.558   3.312  12.608  0.00  0.00    +0.000 C 
ATOM     10  C   UNL     1      43.803   4.811  12.649  0.00  0.00    +0.000 C 
ATOM     11  C   UNL     1      44.163   5.434  11.274  0.00  0.00    +0.000 C 
ATOM     12  C   UNL     1      45.217   6.305  12.006  0.00  0.00    +0.000 C 
ATOM     13  C   UNL     1      45.212   5.244  13.130  0.00  0.00    +0.000 C 
BRANCH  10  14
ATOM     14  O   UNL     1      42.715   5.442  13.358  0.00  0.00    +0.000 OA
ATOM     15  H   UNL     1      42.273   4.726  13.847  0.00  0.00    +0.000 HD
ENDBRANCH  10  14
ENDBRANCH   8  12
ENDBRANCH   2   8
ENDBRANCH   1   6
BRANCH   1  16
ATOM     16  C   UNL     1      49.811   7.915  13.694  0.00  0.00    +0.000 C 
BRANCH  16  17
ATOM     17  N   UNL     1      50.488   7.580  14.947  0.00  0.00    +0.000 N 
ATOM     18  C   UNL     1      49.779   6.572  15.645  0.00  0.00    +0.000 A 
ATOM     19  C   UNL     1      50.267   6.138  16.872  0.00  0.00    +0.000 A 
ATOM     20  C   UNL     1      49.579   5.143  17.572  0.00  0.00    +0.000 A 
ATOM     21  C   UNL     1      48.411   4.596  17.037  0.00  0.00    +0.000 A 
ATOM     22  C   UNL     1      48.002   5.075  15.807  0.00  0.00    +0.000 A 
ATOM     23  N   UNL     1      48.661   6.034  15.110  0.00  0.00    +0.000 NA
ATOM     24  H   UNL     1      50.577   8.386  15.561  0.00  0.00    +0.000 HD
BRANCH  21  25
ATOM     25  C   UNL     1      47.676   3.554  17.793  0.00  0.00    +0.000 C 
ATOM     26  N   UNL     1      48.188   3.104  18.980  0.00  0.00    +0.000 N 
ATOM     27  O   UNL     1      46.626   3.090  17.367  0.00  0.00    +0.000 OA
ATOM     28  H   UNL     1      49.044   3.406  19.419  0.00  0.00    +0.000 HD
ATOM     29  H   UNL     1      47.651   2.386  19.455  0.00  0.00    +0.000 HD
ENDBRANCH  21  25
ENDBRANCH  16  17
ENDBRANCH   1  16
TORSDOF 7
ENDMDL
MODEL 8
REMARK VINA RESULT:    -6.404      3.827      5.856
REMARK INTER + INTRA:          -9.563
REMARK INTER:                  -8.924
REMARK INTRA:                  -0.640
REMARK UNBOUND:                -0.727
REMARK  Name = 
REMARK  8 active torsions:
REMARK  status: ('A' for Active; 'I' for Inactive)
REMARK    1  A    between atoms: C_1  and  C_2
REMARK    2  A    between atoms: C_2  and  O_3
REMARK    3  A    between atoms: C_5  and  O_6
REMARK    4  A    between atoms: O_6  and  C_7
REMARK    5  A    between atoms: C_11  and  C_12
REMARK    6  A    between atoms: C_12  and  C_13
REMARK    7  A    between atoms: C_13  and  N_14
REMARK    8  A    between atoms: C_18  and  C_19
REMARK                            x       y       z     vdW  Elec       q    Type
REMARK                         _______ _______ _______ _____ _____    ______ ____
ROOT
ATOM      1  C   UNL     1      47.576   4.559  17.061  0.00  0.00    +0.000 C 
ENDROOT
BRANCH   1   6
ATOM      2  C   UNL     1      51.056   3.023  17.627  0.00  0.00    +0.000 A 
ATOM      3  C   UNL     1      51.868   4.149  17.551  0.00  0.00    +0.000 A 
ATOM      4  C   UNL     1      51.291   5.409  17.374  0.00  0.00    +0.000 A 
ATOM      5  C   UNL     1      49.903   5.542  17.243  0.00  0.00    +0.000 A 
ATOM      6  C   UNL     1      49.075   4.412  17.278  0.00  0.00    +0.000 A 
ATOM      7  C   UNL     1      49.677   3.160  17.485  0.00  0.00    +0.000 A 
BRANCH   2   8
ATOM      8  O   UNL     1      51.673   1.810  17.813  0.00  0.00    +0.000 OA
BRANCH   8  12
ATOM      9  C   UNL     1      55.223  -0.922  18.296  0.00  0.00    +0.000 C 
ATOM     10  C   UNL     1      53.913  -0.155  18.219  0.00  0.00    +0.000 C 
ATOM     11  C   UNL     1      53.641   0.505  16.842  0.00  0.00    +0.000 C 
ATOM     12  C   UNL     1      53.108   1.746  17.602  0.00  0.00    +0.000 C 
ATOM     13  C   UNL     1      53.943   1.276  18.815  0.00  0.00    +0.000 C 
BRANCH  10  14
ATOM     14  O   UNL     1      52.854  -0.990  18.736  0.00  0.00    +0.000 OA
ATOM     15  H   UNL     1      53.267  -1.852  18.917  0.00  0.00    +0.000 HD
ENDBRANCH  10  14
ENDBRANCH   8  12
ENDBRANCH   2   8
ENDBRANCH   1   6
BRANCH   1  16
ATOM     16  C   UNL     1      47.124   4.176  15.646  0.00  0.00    +0.000 C 
BRANCH  16  17
ATOM     17  N   UNL     1      46.999   5.318  14.740  0.00  0.00    +0.000 N 
ATOM     18  C   UNL     1      46.342   4.939  13.544  0.00  0.00    +0.000 A 
ATOM     19  C   UNL     1      46.149   5.897  12.555  0.00  0.00    +0.000 A 
ATOM     20  C   UNL     1      45.500   5.538  11.370  0.00  0.00    +0.000 A 
ATOM     21  C   UNL     1      45.054   4.228  11.189  0.00  0.00    +0.000 A 
ATOM     22  C   UNL     1      45.274   3.343  12.227  0.00  0.00    +0.000 A 
ATOM     23  N   UNL     1      45.894   3.674  13.387  0.00  0.00    +0.000 NA
ATOM     24  H   UNL     1      47.905   5.710  14.492  0.00  0.00    +0.000 HD
BRANCH  21  25
ATOM     25  C   UNL     1      44.383   3.849   9.923  0.00  0.00    +0.000 C 
ATOM     26  N   UNL     1      44.559   4.633   8.814  0.00  0.00    +0.000 N 
ATOM     27  O   UNL     1      43.671   2.855   9.860  0.00  0.00    +0.000 OA
ATOM     28  H   UNL     1      45.111   5.474   8.753  0.00  0.00    +0.000 HD
ATOM     29  H   UNL     1      44.073   4.335   7.974  0.00  0.00    +0.000 HD
ENDBRANCH  21  25
ENDBRANCH  16  17
ENDBRANCH   1  16
TORSDOF 7
ENDMDL
MODEL 9
REMARK VINA RESULT:    -6.403      4.757      7.860
REMARK INTER + INTRA:          -9.562
REMARK INTER:                  -8.297
REMARK INTRA:                  -1.265
REMARK UNBOUND:                -0.727
REMARK  Name = 
REMARK  8 active torsions:
REMARK  status: ('A' for Active; 'I' for Inactive)
REMARK    1  A    between atoms: C_1  and  C_2
REMARK    2  A    between atoms: C_2  and  O_3
REMARK    3  A    between atoms: C_5  and  O_6
REMARK    4  A    between atoms: O_6  and  C_7
REMARK    5  A    between atoms: C_11  and  C_12
REMARK    6  A    between atoms: C_12  and  C_13
REMARK    7  A    between atoms: C_13  and  N_14
REMARK    8  A    between atoms: C_18  and  C_19
REMARK                            x       y       z     vdW  Elec       q    Type
REMARK                         _______ _______ _______ _____ _____    ______ ____
ROOT
ATOM      1  C   UNL     1      48.305   9.434  16.670  0.00  0.00    +0.000 C 
ENDROOT
BRANCH   1   6
ATOM      2  C   UNL     1      47.630   7.823  13.244  0.00  0.00    +0.000 A 
ATOM      3  C   UNL     1      48.916   7.742  12.721  0.00  0.00    +0.000 A 
ATOM      4  C   UNL     1      50.005   8.154  13.492  0.00  0.00    +0.000 A 
ATOM      5  C   UNL     1      49.808   8.675  14.778  0.00  0.00    +0.000 A 
ATOM      6  C   UNL     1      48.515   8.799  15.303  0.00  0.00    +0.000 A 
ATOM      7  C   UNL     1      47.439   8.352  14.518  0.00  0.00    +0.000 A 
BRANCH   2   8
ATOM      8  O   UNL     1      46.596   7.395  12.448  0.00  0.00    +0.000 OA
BRANCH   8  12
ATOM      9  C   UNL     1      43.803   3.869  12.688  0.00  0.00    +0.000 C 
ATOM     10  C   UNL     1      44.591   5.168  12.696  0.00  0.00    +0.000 C 
ATOM     11  C   UNL     1      45.279   5.505  11.347  0.00  0.00    +0.000 C 
ATOM     12  C   UNL     1      46.514   5.976  12.157  0.00  0.00    +0.000 C 
ATOM     13  C   UNL     1      46.010   5.083  13.314  0.00  0.00    +0.000 C 
BRANCH  10  14
ATOM     14  O   UNL     1      43.762   6.211  13.256  0.00  0.00    +0.000 OA
ATOM     15  H   UNL     1      42.863   5.842  13.284  0.00  0.00    +0.000 HD
ENDBRANCH  10  14
ENDBRANCH   8  12
ENDBRANCH   2   8
ENDBRANCH   1   6
BRANCH   1  16
ATOM     16  C   UNL     1      48.675   8.509  17.836  0.00  0.00    +0.000 C 
BRANCH  16  17
ATOM     17  N   UNL     1      47.707   7.435  18.063  0.00  0.00    +0.000 N 
ATOM     18  C   UNL     1      48.297   6.171  17.819  0.00  0.00    +0.000 A 
ATOM     19  C   UNL     1      47.517   5.029  17.968  0.00  0.00    +0.000 A 
ATOM     20  C   UNL     1      48.086   3.774  17.732  0.00  0.00    +0.000 A 
ATOM     21  C   UNL     1      49.424   3.677  17.349  0.00  0.00    +0.000 A 
ATOM     22  C   UNL     1      50.130   4.859  17.237  0.00  0.00    +0.000 A 
ATOM     23  N   UNL     1      49.599   6.085  17.469  0.00  0.00    +0.000 NA
ATOM     24  H   UNL     1      46.890   7.524  17.463  0.00  0.00    +0.000 HD
BRANCH  21  25
ATOM     25  C   UNL     1      50.016   2.344  17.083  0.00  0.00    +0.000 C 
ATOM     26  N   UNL     1      51.037   1.896  17.879  0.00  0.00    +0.000 N 
ATOM     27  O   UNL     1      49.611   1.647  16.161  0.00  0.00    +0.000 OA
ATOM     28  H   UNL     1      51.454   2.386  18.655  0.00  0.00    +0.000 HD
ATOM     29  H   UNL     1      51.412   0.982  17.651  0.00  0.00    +0.000 HD
ENDBRANCH  21  25
ENDBRANCH  16  17
ENDBRANCH   1  16
TORSDOF 7
ENDMDL
