MODEL 1
REMARK VINA RESULT:    -8.343      0.000      0.000
REMARK INTER + INTRA:         -12.108
REMARK INTER:                 -11.270
REMARK INTRA:                  -0.838
REMARK UNBOUND:                -0.838
REMARK  Name = 
REMARK  6 active torsions:
REMARK  status: ('A' for Active; 'I' for Inactive)
REMARK    1  A    between atoms: C_2  and  C_4
REMARK    2  A    between atoms: C_7  and  C_8
REMARK    3  A    between atoms: C_8  and  O_9
REMARK    4  A    between atoms: O_9  and  C_10
REMARK    5  A    between atoms: C_14  and  N_15
REMARK    6  A    between atoms: N_15  and  C_16
REMARK                            x       y       z     vdW  Elec       q    Type
REMARK                         _______ _______ _______ _____ _____    ______ ____
ROOT
ATOM      1  O   UNL     1      43.997   4.233  11.644  0.00  0.00    +0.000 OA
ENDROOT
BRANCH   1   2
ATOM      2  C   UNL     1      45.076   4.812  12.257  0.00  0.00    +0.000 A 
ATOM      3  C   UNL     1      45.699   5.997  11.861  0.00  0.00    +0.000 A 
ATOM      4  C   UNL     1      46.815   6.467  12.556  0.00  0.00    +0.000 A 
ATOM      5  C   UNL     1      47.322   5.753  13.643  0.00  0.00    +0.000 A 
ATOM      6  C   UNL     1      46.700   4.578  14.065  0.00  0.00    +0.000 A 
ATOM      7  C   UNL     1      45.572   4.121  13.365  0.00  0.00    +0.000 A 
BRANCH   6   8
ATOM      8  N   UNL     1      47.179   3.807  15.146  0.00  0.00    +0.000 N 
ATOM      9  H   UNL     1      46.951   2.825  15.003  0.00  0.00    +0.000 HD
BRANCH   8  10
ATOM     10  C   UNL     1      47.195   4.201  16.522  0.00  0.00    +0.000 C 
ATOM     11  C   UNL     1      48.611   4.606  16.992  0.00  0.00    +0.000 C 
ATOM     12  C   UNL     1      48.457   3.649  18.185  0.00  0.00    +0.000 C 
ATOM     13  C   UNL     1      47.285   2.974  17.456  0.00  0.00    +0.000 C 
ENDBRANCH   8  10
ENDBRANCH   6   8
ENDBRANCH   1   2
BRANCH   1  14
ATOM     14  C   UNL     1      43.758   4.617  10.288  0.00  0.00    +0.000 C 
BRANCH  14  18
ATOM     15  C   UNL     1      46.440   2.448   7.680  0.00  0.00    +0.000 A 
ATOM     16  C   UNL     1      46.410   3.847   7.632  0.00  0.00    +0.000 A 
ATOM     17  C   UNL     1      45.531   4.555   8.457  0.00  0.00    +0.000 A 
ATOM     18  C   UNL     1      44.664   3.879   9.326  0.00  0.00    +0.000 A 
ATOM     19  C   UNL     1      44.696   2.475   9.357  0.00  0.00    +0.000 A 
ATOM     20  C   UNL     1      45.570   1.762   8.534  0.00  0.00    +0.000 A 
BRANCH  15  22
ATOM     21  N   UNL     1      48.404   2.339   6.247  0.00  0.00    +0.000 N 
ATOM     22  C   UNL     1      47.378   1.655   6.845  0.00  0.00    +0.000 C 
ATOM     23  O   UNL     1      47.276   0.441   6.732  0.00  0.00    +0.000 OA
ATOM     24  H   UNL     1      49.103   1.774   5.786  0.00  0.00    +0.000 HD
ATOM     25  H   UNL     1      48.665   3.270   6.534  0.00  0.00    +0.000 HD
ENDBRANCH  15  22
ENDBRANCH  14  18
ENDBRANCH   1  14
TORSDOF 6
ENDMDL
MODEL 2
REMARK VINA RESULT:    -7.922      1.863      3.158
REMARK INTER + INTRA:         -11.540
REMARK INTER:                 -10.804
REMARK INTRA:                  -0.736
REMARK UNBOUND:                -0.838
REMARK  Name = 
REMARK  6 active torsions:
REMARK  status: ('A' for Active; 'I' for Inactive)
REMARK    1  A    between atoms: C_2  and  C_4
REMARK    2  A    between atoms: C_7  and  C_8
REMARK    3  A    between atoms: C_8  and  O_9
REMARK    4  A    between atoms: O_9  and  C_10
REMARK    5  A    between atoms: C_14  and  N_15
REMARK    6  A    between atoms: N_15  and  C_16
REMARK                            x       y       z     vdW  Elec       q    Type
REMARK                         _______ _______ _______ _____ _____    ______ ____
ROOT
ATOM      1  O   UNL     1      43.771   4.047  11.594  0.00  0.00    +0.000 OA
ENDROOT
BRANCH   1   2
ATOM      2  C   UNL     1      44.901   4.258  12.338  0.00  0.00    +0.000 A 
ATOM      3  C   UNL     1      45.712   3.264  12.889  0.00  0.00    +0.000 A 
ATOM      4  C   UNL     1      46.824   3.614  13.656  0.00  0.00    +0.000 A 
ATOM      5  C   UNL     1      47.128   4.956  13.888  0.00  0.00    +0.000 A 
ATOM      6  C   UNL     1      46.341   5.963  13.329  0.00  0.00    +0.000 A 
ATOM      7  C   UNL     1      45.231   5.599  12.549  0.00  0.00    +0.000 A 
BRANCH   6   8
ATOM      8  N   UNL     1      46.591   7.335  13.543  0.00  0.00    +0.000 N 
ATOM      9  H   UNL     1      45.775   7.886  13.279  0.00  0.00    +0.000 HD
BRANCH   8  10
ATOM     10  C   UNL     1      47.835   8.010  13.330  0.00  0.00    +0.000 C 
ATOM     11  C   UNL     1      47.761   9.003  12.147  0.00  0.00    +0.000 C 
ATOM     12  C   UNL     1      49.025   8.355  11.561  0.00  0.00    +0.000 C 
ATOM     13  C   UNL     1      48.802   7.150  12.487  0.00  0.00    +0.000 C 
ENDBRANCH   8  10
ENDBRANCH   6   8
ENDBRANCH   1   2
BRANCH   1  14
ATOM     14  C   UNL     1      43.754   4.632  10.290  0.00  0.00    +0.000 C 
BRANCH  14  18
ATOM     15  C   UNL     1      46.485   2.499   7.704  0.00  0.00    +0.000 A 
ATOM     16  C   UNL     1      46.447   3.898   7.665  0.00  0.00    +0.000 A 
ATOM     17  C   UNL     1      45.552   4.595   8.483  0.00  0.00    +0.000 A 
ATOM     18  C   UNL     1      44.678   3.908   9.335  0.00  0.00    +0.000 A 
ATOM     19  C   UNL     1      44.719   2.503   9.358  0.00  0.00    +0.000 A 
ATOM     20  C   UNL     1      45.608   1.802   8.542  0.00  0.00    +0.000 A 
BRANCH  15  22
ATOM     21  N   UNL     1      48.519   2.396   6.371  0.00  0.00    +0.000 N 
ATOM     22  C   UNL     1      47.440   1.718   6.877  0.00  0.00    +0.000 C 
ATOM     23  O   UNL     1      47.304   0.517   6.692  0.00  0.00    +0.000 OA
ATOM     24  H   UNL     1      49.222   1.830   5.916  0.00  0.00    +0.000 HD
ATOM     25  H   UNL     1      48.795   3.300   6.721  0.00  0.00    +0.000 HD
ENDBRANCH  15  22
ENDBRANCH  14  18
ENDBRANCH   1  14
TORSDOF 6
ENDMDL
MODEL 3
REMARK VINA RESULT:    -7.513      2.862      4.823
REMARK INTER + INTRA:         -10.987
REMARK INTER:                 -10.160
REMARK INTRA:                  -0.826
REMARK UNBOUND:                -0.838
REMARK  Name = 
REMARK  6 active torsions:
REMARK  status: ('A' for Active; 'I' for Inactive)
REMARK    1  A    between atoms: C_2  and  C_4
REMARK    2  A    between atoms: C_7  and  C_8
REMARK    3  A    between atoms: C_8  and  O_9
REMARK    4  A    between atoms: O_9  and  C_10
REMARK    5  A    between atoms: C_14  and  N_15
REMARK    6  A    between atoms: N_15  and  C_16
REMARK                            x       y       z     vdW  Elec       q    Type
REMARK                         _______ _______ _______ _____ _____    ______ ____
ROOT
ATOM      1  O   UNL     1      44.238   4.116  11.726  0.00  0.00    +0.000 OA
ENDROOT
BRANCH   1   2
ATOM      2  C   UNL     1      44.945   5.264  11.969  0.00  0.00    +0.000 A 
ATOM      3  C   UNL     1      46.160   5.344  12.652  0.00  0.00    +0.000 A 
ATOM      4  C   UNL     1      46.766   6.584  12.860  0.00  0.00    +0.000 A 
ATOM      5  C   UNL     1      46.159   7.753  12.397  0.00  0.00    +0.000 A 
ATOM      6  C   UNL     1      44.955   7.690  11.695  0.00  0.00    +0.000 A 
ATOM      7  C   UNL     1      44.361   6.436  11.482  0.00  0.00    +0.000 A 
BRANCH   6   8
ATOM      8  N   UNL     1      44.288   8.839  11.220  0.00  0.00    +0.000 N 
ATOM      9  H   UNL     1      44.315   8.864  10.202  0.00  0.00    +0.000 HD
BRANCH   8  10
ATOM     10  C   UNL     1      44.301  10.135  11.829  0.00  0.00    +0.000 C 
ATOM     11  C   UNL     1      43.101  10.999  11.378  0.00  0.00    +0.000 C 
ATOM     12  C   UNL     1      44.083  12.128  11.027  0.00  0.00    +0.000 C 
ATOM     13  C   UNL     1      45.228  11.105  11.064  0.00  0.00    +0.000 C 
ENDBRANCH   8  10
ENDBRANCH   6   8
ENDBRANCH   1   2
BRANCH   1  14
ATOM     14  C   UNL     1      43.628   4.010  10.438  0.00  0.00    +0.000 C 
BRANCH  14  18
ATOM     15  C   UNL     1      46.545   2.621   7.565  0.00  0.00    +0.000 A 
ATOM     16  C   UNL     1      46.232   3.984   7.628  0.00  0.00    +0.000 A 
ATOM     17  C   UNL     1      45.275   4.439   8.540  0.00  0.00    +0.000 A 
ATOM     18  C   UNL     1      44.610   3.542   9.386  0.00  0.00    +0.000 A 
ATOM     19  C   UNL     1      44.925   2.175   9.306  0.00  0.00    +0.000 A 
ATOM     20  C   UNL     1      45.878   1.715   8.396  0.00  0.00    +0.000 A 
BRANCH  15  22
ATOM     21  N   UNL     1      47.906   2.889   5.565  0.00  0.00    +0.000 N 
ATOM     22  C   UNL     1      47.576   2.096   6.634  0.00  0.00    +0.000 C 
ATOM     23  O   UNL     1      48.144   1.032   6.831  0.00  0.00    +0.000 OA
ATOM     24  H   UNL     1      48.693   2.580   5.012  0.00  0.00    +0.000 HD
ATOM     25  H   UNL     1      47.658   3.866   5.527  0.00  0.00    +0.000 HD
ENDBRANCH  15  22
ENDBRANCH  14  18
ENDBRANCH   1  14
TORSDOF 6
ENDMDL
MODEL 4
REMARK VINA RESULT:    -7.495      1.979      2.587
REMARK INTER + INTRA:         -10.962
REMARK INTER:                 -10.147
REMARK INTRA:                  -0.815
REMARK UNBOUND:                -0.838
REMARK  Name = 
REMARK  6 active torsions:
REMARK  status: ('A' for Active; 'I' for Inactive)
REMARK    1  A    between atoms: C_2  and  C_4
REMARK    2  A    between atoms: C_7  and  C_8
REMARK    3  A    between atoms: C_8  and  O_9
REMARK    4  A    between atoms: O_9  and  C_10
REMARK    5  A    between atoms: C_14  and  N_15
REMARK    6  A    between atoms: N_15  and  C_16
REMARK                            x       y       z     vdW  Elec       q    Type
REMARK                         _______ _______ _______ _____ _____    ______ ____
ROOT
ATOM      1  O   UNL     1      44.218   3.934  11.803  0.00  0.00    +0.000 OA
ENDROOT
BRANCH   1   2
ATOM      2  C   UNL     1      44.727   5.174  12.083  0.00  0.00    +0.000 A 
ATOM      3  C   UNL     1      44.291   6.378  11.527  0.00  0.00    +0.000 A 
ATOM      4  C   UNL     1      44.916   7.576  11.875  0.00  0.00    +0.000 A 
ATOM      5  C   UNL     1      45.986   7.580  12.771  0.00  0.00    +0.000 A 
ATOM      6  C   UNL     1      46.422   6.390  13.352  0.00  0.00    +0.000 A 
ATOM      7  C   UNL     1      45.778   5.192  13.003  0.00  0.00    +0.000 A 
BRANCH   6   8
ATOM      8  N   UNL     1      47.509   6.331  14.250  0.00  0.00    +0.000 N 
ATOM      9  H   UNL     1      47.280   5.728  15.039  0.00  0.00    +0.000 HD
BRANCH   8  10
ATOM     10  C   UNL     1      48.385   7.412  14.587  0.00  0.00    +0.000 C 
ATOM     11  C   UNL     1      49.573   7.523  13.606  0.00  0.00    +0.000 C 
ATOM     12  C   UNL     1      50.529   7.542  14.809  0.00  0.00    +0.000 C 
ATOM     13  C   UNL     1      49.390   7.000  15.685  0.00  0.00    +0.000 C 
ENDBRANCH   8  10
ENDBRANCH   6   8
ENDBRANCH   1   2
BRANCH   1  14
ATOM     14  C   UNL     1      43.664   3.757  10.498  0.00  0.00    +0.000 C 
BRANCH  14  18
ATOM     15  C   UNL     1      46.560   2.634   7.489  0.00  0.00    +0.000 A 
ATOM     16  C   UNL     1      45.960   1.642   8.276  0.00  0.00    +0.000 A 
ATOM     17  C   UNL     1      45.038   1.999   9.265  0.00  0.00    +0.000 A 
ATOM     18  C   UNL     1      44.715   3.343   9.491  0.00  0.00    +0.000 A 
ATOM     19  C   UNL     1      45.332   4.329   8.703  0.00  0.00    +0.000 A 
ATOM     20  C   UNL     1      46.254   3.980   7.715  0.00  0.00    +0.000 A 
BRANCH  15  22
ATOM     21  N   UNL     1      47.395   2.995   5.232  0.00  0.00    +0.000 N 
ATOM     22  C   UNL     1      47.521   2.301   6.408  0.00  0.00    +0.000 C 
ATOM     23  O   UNL     1      48.417   1.483   6.567  0.00  0.00    +0.000 OA
ATOM     24  H   UNL     1      48.128   2.849   4.552  0.00  0.00    +0.000 HD
ATOM     25  H   UNL     1      46.854   3.844   5.168  0.00  0.00    +0.000 HD
ENDBRANCH  15  22
ENDBRANCH  14  18
ENDBRANCH   1  14
TORSDOF 6
ENDMDL
MODEL 5
REMARK VINA RESULT:    -6.989      2.994      8.492
REMARK INTER + INTRA:         -10.278
REMARK INTER:                  -9.596
REMARK INTRA:                  -0.682
REMARK UNBOUND:                -0.838
REMARK  Name = 
REMARK  6 active torsions:
REMARK  status: ('A' for Active; 'I' for Inactive)
REMARK    1  A    between atoms: C_2  and  C_4
REMARK    2  A    between atoms: C_7  and  C_8
REMARK    3  A    between atoms: C_8  and  O_9
REMARK    4  A    between atoms: O_9  and  C_10
REMARK    5  A    between atoms: C_14  and  N_15
REMARK    6  A    between atoms: N_15  and  C_16
REMARK                            x       y       z     vdW  Elec       q    Type
REMARK                         _______ _______ _______ _____ _____    ______ ____
ROOT
ATOM      1  O   UNL     1      45.903   5.335  13.931  0.00  0.00    +0.000 OA
ENDROOT
BRANCH   1   2
ATOM      2  C   UNL     1      44.958   4.949  13.018  0.00  0.00    +0.000 A 
ATOM      3  C   UNL     1      43.650   5.432  12.944  0.00  0.00    +0.000 A 
ATOM      4  C   UNL     1      42.773   4.931  11.981  0.00  0.00    +0.000 A 
ATOM      5  C   UNL     1      43.191   3.940  11.092  0.00  0.00    +0.000 A 
ATOM      6  C   UNL     1      44.500   3.461  11.138  0.00  0.00    +0.000 A 
ATOM      7  C   UNL     1      45.377   3.979  12.104  0.00  0.00    +0.000 A 
BRANCH   6   8
ATOM      8  N   UNL     1      44.973   2.447  10.276  0.00  0.00    +0.000 N 
ATOM      9  H   UNL     1      45.833   2.047  10.645  0.00  0.00    +0.000 HD
BRANCH   8  10
ATOM     10  C   UNL     1      44.909   2.458   8.846  0.00  0.00    +0.000 C 
ATOM     11  C   UNL     1      46.130   1.760   8.206  0.00  0.00    +0.000 C 
ATOM     12  C   UNL     1      46.342   3.000   7.324  0.00  0.00    +0.000 C 
ATOM     13  C   UNL     1      45.430   3.794   8.271  0.00  0.00    +0.000 C 
ENDBRANCH   8  10
ENDBRANCH   6   8
ENDBRANCH   1   2
BRANCH   1  14
ATOM     14  C   UNL     1      46.997   4.437  14.128  0.00  0.00    +0.000 C 
BRANCH  14  18
ATOM     15  C   UNL     1      48.576   4.491  18.152  0.00  0.00    +0.000 A 
ATOM     16  C   UNL     1      47.850   3.378  17.710  0.00  0.00    +0.000 A 
ATOM     17  C   UNL     1      47.319   3.362  16.417  0.00  0.00    +0.000 A 
ATOM     18  C   UNL     1      47.490   4.455  15.558  0.00  0.00    +0.000 A 
ATOM     19  C   UNL     1      48.211   5.570  16.018  0.00  0.00    +0.000 A 
ATOM     20  C   UNL     1      48.743   5.594  17.308  0.00  0.00    +0.000 A 
BRANCH  15  22
ATOM     21  N   UNL     1      48.518   3.888  20.509  0.00  0.00    +0.000 N 
ATOM     22  C   UNL     1      49.185   4.541  19.506  0.00  0.00    +0.000 C 
ATOM     23  O   UNL     1      50.256   5.093  19.714  0.00  0.00    +0.000 OA
ATOM     24  H   UNL     1      49.002   3.824  21.394  0.00  0.00    +0.000 HD
ATOM     25  H   UNL     1      47.793   3.213  20.319  0.00  0.00    +0.000 HD
ENDBRANCH  15  22
ENDBRANCH  14  18
ENDBRANCH   1  14
TORSDOF 6
ENDMDL
MODEL 6
REMARK VINA RESULT:    -6.765      3.385      7.326
REMARK INTER + INTRA:          -9.976
REMARK INTER:                  -9.169
REMARK INTRA:                  -0.807
REMARK UNBOUND:                -0.838
REMARK  Name = 
REMARK  6 active torsions:
REMARK  status: ('A' for Active; 'I' for Inactive)
REMARK    1  A    between atoms: C_2  and  C_4
REMARK    2  A    between atoms: C_7  and  C_8
REMARK    3  A    between atoms: C_8  and  O_9
REMARK    4  A    between atoms: O_9  and  C_10
REMARK    5  A    between atoms: C_14  and  N_15
REMARK    6  A    between atoms: N_15  and  C_16
REMARK                            x       y       z     vdW  Elec       q    Type
REMARK                         _______ _______ _______ _____ _____    ______ ____
ROOT
ATOM      1  O   UNL     1      46.032   5.206  13.862  0.00  0.00    +0.000 OA
ENDROOT
BRANCH   1   2
ATOM      2  C   UNL     1      45.036   4.842  12.996  0.00  0.00    +0.000 A 
ATOM      3  C   UNL     1      43.734   5.346  12.991  0.00  0.00    +0.000 A 
ATOM      4  C   UNL     1      42.802   4.867  12.070  0.00  0.00    +0.000 A 
ATOM      5  C   UNL     1      43.158   3.876  11.154  0.00  0.00    +0.000 A 
ATOM      6  C   UNL     1      44.460   3.376  11.130  0.00  0.00    +0.000 A 
ATOM      7  C   UNL     1      45.392   3.873  12.054  0.00  0.00    +0.000 A 
BRANCH   6   8
ATOM      8  N   UNL     1      44.872   2.362  10.239  0.00  0.00    +0.000 N 
ATOM      9  H   UNL     1      45.696   1.888  10.604  0.00  0.00    +0.000 HD
BRANCH   8  10
ATOM     10  C   UNL     1      44.831   2.428   8.809  0.00  0.00    +0.000 C 
ATOM     11  C   UNL     1      46.101   1.828   8.165  0.00  0.00    +0.000 C 
ATOM     12  C   UNL     1      46.254   3.113   7.337  0.00  0.00    +0.000 C 
ATOM     13  C   UNL     1      45.282   3.814   8.298  0.00  0.00    +0.000 C 
ENDBRANCH   8  10
ENDBRANCH   6   8
ENDBRANCH   1   2
BRANCH   1  14
ATOM     14  C   UNL     1      47.314   5.456  13.284  0.00  0.00    +0.000 C 
BRANCH  14  18
ATOM     15  C   UNL     1      47.657   9.591  12.068  0.00  0.00    +0.000 A 
ATOM     16  C   UNL     1      48.679   8.689  11.747  0.00  0.00    +0.000 A 
ATOM     17  C   UNL     1      48.586   7.355  12.154  0.00  0.00    +0.000 A 
ATOM     18  C   UNL     1      47.484   6.909  12.896  0.00  0.00    +0.000 A 
ATOM     19  C   UNL     1      46.471   7.826  13.222  0.00  0.00    +0.000 A 
ATOM     20  C   UNL     1      46.559   9.160  12.820  0.00  0.00    +0.000 A 
BRANCH  15  22
ATOM     21  N   UNL     1      47.267  11.948  12.533  0.00  0.00    +0.000 N 
ATOM     22  C   UNL     1      47.698  11.010  11.631  0.00  0.00    +0.000 C 
ATOM     23  O   UNL     1      48.141  11.339  10.540  0.00  0.00    +0.000 OA
ATOM     24  H   UNL     1      47.416  12.913  12.273  0.00  0.00    +0.000 HD
ATOM     25  H   UNL     1      47.155  11.736  13.513  0.00  0.00    +0.000 HD
ENDBRANCH  15  22
ENDBRANCH  14  18
ENDBRANCH   1  14
TORSDOF 6
ENDMDL
MODEL 7
REMARK VINA RESULT:    -6.392      3.743      7.177
REMARK INTER + INTRA:          -9.472
REMARK INTER:                  -8.656
REMARK INTRA:                  -0.816
REMARK UNBOUND:                -0.838
REMARK  Name = 
REMARK  6 active torsions:
REMARK  status: ('A' for Active; 'I' for Inactive)
REMARK    1  A    between atoms: C_2  and  C_4
REMARK    2  A    between atoms: C_7  and  C_8
REMARK    3  A    between atoms: C_8  and  O_9
REMARK    4  A    between atoms: O_9  and  C_10
REMARK    5  A    between atoms: C_14  and  N_15
REMARK    6  A    between atoms: N_15  and  C_16
REMARK                            x       y       z     vdW  Elec       q    Type
REMARK                         _______ _______ _______ _____ _____    ______ ____
ROOT
ATOM      1  O   UNL     1      46.070   6.142  13.197  0.00  0.00    +0.000 OA
ENDROOT
BRANCH   1   2
ATOM      2  C   UNL     1      45.053   5.401  12.655  0.00  0.00    +0.000 A 
ATOM      3  C   UNL     1      43.693   5.571  12.916  0.00  0.00    +0.000 A 
ATOM      4  C   UNL     1      42.755   4.726  12.320  0.00  0.00    +0.000 A 
ATOM      5  C   UNL     1      43.169   3.702  11.467  0.00  0.00    +0.000 A 
ATOM      6  C   UNL     1      44.523   3.530  11.179  0.00  0.00    +0.000 A 
ATOM      7  C   UNL     1      45.456   4.392  11.776  0.00  0.00    +0.000 A 
BRANCH   6   8
ATOM      8  N   UNL     1      45.000   2.501  10.338  0.00  0.00    +0.000 N 
ATOM      9  H   UNL     1      45.909   2.177  10.664  0.00  0.00    +0.000 HD
BRANCH   8  10
ATOM     10  C   UNL     1      44.836   2.428   8.918  0.00  0.00    +0.000 C 
ATOM     11  C   UNL     1      46.108   1.904   8.214  0.00  0.00    +0.000 C 
ATOM     12  C   UNL     1      46.050   3.115   7.270  0.00  0.00    +0.000 C 
ATOM     13  C   UNL     1      45.088   3.798   8.252  0.00  0.00    +0.000 C 
ENDBRANCH   8  10
ENDBRANCH   6   8
ENDBRANCH   1   2
BRANCH   1  14
ATOM     14  C   UNL     1      46.069   7.538  12.891  0.00  0.00    +0.000 C 
BRANCH  14  18
ATOM     15  C   UNL     1      49.906   8.968  11.504  0.00  0.00    +0.000 A 
ATOM     16  C   UNL     1      49.733   7.605  11.775  0.00  0.00    +0.000 A 
ATOM     17  C   UNL     1      48.502   7.138  12.244  0.00  0.00    +0.000 A 
ATOM     18  C   UNL     1      47.437   8.022  12.461  0.00  0.00    +0.000 A 
ATOM     19  C   UNL     1      47.626   9.388  12.195  0.00  0.00    +0.000 A 
ATOM     20  C   UNL     1      48.854   9.861  11.730  0.00  0.00    +0.000 A 
BRANCH  15  22
ATOM     21  N   UNL     1      52.285   8.691  11.069  0.00  0.00    +0.000 N 
ATOM     22  C   UNL     1      51.186   9.506  10.976  0.00  0.00    +0.000 C 
ATOM     23  O   UNL     1      51.255  10.601  10.438  0.00  0.00    +0.000 OA
ATOM     24  H   UNL     1      53.117   9.016  10.597  0.00  0.00    +0.000 HD
ATOM     25  H   UNL     1      52.204   7.703  11.256  0.00  0.00    +0.000 HD
ENDBRANCH  15  22
ENDBRANCH  14  18
ENDBRANCH   1  14
TORSDOF 6
ENDMDL
MODEL 8
REMARK VINA RESULT:    -6.251      3.569      8.344
REMARK INTER + INTRA:          -9.282
REMARK INTER:                  -8.773
REMARK INTRA:                  -0.509
REMARK UNBOUND:                -0.838
REMARK  Name = 
REMARK  6 active torsions:
REMARK  status: ('A' for Active; 'I' for Inactive)
REMARK    1  A    between atoms: C_2  and  C_4
REMARK    2  A    between atoms: C_7  and  C_8
REMARK    3  A    between atoms: C_8  and  O_9
REMARK    4  A    between atoms: O_9  and  C_10
REMARK    5  A    between atoms: C_14  and  N_15
REMARK    6  A    between atoms: N_15  and  C_16
REMARK                            x       y       z     vdW  Elec       q    Type
REMARK                         _______ _______ _______ _____ _____    ______ ____
ROOT
ATOM      1  O   UNL     1      47.301   3.476  14.585  0.00  0.00    +0.000 OA
ENDROOT
BRANCH   1   2
ATOM      2  C   UNL     1      46.848   4.426  13.709  0.00  0.00    +0.000 A 
ATOM      3  C   UNL     1      47.350   5.722  13.580  0.00  0.00    +0.000 A 
ATOM      4  C   UNL     1      46.776   6.606  12.665  0.00  0.00    +0.000 A 
ATOM      5  C   UNL     1      45.693   6.208  11.881  0.00  0.00    +0.000 A 
ATOM      6  C   UNL     1      45.191   4.911  11.982  0.00  0.00    +0.000 A 
ATOM      7  C   UNL     1      45.782   4.026  12.898  0.00  0.00    +0.000 A 
BRANCH   6   8
ATOM      8  N   UNL     1      44.087   4.458  11.228  0.00  0.00    +0.000 N 
ATOM      9  H   UNL     1      43.558   3.768  11.759  0.00  0.00    +0.000 HD
BRANCH   8  10
ATOM     10  C   UNL     1      44.065   4.237   9.814  0.00  0.00    +0.000 C 
ATOM     11  C   UNL     1      44.386   2.769   9.452  0.00  0.00    +0.000 C 
ATOM     12  C   UNL     1      45.449   3.274   8.464  0.00  0.00    +0.000 C 
ATOM     13  C   UNL     1      45.405   4.642   9.162  0.00  0.00    +0.000 C 
ENDBRANCH   8  10
ENDBRANCH   6   8
ENDBRANCH   1   2
BRANCH   1  14
ATOM     14  C   UNL     1      47.311   3.843  15.966  0.00  0.00    +0.000 C 
BRANCH  14  18
ATOM     15  C   UNL     1      51.177   3.022  17.722  0.00  0.00    +0.000 A 
ATOM     16  C   UNL     1      50.430   1.973  17.171  0.00  0.00    +0.000 A 
ATOM     17  C   UNL     1      49.171   2.226  16.620  0.00  0.00    +0.000 A 
ATOM     18  C   UNL     1      48.635   3.521  16.625  0.00  0.00    +0.000 A 
ATOM     19  C   UNL     1      49.389   4.563  17.190  0.00  0.00    +0.000 A 
ATOM     20  C   UNL     1      50.646   4.316  17.743  0.00  0.00    +0.000 A 
BRANCH  15  22
ATOM     21  N   UNL     1      53.321   1.873  17.670  0.00  0.00    +0.000 N 
ATOM     22  C   UNL     1      52.531   2.805  18.291  0.00  0.00    +0.000 C 
ATOM     23  O   UNL     1      52.948   3.459  19.236  0.00  0.00    +0.000 OA
ATOM     24  H   UNL     1      54.280   1.824  17.987  0.00  0.00    +0.000 HD
ATOM     25  H   UNL     1      53.111   1.522  16.747  0.00  0.00    +0.000 HD
ENDBRANCH  15  22
ENDBRANCH  14  18
ENDBRANCH   1  14
TORSDOF 6
ENDMDL
MODEL 9
REMARK VINA RESULT:    -5.971      3.278      4.937
REMARK INTER + INTRA:          -8.903
REMARK INTER:                  -8.045
REMARK INTRA:                  -0.858
REMARK UNBOUND:                -0.838
REMARK  Name = 
REMARK  6 active torsions:
REMARK  status: ('A' for Active; 'I' for Inactive)
REMARK    1  A    between atoms: C_2  and  C_4
REMARK    2  A    between atoms: C_7  and  C_8
REMARK    3  A    between atoms: C_8  and  O_9
REMARK    4  A    between atoms: O_9  and  C_10
REMARK    5  A    between atoms: C_14  and  N_15
REMARK    6  A    between atoms: N_15  and  C_16
REMARK                            x       y       z     vdW  Elec       q    Type
REMARK                         _______ _______ _______ _____ _____    ______ ____
ROOT
ATOM      1  O   UNL     1      48.299   7.606  14.239  0.00  0.00    +0.000 OA
ENDROOT
BRANCH   1   2
ATOM      2  C   UNL     1      49.203   7.177  15.174  0.00  0.00    +0.000 A 
ATOM      3  C   UNL     1      50.582   7.391  15.134  0.00  0.00    +0.000 A 
ATOM      4  C   UNL     1      51.400   6.872  16.139  0.00  0.00    +0.000 A 
ATOM      5  C   UNL     1      50.850   6.128  17.184  0.00  0.00    +0.000 A 
ATOM      6  C   UNL     1      49.473   5.921  17.251  0.00  0.00    +0.000 A 
ATOM      7  C   UNL     1      48.658   6.457  16.241  0.00  0.00    +0.000 A 
BRANCH   6   8
ATOM      8  N   UNL     1      48.864   5.163  18.274  0.00  0.00    +0.000 N 
ATOM      9  H   UNL     1      49.102   5.549  19.186  0.00  0.00    +0.000 HD
BRANCH   8  10
ATOM     10  C   UNL     1      48.685   3.742  18.279  0.00  0.00    +0.000 C 
ATOM     11  C   UNL     1      49.682   3.029  17.338  0.00  0.00    +0.000 C 
ATOM     12  C   UNL     1      48.500   2.287  16.694  0.00  0.00    +0.000 C 
ATOM     13  C   UNL     1      47.549   3.316  17.323  0.00  0.00    +0.000 C 
ENDBRANCH   8  10
ENDBRANCH   6   8
ENDBRANCH   1   2
BRANCH   1  14
ATOM     14  C   UNL     1      48.418   7.033  12.935  0.00  0.00    +0.000 C 
BRANCH  14  18
ATOM     15  C   UNL     1      45.113   4.440  11.911  0.00  0.00    +0.000 A 
ATOM     16  C   UNL     1      45.417   5.531  11.088  0.00  0.00    +0.000 A 
ATOM     17  C   UNL     1      46.471   6.387  11.422  0.00  0.00    +0.000 A 
ATOM     18  C   UNL     1      47.222   6.174  12.586  0.00  0.00    +0.000 A 
ATOM     19  C   UNL     1      46.901   5.083  13.410  0.00  0.00    +0.000 A 
ATOM     20  C   UNL     1      45.849   4.227  13.082  0.00  0.00    +0.000 A 
BRANCH  15  22
ATOM     21  N   UNL     1      43.866   2.412  12.415  0.00  0.00    +0.000 N 
ATOM     22  C   UNL     1      44.023   3.488  11.580  0.00  0.00    +0.000 C 
ATOM     23  O   UNL     1      43.264   3.674  10.639  0.00  0.00    +0.000 OA
ATOM     24  H   UNL     1      43.047   1.842  12.252  0.00  0.00    +0.000 HD
ATOM     25  H   UNL     1      44.290   2.378  13.329  0.00  0.00    +0.000 HD
ENDBRANCH  15  22
ENDBRANCH  14  18
ENDBRANCH   1  14
TORSDOF 6
ENDMDL
