MODEL 1
REMARK VINA RESULT:    -8.354      0.000      0.000
REMARK INTER + INTRA:         -11.904
REMARK INTER:                 -11.772
REMARK INTRA:                  -0.131
REMARK UNBOUND:                -0.131
REMARK  Name = 
REMARK  10 active torsions:
REMARK  status: ('A' for Active; 'I' for Inactive)
REMARK    1  A    between atoms: C_1  and  C_2
REMARK    2  A    between atoms: N_4  and  C_5
REMARK    3  A    between atoms: C_5  and  C_6
REMARK    4  A    between atoms: C_6  and  C_7
REMARK    5  A    between atoms: C_6  and  O_8
REMARK    6  A    between atoms: O_8  and  C_9
REMARK    7  A    between atoms: C_12  and  C_13
REMARK    8  A    between atoms: C_19  and  N_20
REMARK    9  A    between atoms: N_20  and  C_21
REMARK   10  A    between atoms: N_24  and  C_25
REMARK                            x       y       z     vdW  Elec       q    Type
REMARK                         _______ _______ _______ _____ _____    ______ ____
ROOT
ATOM      1  C   UNL     1      45.123   5.780  11.029  0.00  0.00    +0.000 C 
ENDROOT
BRANCH   1   5
ATOM      2  C   UNL     1      48.525   6.824  14.310  0.00  0.00    +0.000 C 
ATOM      3  C   UNL     1      47.374   6.124  13.697  0.00  0.00    +0.000 A 
ATOM      4  N   UNL     1      46.931   6.484  12.484  0.00  0.00    +0.000 NA
ATOM      5  N   UNL     1      45.892   5.660  12.255  0.00  0.00    +0.000 N 
ATOM      6  C   UNL     1      45.643   4.801  13.287  0.00  0.00    +0.000 A 
ATOM      7  C   UNL     1      46.570   5.087  14.255  0.00  0.00    +0.000 A 
BRANCH   7   8
ATOM      8  N   UNL     1      46.694   4.496  15.462  0.00  0.00    +0.000 N 
ATOM      9  H   UNL     1      45.938   3.943  15.855  0.00  0.00    +0.000 HD
BRANCH   8  10
ATOM     10  C   UNL     1      47.988   4.354  16.134  0.00  0.00    +0.000 C 
ATOM     11  C   UNL     1      48.217   2.907  16.594  0.00  0.00    +0.000 C 
ATOM     12  C   UNL     1      48.679   3.017  18.040  0.00  0.00    +0.000 C 
ATOM     13  N   UNL     1      48.005   4.217  18.527  0.00  0.00    +0.000 NA
ATOM     14  C   UNL     1      48.609   4.731  19.750  0.00  0.00    +0.000 C 
ATOM     15  C   UNL     1      48.082   5.187  17.423  0.00  0.00    +0.000 C 
ENDBRANCH   8  10
ENDBRANCH   7   8
ENDBRANCH   1   5
BRANCH   1  16
ATOM     16  C   UNL     1      43.872   4.890  10.962  0.00  0.00    +0.000 C 
ATOM     17  C   UNL     1      42.665   5.586  11.600  0.00  0.00    +0.000 C 
BRANCH  16  18
ATOM     18  O   UNL     1      43.613   4.640   9.558  0.00  0.00    +0.000 OA
BRANCH  18  19
ATOM     19  C   UNL     1      44.565   3.861   8.934  0.00  0.00    +0.000 A 
ATOM     20  C   UNL     1      44.665   2.518   9.291  0.00  0.00    +0.000 A 
ATOM     21  N   UNL     1      45.561   1.661   8.727  0.00  0.00    +0.000 NA
ATOM     22  C   UNL     1      46.368   2.231   7.786  0.00  0.00    +0.000 A 
ATOM     23  C   UNL     1      46.288   3.573   7.452  0.00  0.00    +0.000 A 
ATOM     24  N   UNL     1      45.388   4.417   8.021  0.00  0.00    +0.000 NA
BRANCH  22  25
ATOM     25  C   UNL     1      47.358   1.363   7.090  0.00  0.00    +0.000 C 
ATOM     26  N   UNL     1      48.462   1.995   6.586  0.00  0.00    +0.000 N 
ATOM     27  O   UNL     1      47.201   0.155   6.973  0.00  0.00    +0.000 OA
ATOM     28  H   UNL     1      48.568   2.999   6.687  0.00  0.00    +0.000 HD
ATOM     29  H   UNL     1      49.167   1.455   6.105  0.00  0.00    +0.000 HD
ENDBRANCH  22  25
ENDBRANCH  18  19
ENDBRANCH  16  18
ENDBRANCH   1  16
TORSDOF 7
ENDMDL
MODEL 2
REMARK VINA RESULT:    -8.049      1.715      2.366
REMARK INTER + INTRA:         -11.474
REMARK INTER:                 -10.707
REMARK INTRA:                  -0.767
REMARK UNBOUND:                -0.131
REMARK  Name = 
REMARK  10 active torsions:
REMARK  status: ('A' for Active; 'I' for Inactive)
REMARK    1  A    between atoms: C_1  and  C_2
REMARK    2  A    between atoms: N_4  and  C_5
REMARK    3  A    between atoms: C_5  and  C_6
REMARK    4  A    between atoms: C_6  and  C_7
REMARK    5  A    between atoms: C_6  and  O_8
REMARK    6  A    between atoms: O_8  and  C_9
REMARK    7  A    between atoms: C_12  and  C_13
REMARK    8  A    between atoms: C_19  and  N_20
REMARK    9  A    between atoms: N_20  and  C_21
REMARK   10  A    between atoms: N_24  and  C_25
REMARK                            x       y       z     vdW  Elec       q    Type
REMARK                         _______ _______ _______ _____ _____    ______ ____
ROOT
ATOM      1  C   UNL     1      44.052   5.281  12.318  0.00  0.00    +0.000 C 
ENDROOT
BRANCH   1   5
ATOM      2  C   UNL     1      46.927   9.136  12.868  0.00  0.00    +0.000 C 
ATOM      3  C   UNL     1      46.515   7.714  12.878  0.00  0.00    +0.000 A 
ATOM      4  N   UNL     1      45.286   7.363  12.475  0.00  0.00    +0.000 NA
ATOM      5  N   UNL     1      45.260   6.025  12.626  0.00  0.00    +0.000 N 
ATOM      6  C   UNL     1      46.421   5.514  13.129  0.00  0.00    +0.000 A 
ATOM      7  C   UNL     1      47.256   6.582  13.330  0.00  0.00    +0.000 A 
BRANCH   7   8
ATOM      8  N   UNL     1      48.508   6.554  13.831  0.00  0.00    +0.000 N 
ATOM      9  H   UNL     1      49.316   6.484  13.219  0.00  0.00    +0.000 HD
BRANCH   8  10
ATOM     10  C   UNL     1      48.804   6.919  15.219  0.00  0.00    +0.000 C 
ATOM     11  C   UNL     1      50.296   7.231  15.403  0.00  0.00    +0.000 C 
ATOM     12  C   UNL     1      50.718   6.450  16.639  0.00  0.00    +0.000 C 
ATOM     13  N   UNL     1      49.848   5.277  16.618  0.00  0.00    +0.000 NA
ATOM     14  C   UNL     1      49.802   4.601  17.908  0.00  0.00    +0.000 C 
ATOM     15  C   UNL     1      48.526   5.773  16.206  0.00  0.00    +0.000 C 
ENDBRANCH   8  10
ENDBRANCH   7   8
ENDBRANCH   1   5
BRANCH   1  16
ATOM     16  C   UNL     1      44.289   3.906  11.672  0.00  0.00    +0.000 C 
ATOM     17  C   UNL     1      43.507   2.811  12.405  0.00  0.00    +0.000 C 
BRANCH  16  18
ATOM     18  O   UNL     1      43.833   4.005  10.300  0.00  0.00    +0.000 OA
BRANCH  18  19
ATOM     19  C   UNL     1      44.745   3.566   9.363  0.00  0.00    +0.000 A 
ATOM     20  C   UNL     1      45.423   4.514   8.600  0.00  0.00    +0.000 A 
ATOM     21  N   UNL     1      46.352   4.186   7.659  0.00  0.00    +0.000 NA
ATOM     22  C   UNL     1      46.557   2.845   7.513  0.00  0.00    +0.000 A 
ATOM     23  C   UNL     1      45.860   1.902   8.252  0.00  0.00    +0.000 A 
ATOM     24  N   UNL     1      44.938   2.242   9.190  0.00  0.00    +0.000 NA
BRANCH  22  25
ATOM     25  C   UNL     1      47.579   2.392   6.530  0.00  0.00    +0.000 C 
ATOM     26  N   UNL     1      47.496   2.941   5.279  0.00  0.00    +0.000 N 
ATOM     27  O   UNL     1      48.447   1.576   6.817  0.00  0.00    +0.000 OA
ATOM     28  H   UNL     1      46.764   3.609   5.062  0.00  0.00    +0.000 HD
ATOM     29  H   UNL     1      48.165   2.670   4.573  0.00  0.00    +0.000 HD
ENDBRANCH  22  25
ENDBRANCH  18  19
ENDBRANCH  16  18
ENDBRANCH   1  16
TORSDOF 7
ENDMDL
MODEL 3
REMARK VINA RESULT:    -8.031      1.847      2.663
REMARK INTER + INTRA:         -11.449
REMARK INTER:                 -10.652
REMARK INTRA:                  -0.797
REMARK UNBOUND:                -0.131
REMARK  Name = 
REMARK  10 active torsions:
REMARK  status: ('A' for Active; 'I' for Inactive)
REMARK    1  A    between atoms: C_1  and  C_2
REMARK    2  A    between atoms: N_4  and  C_5
REMARK    3  A    between atoms: C_5  and  C_6
REMARK    4  A    between atoms: C_6  and  C_7
REMARK    5  A    between atoms: C_6  and  O_8
REMARK    6  A    between atoms: O_8  and  C_9
REMARK    7  A    between atoms: C_12  and  C_13
REMARK    8  A    between atoms: C_19  and  N_20
REMARK    9  A    between atoms: N_20  and  C_21
REMARK   10  A    between atoms: N_24  and  C_25
REMARK                            x       y       z     vdW  Elec       q    Type
REMARK                         _______ _______ _______ _____ _____    ______ ____
ROOT
ATOM      1  C   UNL     1      44.683   6.319  11.297  0.00  0.00    +0.000 C 
ENDROOT
BRANCH   1   5
ATOM      2  C   UNL     1      47.217   4.660  15.073  0.00  0.00    +0.000 C 
ATOM      3  C   UNL     1      46.926   5.432  13.843  0.00  0.00    +0.000 A 
ATOM      4  N   UNL     1      45.715   5.366  13.274  0.00  0.00    +0.000 NA
ATOM      5  N   UNL     1      45.813   6.167  12.197  0.00  0.00    +0.000 N 
ATOM      6  C   UNL     1      47.049   6.726  12.048  0.00  0.00    +0.000 A 
ATOM      7  C   UNL     1      47.811   6.254  13.085  0.00  0.00    +0.000 A 
BRANCH   7   8
ATOM      8  N   UNL     1      49.108   6.528  13.332  0.00  0.00    +0.000 N 
ATOM      9  H   UNL     1      49.850   5.996  12.886  0.00  0.00    +0.000 HD
BRANCH   8  10
ATOM     10  C   UNL     1      49.535   7.764  13.993  0.00  0.00    +0.000 C 
ATOM     11  C   UNL     1      50.665   7.493  14.997  0.00  0.00    +0.000 C 
ATOM     12  C   UNL     1      50.249   8.214  16.270  0.00  0.00    +0.000 C 
ATOM     13  N   UNL     1      48.789   8.158  16.236  0.00  0.00    +0.000 NA
ATOM     14  C   UNL     1      48.179   9.123  17.142  0.00  0.00    +0.000 C 
ATOM     15  C   UNL     1      48.418   8.404  14.834  0.00  0.00    +0.000 C 
ENDBRANCH   8  10
ENDBRANCH   7   8
ENDBRANCH   1   5
BRANCH   1  16
ATOM     16  C   UNL     1      43.849   5.045  11.087  0.00  0.00    +0.000 C 
ATOM     17  C   UNL     1      42.487   5.157  11.779  0.00  0.00    +0.000 C 
BRANCH  16  18
ATOM     18  O   UNL     1      43.666   4.898   9.657  0.00  0.00    +0.000 OA
BRANCH  18  19
ATOM     19  C   UNL     1      44.558   4.036   9.054  0.00  0.00    +0.000 A 
ATOM     20  C   UNL     1      44.541   2.693   9.427  0.00  0.00    +0.000 A 
ATOM     21  N   UNL     1      45.369   1.759   8.884  0.00  0.00    +0.000 NA
ATOM     22  C   UNL     1      46.234   2.248   7.948  0.00  0.00    +0.000 A 
ATOM     23  C   UNL     1      46.270   3.589   7.599  0.00  0.00    +0.000 A 
ATOM     24  N   UNL     1      45.436   4.511   8.147  0.00  0.00    +0.000 NA
BRANCH  22  25
ATOM     25  C   UNL     1      47.157   1.294   7.275  0.00  0.00    +0.000 C 
ATOM     26  N   UNL     1      48.296   1.833   6.742  0.00  0.00    +0.000 N 
ATOM     27  O   UNL     1      46.919   0.095   7.202  0.00  0.00    +0.000 OA
ATOM     28  H   UNL     1      48.469   2.830   6.807  0.00  0.00    +0.000 HD
ATOM     29  H   UNL     1      48.958   1.231   6.274  0.00  0.00    +0.000 HD
ENDBRANCH  22  25
ENDBRANCH  18  19
ENDBRANCH  16  18
ENDBRANCH   1  16
TORSDOF 7
ENDMDL
MODEL 4
REMARK VINA RESULT:    -8.005      2.737      3.768
REMARK INTER + INTRA:         -11.412
REMARK INTER:                 -10.604
REMARK INTRA:                  -0.807
REMARK UNBOUND:                -0.131
REMARK  Name = 
REMARK  10 active torsions:
REMARK  status: ('A' for Active; 'I' for Inactive)
REMARK    1  A    between atoms: C_1  and  C_2
REMARK    2  A    between atoms: N_4  and  C_5
REMARK    3  A    between atoms: C_5  and  C_6
REMARK    4  A    between atoms: C_6  and  C_7
REMARK    5  A    between atoms: C_6  and  O_8
REMARK    6  A    between atoms: O_8  and  C_9
REMARK    7  A    between atoms: C_12  and  C_13
REMARK    8  A    between atoms: C_19  and  N_20
REMARK    9  A    between atoms: N_20  and  C_21
REMARK   10  A    between atoms: N_24  and  C_25
REMARK                            x       y       z     vdW  Elec       q    Type
REMARK                         _______ _______ _______ _____ _____    ______ ____
ROOT
ATOM      1  C   UNL     1      43.677   5.480  11.593  0.00  0.00    +0.000 C 
ENDROOT
BRANCH   1   5
ATOM      2  C   UNL     1      46.181   9.591  12.096  0.00  0.00    +0.000 C 
ATOM      3  C   UNL     1      45.796   8.179  12.317  0.00  0.00    +0.000 A 
ATOM      4  N   UNL     1      44.777   7.641  11.633  0.00  0.00    +0.000 NA
ATOM      5  N   UNL     1      44.706   6.376  12.089  0.00  0.00    +0.000 N 
ATOM      6  C   UNL     1      45.630   6.095  13.054  0.00  0.00    +0.000 A 
ATOM      7  C   UNL     1      46.343   7.249  13.249  0.00  0.00    +0.000 A 
BRANCH   7   8
ATOM      8  N   UNL     1      47.351   7.444  14.124  0.00  0.00    +0.000 N 
ATOM      9  H   UNL     1      47.166   7.737  15.080  0.00  0.00    +0.000 HD
BRANCH   8  10
ATOM     10  C   UNL     1      48.713   6.969  13.868  0.00  0.00    +0.000 C 
ATOM     11  C   UNL     1      49.742   7.776  14.672  0.00  0.00    +0.000 C 
ATOM     12  C   UNL     1      50.826   8.150  13.672  0.00  0.00    +0.000 C 
ATOM     13  N   UNL     1      50.103   8.264  12.407  0.00  0.00    +0.000 NA
ATOM     14  C   UNL     1      50.995   8.221  11.256  0.00  0.00    +0.000 C 
ATOM     15  C   UNL     1      49.140   7.152  12.402  0.00  0.00    +0.000 C 
ENDBRANCH   8  10
ENDBRANCH   7   8
ENDBRANCH   1   5
BRANCH   1  16
ATOM     16  C   UNL     1      44.124   4.019  11.417  0.00  0.00    +0.000 C 
ATOM     17  C   UNL     1      43.543   3.128  12.518  0.00  0.00    +0.000 C 
BRANCH  16  18
ATOM     18  O   UNL     1      43.634   3.588  10.122  0.00  0.00    +0.000 OA
BRANCH  18  19
ATOM     19  C   UNL     1      44.624   3.247   9.224  0.00  0.00    +0.000 A 
ATOM     20  C   UNL     1      45.157   4.245   8.411  0.00  0.00    +0.000 A 
ATOM     21  N   UNL     1      46.145   4.017   7.501  0.00  0.00    +0.000 NA
ATOM     22  C   UNL     1      46.565   2.720   7.440  0.00  0.00    +0.000 A 
ATOM     23  C   UNL     1      46.014   1.722   8.229  0.00  0.00    +0.000 A 
ATOM     24  N   UNL     1      45.030   1.964   9.134  0.00  0.00    +0.000 NA
BRANCH  22  25
ATOM     25  C   UNL     1      47.666   2.381   6.497  0.00  0.00    +0.000 C 
ATOM     26  N   UNL     1      47.709   3.104   5.337  0.00  0.00    +0.000 N 
ATOM     27  O   UNL     1      48.490   1.508   6.741  0.00  0.00    +0.000 OA
ATOM     28  H   UNL     1      47.012   3.817   5.153  0.00  0.00    +0.000 HD
ATOM     29  H   UNL     1      48.436   2.916   4.662  0.00  0.00    +0.000 HD
ENDBRANCH  22  25
ENDBRANCH  18  19
ENDBRANCH  16  18
ENDBRANCH   1  16
TORSDOF 7
ENDMDL
MODEL 5
REMARK VINA RESULT:    -7.826      1.804      3.237
REMARK INTER + INTRA:         -11.160
REMARK INTER:                 -10.608
REMARK INTRA:                  -0.551
REMARK UNBOUND:                -0.131
REMARK  Name = 
REMARK  10 active torsions:
REMARK  status: ('A' for Active; 'I' for Inactive)
REMARK    1  A    between atoms: C_1  and  C_2
REMARK    2  A    between atoms: N_4  and  C_5
REMARK    3  A    between atoms: C_5  and  C_6
REMARK    4  A    between atoms: C_6  and  C_7
REMARK    5  A    between atoms: C_6  and  O_8
REMARK    6  A    between atoms: O_8  and  C_9
REMARK    7  A    between atoms: C_12  and  C_13
REMARK    8  A    between atoms: C_19  and  N_20
REMARK    9  A    between atoms: N_20  and  C_21
REMARK   10  A    between atoms: N_24  and  C_25
REMARK                            x       y       z     vdW  Elec       q    Type
REMARK                         _______ _______ _______ _____ _____    ______ ____
ROOT
ATOM      1  C   UNL     1      45.101   5.820  11.114  0.00  0.00    +0.000 C 
ENDROOT
BRANCH   1   5
ATOM      2  C   UNL     1      47.115   3.942  15.095  0.00  0.00    +0.000 C 
ATOM      3  C   UNL     1      46.791   4.953  14.062  0.00  0.00    +0.000 A 
ATOM      4  N   UNL     1      45.950   4.653  13.063  0.00  0.00    +0.000 NA
ATOM      5  N   UNL     1      45.901   5.778  12.325  0.00  0.00    +0.000 N 
ATOM      6  C   UNL     1      46.696   6.777  12.807  0.00  0.00    +0.000 A 
ATOM      7  C   UNL     1      47.312   6.273  13.922  0.00  0.00    +0.000 A 
BRANCH   7   8
ATOM      8  N   UNL     1      48.201   6.904  14.716  0.00  0.00    +0.000 N 
ATOM      9  H   UNL     1      48.066   6.949  15.722  0.00  0.00    +0.000 HD
BRANCH   8  10
ATOM     10  C   UNL     1      49.535   7.289  14.246  0.00  0.00    +0.000 C 
ATOM     11  C   UNL     1      50.538   7.341  15.407  0.00  0.00    +0.000 C 
ATOM     12  C   UNL     1      51.265   8.668  15.248  0.00  0.00    +0.000 C 
ATOM     13  N   UNL     1      50.263   9.539  14.638  0.00  0.00    +0.000 NA
ATOM     14  C   UNL     1      50.856  10.726  14.036  0.00  0.00    +0.000 C 
ATOM     15  C   UNL     1      49.567   8.704  13.645  0.00  0.00    +0.000 C 
ENDBRANCH   8  10
ENDBRANCH   7   8
ENDBRANCH   1   5
BRANCH   1  16
ATOM     16  C   UNL     1      43.909   4.849  11.093  0.00  0.00    +0.000 C 
ATOM     17  C   UNL     1      42.694   5.452  11.804  0.00  0.00    +0.000 C 
BRANCH  16  18
ATOM     18  O   UNL     1      43.595   4.604   9.699  0.00  0.00    +0.000 OA
BRANCH  18  19
ATOM     19  C   UNL     1      44.564   3.902   9.012  0.00  0.00    +0.000 A 
ATOM     20  C   UNL     1      44.711   2.542   9.274  0.00  0.00    +0.000 A 
ATOM     21  N   UNL     1      45.627   1.756   8.642  0.00  0.00    +0.000 NA
ATOM     22  C   UNL     1      46.404   2.416   7.735  0.00  0.00    +0.000 A 
ATOM     23  C   UNL     1      46.277   3.776   7.497  0.00  0.00    +0.000 A 
ATOM     24  N   UNL     1      45.358   4.548   8.132  0.00  0.00    +0.000 NA
BRANCH  22  25
ATOM     25  C   UNL     1      47.413   1.633   6.970  0.00  0.00    +0.000 C 
ATOM     26  N   UNL     1      48.483   2.337   6.488  0.00  0.00    +0.000 N 
ATOM     27  O   UNL     1      47.300   0.428   6.782  0.00  0.00    +0.000 OA
ATOM     28  H   UNL     1      48.552   3.336   6.650  0.00  0.00    +0.000 HD
ATOM     29  H   UNL     1      49.198   1.855   5.963  0.00  0.00    +0.000 HD
ENDBRANCH  22  25
ENDBRANCH  18  19
ENDBRANCH  16  18
ENDBRANCH   1  16
TORSDOF 7
ENDMDL
MODEL 6
REMARK VINA RESULT:    -7.577      3.475      5.537
REMARK INTER + INTRA:         -10.809
REMARK INTER:                 -10.784
REMARK INTRA:                  -0.025
REMARK UNBOUND:                -0.131
REMARK  Name = 
REMARK  10 active torsions:
REMARK  status: ('A' for Active; 'I' for Inactive)
REMARK    1  A    between atoms: C_1  and  C_2
REMARK    2  A    between atoms: N_4  and  C_5
REMARK    3  A    between atoms: C_5  and  C_6
REMARK    4  A    between atoms: C_6  and  C_7
REMARK    5  A    between atoms: C_6  and  O_8
REMARK    6  A    between atoms: O_8  and  C_9
REMARK    7  A    between atoms: C_12  and  C_13
REMARK    8  A    between atoms: C_19  and  N_20
REMARK    9  A    between atoms: N_20  and  C_21
REMARK   10  A    between atoms: N_24  and  C_25
REMARK                            x       y       z     vdW  Elec       q    Type
REMARK                         _______ _______ _______ _____ _____    ______ ____
ROOT
ATOM      1  C   UNL     1      44.933   4.259  12.002  0.00  0.00    +0.000 C 
ENDROOT
BRANCH   1   5
ATOM      2  C   UNL     1      47.994   8.008  11.946  0.00  0.00    +0.000 C 
ATOM      3  C   UNL     1      46.716   7.278  12.102  0.00  0.00    +0.000 A 
ATOM      4  N   UNL     1      46.672   5.949  11.935  0.00  0.00    +0.000 NA
ATOM      5  N   UNL     1      45.379   5.635  12.137  0.00  0.00    +0.000 N 
ATOM      6  C   UNL     1      44.593   6.718  12.408  0.00  0.00    +0.000 A 
ATOM      7  C   UNL     1      45.420   7.810  12.370  0.00  0.00    +0.000 A 
BRANCH   7   8
ATOM      8  N   UNL     1      45.075   9.100  12.563  0.00  0.00    +0.000 N 
ATOM      9  H   UNL     1      45.204   9.547  13.466  0.00  0.00    +0.000 HD
BRANCH   8  10
ATOM     10  C   UNL     1      44.787  10.008  11.449  0.00  0.00    +0.000 C 
ATOM     11  C   UNL     1      45.504  11.353  11.633  0.00  0.00    +0.000 C 
ATOM     12  C   UNL     1      44.441  12.410  11.373  0.00  0.00    +0.000 C 
ATOM     13  N   UNL     1      43.204  11.770  11.812  0.00  0.00    +0.000 NA
ATOM     14  C   UNL     1      42.020  12.441  11.290  0.00  0.00    +0.000 C 
ATOM     15  C   UNL     1      43.297  10.376  11.353  0.00  0.00    +0.000 C 
ENDBRANCH   8  10
ENDBRANCH   7   8
ENDBRANCH   1   5
BRANCH   1  16
ATOM     16  C   UNL     1      43.611   4.081  11.238  0.00  0.00    +0.000 C 
ATOM     17  C   UNL     1      42.476   4.859  11.910  0.00  0.00    +0.000 C 
BRANCH  16  18
ATOM     18  O   UNL     1      43.833   4.590   9.898  0.00  0.00    +0.000 OA
BRANCH  18  19
ATOM     19  C   UNL     1      44.763   3.881   9.166  0.00  0.00    +0.000 A 
ATOM     20  C   UNL     1      45.611   4.580   8.311  0.00  0.00    +0.000 A 
ATOM     21  N   UNL     1      46.570   3.977   7.555  0.00  0.00    +0.000 NA
ATOM     22  C   UNL     1      46.625   2.621   7.694  0.00  0.00    +0.000 A 
ATOM     23  C   UNL     1      45.762   1.922   8.523  0.00  0.00    +0.000 A 
ATOM     24  N   UNL     1      44.811   2.536   9.273  0.00  0.00    +0.000 NA
BRANCH  22  25
ATOM     25  C   UNL     1      47.665   1.877   6.931  0.00  0.00    +0.000 C 
ATOM     26  N   UNL     1      48.517   2.637   6.176  0.00  0.00    +0.000 N 
ATOM     27  O   UNL     1      47.760   0.656   6.973  0.00  0.00    +0.000 OA
ATOM     28  H   UNL     1      48.415   3.646   6.150  0.00  0.00    +0.000 HD
ATOM     29  H   UNL     1      49.242   2.184   5.639  0.00  0.00    +0.000 HD
ENDBRANCH  22  25
ENDBRANCH  18  19
ENDBRANCH  16  18
ENDBRANCH   1  16
TORSDOF 7
ENDMDL
MODEL 7
REMARK VINA RESULT:    -6.977      2.105      3.614
REMARK INTER + INTRA:          -9.963
REMARK INTER:                 -10.085
REMARK INTRA:                   0.122
REMARK UNBOUND:                -0.131
REMARK  Name = 
REMARK  10 active torsions:
REMARK  status: ('A' for Active; 'I' for Inactive)
REMARK    1  A    between atoms: C_1  and  C_2
REMARK    2  A    between atoms: N_4  and  C_5
REMARK    3  A    between atoms: C_5  and  C_6
REMARK    4  A    between atoms: C_6  and  C_7
REMARK    5  A    between atoms: C_6  and  O_8
REMARK    6  A    between atoms: O_8  and  C_9
REMARK    7  A    between atoms: C_12  and  C_13
REMARK    8  A    between atoms: C_19  and  N_20
REMARK    9  A    between atoms: N_20  and  C_21
REMARK   10  A    between atoms: N_24  and  C_25
REMARK                            x       y       z     vdW  Elec       q    Type
REMARK                         _______ _______ _______ _____ _____    ______ ____
ROOT
ATOM      1  C   UNL     1      45.423   4.135  11.608  0.00  0.00    +0.000 C 
ENDROOT
BRANCH   1   5
ATOM      2  C   UNL     1      47.312   4.188  16.064  0.00  0.00    +0.000 C 
ATOM      3  C   UNL     1      46.975   4.674  14.706  0.00  0.00    +0.000 A 
ATOM      4  N   UNL     1      46.233   3.920  13.884  0.00  0.00    +0.000 NA
ATOM      5  N   UNL     1      46.138   4.655  12.760  0.00  0.00    +0.000 N 
ATOM      6  C   UNL     1      46.809   5.841  12.830  0.00  0.00    +0.000 A 
ATOM      7  C   UNL     1      47.388   5.882  14.071  0.00  0.00    +0.000 A 
BRANCH   7   8
ATOM      8  N   UNL     1      48.163   6.864  14.576  0.00  0.00    +0.000 N 
ATOM      9  H   UNL     1      49.107   6.671  14.900  0.00  0.00    +0.000 HD
BRANCH   8  10
ATOM     10  C   UNL     1      47.834   8.282  14.416  0.00  0.00    +0.000 C 
ATOM     11  C   UNL     1      48.644   8.914  13.276  0.00  0.00    +0.000 C 
ATOM     12  C   UNL     1      49.205  10.206  13.854  0.00  0.00    +0.000 C 
ATOM     13  N   UNL     1      49.379   9.902  15.272  0.00  0.00    +0.000 NA
ATOM     14  C   UNL     1      49.525  11.106  16.081  0.00  0.00    +0.000 C 
ATOM     15  C   UNL     1      48.194   9.118  15.655  0.00  0.00    +0.000 C 
ENDBRANCH   8  10
ENDBRANCH   7   8
ENDBRANCH   1   5
BRANCH   1  16
ATOM     16  C   UNL     1      44.006   3.619  11.907  0.00  0.00    +0.000 C 
ATOM     17  C   UNL     1      43.159   4.696  12.591  0.00  0.00    +0.000 C 
BRANCH  16  18
ATOM     18  O   UNL     1      43.416   3.260  10.632  0.00  0.00    +0.000 OA
BRANCH  18  19
ATOM     19  C   UNL     1      44.329   3.060   9.618  0.00  0.00    +0.000 A 
ATOM     20  C   UNL     1      44.630   4.127   8.774  0.00  0.00    +0.000 A 
ATOM     21  N   UNL     1      45.525   4.038   7.751  0.00  0.00    +0.000 NA
ATOM     22  C   UNL     1      46.099   2.808   7.611  0.00  0.00    +0.000 A 
ATOM     23  C   UNL     1      45.777   1.739   8.433  0.00  0.00    +0.000 A 
ATOM     24  N   UNL     1      44.884   1.842   9.451  0.00  0.00    +0.000 NA
BRANCH  22  25
ATOM     25  C   UNL     1      47.117   2.624   6.540  0.00  0.00    +0.000 C 
ATOM     26  N   UNL     1      48.234   1.915   6.887  0.00  0.00    +0.000 N 
ATOM     27  O   UNL     1      46.967   3.076   5.411  0.00  0.00    +0.000 OA
ATOM     28  H   UNL     1      48.340   1.556   7.830  0.00  0.00    +0.000 HD
ATOM     29  H   UNL     1      48.956   1.759   6.198  0.00  0.00    +0.000 HD
ENDBRANCH  22  25
ENDBRANCH  18  19
ENDBRANCH  16  18
ENDBRANCH   1  16
TORSDOF 7
ENDMDL
MODEL 8
REMARK VINA RESULT:    -6.879      2.930      7.772
REMARK INTER + INTRA:          -9.826
REMARK INTER:                  -9.010
REMARK INTRA:                  -0.816
REMARK UNBOUND:                -0.131
REMARK  Name = 
REMARK  10 active torsions:
REMARK  status: ('A' for Active; 'I' for Inactive)
REMARK    1  A    between atoms: C_1  and  C_2
REMARK    2  A    between atoms: N_4  and  C_5
REMARK    3  A    between atoms: C_5  and  C_6
REMARK    4  A    between atoms: C_6  and  C_7
REMARK    5  A    between atoms: C_6  and  O_8
REMARK    6  A    between atoms: O_8  and  C_9
REMARK    7  A    between atoms: C_12  and  C_13
REMARK    8  A    between atoms: C_19  and  N_20
REMARK    9  A    between atoms: N_20  and  C_21
REMARK   10  A    between atoms: N_24  and  C_25
REMARK                            x       y       z     vdW  Elec       q    Type
REMARK                         _______ _______ _______ _____ _____    ______ ____
ROOT
ATOM      1  C   UNL     1      46.393   3.785  13.656  0.00  0.00    +0.000 C 
ENDROOT
BRANCH   1   5
ATOM      2  C   UNL     1      42.323   5.378  11.577  0.00  0.00    +0.000 C 
ATOM      3  C   UNL     1      43.695   4.830  11.674  0.00  0.00    +0.000 A 
ATOM      4  N   UNL     1      44.245   4.595  12.873  0.00  0.00    +0.000 NA
ATOM      5  N   UNL     1      45.472   4.122  12.585  0.00  0.00    +0.000 N 
ATOM      6  C   UNL     1      45.731   4.067  11.246  0.00  0.00    +0.000 A 
ATOM      7  C   UNL     1      44.609   4.542  10.619  0.00  0.00    +0.000 A 
BRANCH   7   8
ATOM      8  N   UNL     1      44.418   4.684   9.291  0.00  0.00    +0.000 N 
ATOM      9  H   UNL     1      44.451   5.600   8.852  0.00  0.00    +0.000 HD
BRANCH   8  10
ATOM     10  C   UNL     1      44.455   3.547   8.368  0.00  0.00    +0.000 C 
ATOM     11  C   UNL     1      44.507   2.216   9.131  0.00  0.00    +0.000 C 
ATOM     12  C   UNL     1      45.624   1.421   8.470  0.00  0.00    +0.000 C 
ATOM     13  N   UNL     1      46.556   2.449   8.015  0.00  0.00    +0.000 NA
ATOM     14  C   UNL     1      47.490   1.945   7.016  0.00  0.00    +0.000 C 
ATOM     15  C   UNL     1      45.717   3.537   7.489  0.00  0.00    +0.000 C 
ENDBRANCH   8  10
ENDBRANCH   7   8
ENDBRANCH   1   5
BRANCH   1  16
ATOM     16  C   UNL     1      47.008   4.992  14.383  0.00  0.00    +0.000 C 
ATOM     17  C   UNL     1      47.529   4.595  15.767  0.00  0.00    +0.000 C 
BRANCH  16  18
ATOM     18  O   UNL     1      48.105   5.460  13.558  0.00  0.00    +0.000 OA
BRANCH  18  19
ATOM     19  C   UNL     1      47.947   6.742  13.075  0.00  0.00    +0.000 A 
ATOM     20  C   UNL     1      46.733   7.391  13.293  0.00  0.00    +0.000 A 
ATOM     21  N   UNL     1      46.480   8.660  12.870  0.00  0.00    +0.000 NA
ATOM     22  C   UNL     1      47.513   9.246  12.198  0.00  0.00    +0.000 A 
ATOM     23  C   UNL     1      48.710   8.590  11.956  0.00  0.00    +0.000 A 
ATOM     24  N   UNL     1      48.950   7.324  12.386  0.00  0.00    +0.000 NA
BRANCH  22  25
ATOM     25  C   UNL     1      47.341  10.648  11.725  0.00  0.00    +0.000 C 
ATOM     26  N   UNL     1      48.403  11.191  11.055  0.00  0.00    +0.000 N 
ATOM     27  O   UNL     1      46.311  11.281  11.920  0.00  0.00    +0.000 OA
ATOM     28  H   UNL     1      49.249  10.650  10.913  0.00  0.00    +0.000 HD
ATOM     29  H   UNL     1      48.339  12.139  10.711  0.00  0.00    +0.000 HD
ENDBRANCH  22  25
ENDBRANCH  18  19
ENDBRANCH  16  18
ENDBRANCH   1  16
TORSDOF 7
ENDMDL
MODEL 9
REMARK VINA RESULT:    -6.575      3.358      5.474
REMARK INTER + INTRA:          -9.398
REMARK INTER:                  -8.597
REMARK INTRA:                  -0.801
REMARK UNBOUND:                -0.131
REMARK  Name = 
REMARK  10 active torsions:
REMARK  status: ('A' for Active; 'I' for Inactive)
REMARK    1  A    between atoms: C_1  and  C_2
REMARK    2  A    between atoms: N_4  and  C_5
REMARK    3  A    between atoms: C_5  and  C_6
REMARK    4  A    between atoms: C_6  and  C_7
REMARK    5  A    between atoms: C_6  and  O_8
REMARK    6  A    between atoms: O_8  and  C_9
REMARK    7  A    between atoms: C_12  and  C_13
REMARK    8  A    between atoms: C_19  and  N_20
REMARK    9  A    between atoms: N_20  and  C_21
REMARK   10  A    between atoms: N_24  and  C_25
REMARK                            x       y       z     vdW  Elec       q    Type
REMARK                         _______ _______ _______ _____ _____    ______ ____
ROOT
ATOM      1  C   UNL     1      49.292   6.709  15.406  0.00  0.00    +0.000 C 
ENDROOT
BRANCH   1   5
ATOM      2  C   UNL     1      47.445   2.873  17.710  0.00  0.00    +0.000 C 
ATOM      3  C   UNL     1      47.801   4.289  17.460  0.00  0.00    +0.000 A 
ATOM      4  N   UNL     1      48.430   4.638  16.330  0.00  0.00    +0.000 NA
ATOM      5  N   UNL     1      48.599   5.969  16.446  0.00  0.00    +0.000 N 
ATOM      6  C   UNL     1      48.118   6.477  17.618  0.00  0.00    +0.000 A 
ATOM      7  C   UNL     1      47.612   5.413  18.318  0.00  0.00    +0.000 A 
BRANCH   7   8
ATOM      8  N   UNL     1      47.046   5.439  19.542  0.00  0.00    +0.000 N 
ATOM      9  H   UNL     1      46.066   5.203  19.671  0.00  0.00    +0.000 HD
BRANCH   8  10
ATOM     10  C   UNL     1      47.842   5.503  20.771  0.00  0.00    +0.000 C 
ATOM     11  C   UNL     1      48.190   6.954  21.130  0.00  0.00    +0.000 C 
ATOM     12  C   UNL     1      49.682   6.944  21.431  0.00  0.00    +0.000 C 
ATOM     13  N   UNL     1      50.199   5.884  20.569  0.00  0.00    +0.000 NA
ATOM     14  C   UNL     1      51.523   5.435  20.980  0.00  0.00    +0.000 C 
ATOM     15  C   UNL     1      49.204   4.803  20.633  0.00  0.00    +0.000 C 
ENDBRANCH   8  10
ENDBRANCH   7   8
ENDBRANCH   1   5
BRANCH   1  16
ATOM     16  C   UNL     1      48.405   7.153  14.231  0.00  0.00    +0.000 C 
ATOM     17  C   UNL     1      49.017   8.352  13.501  0.00  0.00    +0.000 C 
BRANCH  16  18
ATOM     18  O   UNL     1      48.309   6.022  13.330  0.00  0.00    +0.000 OA
BRANCH  18  19
ATOM     19  C   UNL     1      47.029   5.749  12.893  0.00  0.00    +0.000 A 
ATOM     20  C   UNL     1      46.232   4.898  13.655  0.00  0.00    +0.000 A 
ATOM     21  N   UNL     1      44.952   4.576  13.319  0.00  0.00    +0.000 NA
ATOM     22  C   UNL     1      44.514   5.147  12.159  0.00  0.00    +0.000 A 
ATOM     23  C   UNL     1      45.318   5.970  11.386  0.00  0.00    +0.000 A 
ATOM     24  N   UNL     1      46.592   6.286  11.734  0.00  0.00    +0.000 NA
BRANCH  22  25
ATOM     25  C   UNL     1      43.115   4.878  11.727  0.00  0.00    +0.000 C 
ATOM     26  N   UNL     1      42.251   5.938  11.791  0.00  0.00    +0.000 N 
ATOM     27  O   UNL     1      42.752   3.776  11.335  0.00  0.00    +0.000 OA
ATOM     28  H   UNL     1      42.572   6.839  12.126  0.00  0.00    +0.000 HD
ATOM     29  H   UNL     1      41.290   5.812  11.508  0.00  0.00    +0.000 HD
ENDBRANCH  22  25
ENDBRANCH  18  19
ENDBRANCH  16  18
ENDBRANCH   1  16
TORSDOF 7
ENDMDL
