MODEL 1
REMARK VINA RESULT:    -9.069      0.000      0.000
REMARK INTER + INTRA:         -14.293
REMARK INTER:                 -13.310
REMARK INTRA:                  -0.983
REMARK UNBOUND:                -0.983
REMARK  Name = 
REMARK  9 active torsions:
REMARK  status: ('A' for Active; 'I' for Inactive)
REMARK    1  A    between atoms: C_1  and  C_2
REMARK    2  A    between atoms: C_2  and  N_3
REMARK    3  A    between atoms: C_2  and  C_21
REMARK    4  A    between atoms: N_3  and  C_4
REMARK    5  A    between atoms: C_4  and  C_5
REMARK    6  A    between atoms: C_8  and  C_9
REMARK    7  A    between atoms: C_9  and  N_10
REMARK    8  A    between atoms: N_10  and  C_11
REMARK    9  A    between atoms: C_11  and  C_12
REMARK                            x       y       z     vdW  Elec       q    Type
REMARK                         _______ _______ _______ _____ _____    ______ ____
ROOT
ATOM      1  C   UNL     1      46.984   5.590  13.435  0.00  0.00    +0.000 A 
ATOM      2  C   UNL     1      45.952   4.707  13.779  0.00  0.00    +0.000 A 
ATOM      3  C   UNL     1      44.872   4.509  12.915  0.00  0.00    +0.000 A 
ATOM      4  C   UNL     1      44.791   5.201  11.698  0.00  0.00    +0.000 A 
ATOM      5  C   UNL     1      45.831   6.067  11.345  0.00  0.00    +0.000 A 
ATOM      6  C   UNL     1      46.916   6.257  12.202  0.00  0.00    +0.000 A 
ENDROOT
BRANCH   1   7
ATOM      7  C   UNL     1      48.108   5.898  14.398  0.00  0.00    +0.000 C 
BRANCH   7   8
ATOM      8  N   UNL     1      47.704   5.767  15.797  0.00  0.00    +0.000 NA
ATOM      9  H   UNL     1      48.212   6.460  16.344  0.00  0.00    +0.000 HD
BRANCH   8  11
ATOM     10  C   UNL     1      46.936   3.930  17.312  0.00  0.00    +0.000 C 
ATOM     11  C   UNL     1      48.017   4.439  16.350  0.00  0.00    +0.000 C 
BRANCH  11  12
ATOM     12  C   UNL     1      49.347   4.529  17.078  0.00  0.00    +0.000 A 
ATOM     13  C   UNL     1      49.817   5.643  17.759  0.00  0.00    +0.000 A 
ATOM     14  S   UNL     1      51.324   5.385  18.520  0.00  0.00    +0.000 S 
ATOM     15  C   UNL     1      51.387   3.771  17.985  0.00  0.00    +0.000 A 
ATOM     16  N   UNL     1      52.423   2.954  18.317  0.00  0.00    +0.000 NA
ATOM     17  C   UNL     1      52.319   1.754  17.854  0.00  0.00    +0.000 A 
ATOM     18  N   UNL     1      51.284   1.291  17.081  0.00  0.00    +0.000 N 
ATOM     19  C   UNL     1      50.214   2.081  16.717  0.00  0.00    +0.000 A 
ATOM     20  O   UNL     1      49.296   1.641  16.034  0.00  0.00    +0.000 OA
ATOM     21  C   UNL     1      50.282   3.440  17.222  0.00  0.00    +0.000 A 
ATOM     22  H   UNL     1      51.266   0.340  16.751  0.00  0.00    +0.000 HD
ENDBRANCH  11  12
ENDBRANCH   8  11
ENDBRANCH   7   8
ENDBRANCH   1   7
BRANCH   4  23
ATOM     23  C   UNL     1      43.591   5.030  10.798  0.00  0.00    +0.000 C 
BRANCH  23  24
ATOM     24  N   UNL     1      44.002   4.511   9.496  0.00  0.00    +0.000 NA
ATOM     25  H   UNL     1      44.774   5.074   9.143  0.00  0.00    +0.000 HD
BRANCH  24  26
ATOM     26  C   UNL     1      44.419   3.118   9.577  0.00  0.00    +0.000 C 
BRANCH  26  27
ATOM     27  C   UNL     1      45.480   2.816   8.541  0.00  0.00    +0.000 A 
ATOM     28  C   UNL     1      46.006   1.521   8.403  0.00  0.00    +0.000 A 
ATOM     29  C   UNL     1      46.940   1.244   7.404  0.00  0.00    +0.000 A 
ATOM     30  C   UNL     1      47.355   2.257   6.548  0.00  0.00    +0.000 A 
ATOM     31  F   UNL     1      48.235   1.983   5.576  0.00  0.00    +0.000 F 
ATOM     32  C   UNL     1      46.867   3.551   6.682  0.00  0.00    +0.000 A 
ATOM     33  C   UNL     1      45.930   3.829   7.677  0.00  0.00    +0.000 A 
ENDBRANCH  26  27
ENDBRANCH  24  26
ENDBRANCH  23  24
ENDBRANCH   4  23
TORSDOF 8
ENDMDL
MODEL 2
REMARK VINA RESULT:    -8.497      1.428      1.817
REMARK INTER + INTRA:         -13.454
REMARK INTER:                 -12.130
REMARK INTRA:                  -1.324
REMARK UNBOUND:                -0.983
REMARK  Name = 
REMARK  9 active torsions:
REMARK  status: ('A' for Active; 'I' for Inactive)
REMARK    1  A    between atoms: C_1  and  C_2
REMARK    2  A    between atoms: C_2  and  N_3
REMARK    3  A    between atoms: C_2  and  C_21
REMARK    4  A    between atoms: N_3  and  C_4
REMARK    5  A    between atoms: C_4  and  C_5
REMARK    6  A    between atoms: C_8  and  C_9
REMARK    7  A    between atoms: C_9  and  N_10
REMARK    8  A    between atoms: N_10  and  C_11
REMARK    9  A    between atoms: C_11  and  C_12
REMARK                            x       y       z     vdW  Elec       q    Type
REMARK                         _______ _______ _______ _____ _____    ______ ____
ROOT
ATOM      1  C   UNL     1      47.073   5.957  12.966  0.00  0.00    +0.000 A 
ATOM      2  C   UNL     1      46.181   4.989  13.445  0.00  0.00    +0.000 A 
ATOM      3  C   UNL     1      45.052   4.637  12.702  0.00  0.00    +0.000 A 
ATOM      4  C   UNL     1      44.780   5.256  11.473  0.00  0.00    +0.000 A 
ATOM      5  C   UNL     1      45.681   6.207  10.984  0.00  0.00    +0.000 A 
ATOM      6  C   UNL     1      46.816   6.551  11.721  0.00  0.00    +0.000 A 
ENDROOT
BRANCH   1   7
ATOM      7  C   UNL     1      48.244   6.427  13.798  0.00  0.00    +0.000 C 
BRANCH   7   8
ATOM      8  N   UNL     1      48.130   6.039  15.203  0.00  0.00    +0.000 NA
ATOM      9  H   UNL     1      47.141   5.968  15.437  0.00  0.00    +0.000 HD
BRANCH   8  11
ATOM     10  C   UNL     1      48.656   8.458  15.565  0.00  0.00    +0.000 C 
ATOM     11  C   UNL     1      48.738   7.027  16.110  0.00  0.00    +0.000 C 
BRANCH  11  12
ATOM     12  C   UNL     1      50.192   6.644  16.321  0.00  0.00    +0.000 A 
ATOM     13  C   UNL     1      51.288   7.373  15.882  0.00  0.00    +0.000 A 
ATOM     14  S   UNL     1      52.784   6.691  16.344  0.00  0.00    +0.000 S 
ATOM     15  C   UNL     1      52.018   5.411  17.164  0.00  0.00    +0.000 A 
ATOM     16  N   UNL     1      52.735   4.462  17.824  0.00  0.00    +0.000 NA
ATOM     17  C   UNL     1      52.012   3.569  18.414  0.00  0.00    +0.000 A 
ATOM     18  N   UNL     1      50.640   3.527  18.401  0.00  0.00    +0.000 N 
ATOM     19  C   UNL     1      49.871   4.465  17.745  0.00  0.00    +0.000 A 
ATOM     20  O   UNL     1      48.647   4.410  17.757  0.00  0.00    +0.000 OA
ATOM     21  C   UNL     1      50.641   5.495  17.072  0.00  0.00    +0.000 A 
ATOM     22  H   UNL     1      50.139   2.800  18.883  0.00  0.00    +0.000 HD
ENDBRANCH  11  12
ENDBRANCH   8  11
ENDBRANCH   7   8
ENDBRANCH   1   7
BRANCH   4  23
ATOM     23  C   UNL     1      43.525   4.917  10.705  0.00  0.00    +0.000 C 
BRANCH  23  24
ATOM     24  N   UNL     1      43.864   4.337   9.409  0.00  0.00    +0.000 NA
ATOM     25  H   UNL     1      44.565   4.922   8.956  0.00  0.00    +0.000 HD
BRANCH  24  26
ATOM     26  C   UNL     1      44.383   2.981   9.541  0.00  0.00    +0.000 C 
BRANCH  26  27
ATOM     27  C   UNL     1      45.441   2.708   8.496  0.00  0.00    +0.000 A 
ATOM     28  C   UNL     1      45.983   1.422   8.337  0.00  0.00    +0.000 A 
ATOM     29  C   UNL     1      46.915   1.172   7.328  0.00  0.00    +0.000 A 
ATOM     30  C   UNL     1      47.310   2.202   6.484  0.00  0.00    +0.000 A 
ATOM     31  F   UNL     1      48.188   1.952   5.502  0.00  0.00    +0.000 F 
ATOM     32  C   UNL     1      46.806   3.487   6.638  0.00  0.00    +0.000 A 
ATOM     33  C   UNL     1      45.872   3.739   7.643  0.00  0.00    +0.000 A 
ENDBRANCH  26  27
ENDBRANCH  24  26
ENDBRANCH  23  24
ENDBRANCH   4  23
TORSDOF 8
ENDMDL
MODEL 3
REMARK VINA RESULT:    -8.307      2.559      3.654
REMARK INTER + INTRA:         -13.175
REMARK INTER:                 -12.105
REMARK INTRA:                  -1.070
REMARK UNBOUND:                -0.983
REMARK  Name = 
REMARK  9 active torsions:
REMARK  status: ('A' for Active; 'I' for Inactive)
REMARK    1  A    between atoms: C_1  and  C_2
REMARK    2  A    between atoms: C_2  and  N_3
REMARK    3  A    between atoms: C_2  and  C_21
REMARK    4  A    between atoms: N_3  and  C_4
REMARK    5  A    between atoms: C_4  and  C_5
REMARK    6  A    between atoms: C_8  and  C_9
REMARK    7  A    between atoms: C_9  and  N_10
REMARK    8  A    between atoms: N_10  and  C_11
REMARK    9  A    between atoms: C_11  and  C_12
REMARK                            x       y       z     vdW  Elec       q    Type
REMARK                         _______ _______ _______ _____ _____    ______ ____
ROOT
ATOM      1  C   UNL     1      46.906   5.998  12.903  0.00  0.00    +0.000 A 
ATOM      2  C   UNL     1      46.675   6.570  11.645  0.00  0.00    +0.000 A 
ATOM      3  C   UNL     1      45.524   6.250  10.922  0.00  0.00    +0.000 A 
ATOM      4  C   UNL     1      44.588   5.338  11.431  0.00  0.00    +0.000 A 
ATOM      5  C   UNL     1      44.807   4.782  12.695  0.00  0.00    +0.000 A 
ATOM      6  C   UNL     1      45.951   5.110  13.424  0.00  0.00    +0.000 A 
ENDROOT
BRANCH   1   7
ATOM      7  C   UNL     1      48.191   6.250  13.657  0.00  0.00    +0.000 C 
BRANCH   7   8
ATOM      8  N   UNL     1      48.137   5.776  15.040  0.00  0.00    +0.000 NA
ATOM      9  H   UNL     1      47.160   5.651  15.298  0.00  0.00    +0.000 HD
BRANCH   8  11
ATOM     10  C   UNL     1      50.208   7.025  15.675  0.00  0.00    +0.000 C 
ATOM     11  C   UNL     1      48.736   6.732  15.985  0.00  0.00    +0.000 C 
BRANCH  11  12
ATOM     12  C   UNL     1      48.613   6.155  17.385  0.00  0.00    +0.000 A 
ATOM     13  C   UNL     1      48.938   4.856  17.750  0.00  0.00    +0.000 A 
ATOM     14  S   UNL     1      48.742   4.553  19.419  0.00  0.00    +0.000 S 
ATOM     15  C   UNL     1      48.237   6.153  19.712  0.00  0.00    +0.000 A 
ATOM     16  N   UNL     1      47.934   6.581  20.968  0.00  0.00    +0.000 NA
ATOM     17  C   UNL     1      47.587   7.823  21.032  0.00  0.00    +0.000 A 
ATOM     18  N   UNL     1      47.505   8.678  19.962  0.00  0.00    +0.000 N 
ATOM     19  C   UNL     1      47.800   8.290  18.673  0.00  0.00    +0.000 A 
ATOM     20  O   UNL     1      47.729   9.076  17.734  0.00  0.00    +0.000 OA
ATOM     21  C   UNL     1      48.204   6.901  18.551  0.00  0.00    +0.000 A 
ATOM     22  H   UNL     1      47.227   9.638  20.084  0.00  0.00    +0.000 HD
ENDBRANCH  11  12
ENDBRANCH   8  11
ENDBRANCH   7   8
ENDBRANCH   1   7
BRANCH   4  23
ATOM     23  C   UNL     1      43.378   4.947  10.616  0.00  0.00    +0.000 C 
BRANCH  23  24
ATOM     24  N   UNL     1      43.790   4.362   9.344  0.00  0.00    +0.000 NA
ATOM     25  H   UNL     1      44.496   4.959   8.916  0.00  0.00    +0.000 HD
BRANCH  24  26
ATOM     26  C   UNL     1      44.334   3.021   9.516  0.00  0.00    +0.000 C 
BRANCH  26  27
ATOM     27  C   UNL     1      45.409   2.743   8.490  0.00  0.00    +0.000 A 
ATOM     28  C   UNL     1      45.987   1.468   8.377  0.00  0.00    +0.000 A 
ATOM     29  C   UNL     1      46.936   1.211   7.385  0.00  0.00    +0.000 A 
ATOM     30  C   UNL     1      47.312   2.224   6.512  0.00  0.00    +0.000 A 
ATOM     31  F   UNL     1      48.206   1.967   5.548  0.00  0.00    +0.000 F 
ATOM     32  C   UNL     1      46.772   3.499   6.622  0.00  0.00    +0.000 A 
ATOM     33  C   UNL     1      45.822   3.758   7.608  0.00  0.00    +0.000 A 
ENDBRANCH  26  27
ENDBRANCH  24  26
ENDBRANCH  23  24
ENDBRANCH   4  23
TORSDOF 8
ENDMDL
MODEL 4
REMARK VINA RESULT:    -8.266      4.246      6.414
REMARK INTER + INTRA:         -13.115
REMARK INTER:                 -11.739
REMARK INTRA:                  -1.377
REMARK UNBOUND:                -0.983
REMARK  Name = 
REMARK  9 active torsions:
REMARK  status: ('A' for Active; 'I' for Inactive)
REMARK    1  A    between atoms: C_1  and  C_2
REMARK    2  A    between atoms: C_2  and  N_3
REMARK    3  A    between atoms: C_2  and  C_21
REMARK    4  A    between atoms: N_3  and  C_4
REMARK    5  A    between atoms: C_4  and  C_5
REMARK    6  A    between atoms: C_8  and  C_9
REMARK    7  A    between atoms: C_9  and  N_10
REMARK    8  A    between atoms: N_10  and  C_11
REMARK    9  A    between atoms: C_11  and  C_12
REMARK                            x       y       z     vdW  Elec       q    Type
REMARK                         _______ _______ _______ _____ _____    ______ ____
ROOT
ATOM      1  C   UNL     1      46.493   5.326  13.536  0.00  0.00    +0.000 A 
ATOM      2  C   UNL     1      45.235   5.856  13.225  0.00  0.00    +0.000 A 
ATOM      3  C   UNL     1      44.244   5.047  12.665  0.00  0.00    +0.000 A 
ATOM      4  C   UNL     1      44.495   3.695  12.387  0.00  0.00    +0.000 A 
ATOM      5  C   UNL     1      45.744   3.160  12.716  0.00  0.00    +0.000 A 
ATOM      6  C   UNL     1      46.731   3.966  13.287  0.00  0.00    +0.000 A 
ENDROOT
BRANCH   1   7
ATOM      7  C   UNL     1      47.612   6.205  14.046  0.00  0.00    +0.000 C 
BRANCH   7   8
ATOM      8  N   UNL     1      47.428   7.613  13.698  0.00  0.00    +0.000 NA
ATOM      9  H   UNL     1      46.429   7.813  13.686  0.00  0.00    +0.000 HD
BRANCH   8  11
ATOM     10  C   UNL     1      49.314   7.254  12.094  0.00  0.00    +0.000 C 
ATOM     11  C   UNL     1      47.969   7.938  12.367  0.00  0.00    +0.000 C 
BRANCH  11  12
ATOM     12  C   UNL     1      48.135   9.445  12.279  0.00  0.00    +0.000 A 
ATOM     13  C   UNL     1      49.347  10.120  12.241  0.00  0.00    +0.000 A 
ATOM     14  S   UNL     1      49.175  11.811  12.076  0.00  0.00    +0.000 S 
ATOM     15  C   UNL     1      47.478  11.696  12.027  0.00  0.00    +0.000 A 
ATOM     16  N   UNL     1      46.697  12.798  11.866  0.00  0.00    +0.000 NA
ATOM     17  C   UNL     1      45.431  12.548  11.828  0.00  0.00    +0.000 A 
ATOM     18  N   UNL     1      44.867  11.302  11.945  0.00  0.00    +0.000 N 
ATOM     19  C   UNL     1      45.616  10.157  12.111  0.00  0.00    +0.000 A 
ATOM     20  O   UNL     1      45.089   9.054  12.202  0.00  0.00    +0.000 OA
ATOM     21  C   UNL     1      47.049  10.387  12.152  0.00  0.00    +0.000 A 
ATOM     22  H   UNL     1      43.869  11.178  11.907  0.00  0.00    +0.000 HD
ENDBRANCH  11  12
ENDBRANCH   8  11
ENDBRANCH   7   8
ENDBRANCH   1   7
BRANCH   4  23
ATOM     23  C   UNL     1      43.440   2.841  11.724  0.00  0.00    +0.000 C 
BRANCH  23  24
ATOM     24  N   UNL     1      43.948   2.291  10.470  0.00  0.00    +0.000 NA
ATOM     25  H   UNL     1      43.269   1.628  10.098  0.00  0.00    +0.000 HD
BRANCH  24  26
ATOM     26  C   UNL     1      44.194   3.333   9.482  0.00  0.00    +0.000 C 
BRANCH  26  27
ATOM     27  C   UNL     1      45.316   2.934   8.550  0.00  0.00    +0.000 A 
ATOM     28  C   UNL     1      45.807   1.619   8.531  0.00  0.00    +0.000 A 
ATOM     29  C   UNL     1      46.802   1.251   7.624  0.00  0.00    +0.000 A 
ATOM     30  C   UNL     1      47.313   2.195   6.742  0.00  0.00    +0.000 A 
ATOM     31  F   UNL     1      48.252   1.833   5.858  0.00  0.00    +0.000 F 
ATOM     32  C   UNL     1      46.861   3.509   6.760  0.00  0.00    +0.000 A 
ATOM     33  C   UNL     1      45.864   3.877   7.662  0.00  0.00    +0.000 A 
ENDBRANCH  26  27
ENDBRANCH  24  26
ENDBRANCH  23  24
ENDBRANCH   4  23
TORSDOF 8
ENDMDL
MODEL 5
REMARK VINA RESULT:    -7.728      2.347      3.104
REMARK INTER + INTRA:         -12.325
REMARK INTER:                 -11.511
REMARK INTRA:                  -0.814
REMARK UNBOUND:                -0.983
REMARK  Name = 
REMARK  9 active torsions:
REMARK  status: ('A' for Active; 'I' for Inactive)
REMARK    1  A    between atoms: C_1  and  C_2
REMARK    2  A    between atoms: C_2  and  N_3
REMARK    3  A    between atoms: C_2  and  C_21
REMARK    4  A    between atoms: N_3  and  C_4
REMARK    5  A    between atoms: C_4  and  C_5
REMARK    6  A    between atoms: C_8  and  C_9
REMARK    7  A    between atoms: C_9  and  N_10
REMARK    8  A    between atoms: N_10  and  C_11
REMARK    9  A    between atoms: C_11  and  C_12
REMARK                            x       y       z     vdW  Elec       q    Type
REMARK                         _______ _______ _______ _____ _____    ______ ____
ROOT
ATOM      1  C   UNL     1      47.245   6.293  13.062  0.00  0.00    +0.000 A 
ATOM      2  C   UNL     1      46.975   5.083  13.715  0.00  0.00    +0.000 A 
ATOM      3  C   UNL     1      46.021   4.200  13.204  0.00  0.00    +0.000 A 
ATOM      4  C   UNL     1      45.304   4.514  12.040  0.00  0.00    +0.000 A 
ATOM      5  C   UNL     1      45.588   5.712  11.376  0.00  0.00    +0.000 A 
ATOM      6  C   UNL     1      46.549   6.590  11.880  0.00  0.00    +0.000 A 
ENDROOT
BRANCH   1   7
ATOM      7  C   UNL     1      48.197   7.308  13.651  0.00  0.00    +0.000 C 
BRANCH   7   8
ATOM      8  N   UNL     1      49.215   6.698  14.505  0.00  0.00    +0.000 NA
ATOM      9  H   UNL     1      48.751   6.072  15.161  0.00  0.00    +0.000 HD
BRANCH   8  11
ATOM     10  C   UNL     1      51.383   7.231  15.634  0.00  0.00    +0.000 C 
ATOM     11  C   UNL     1      49.964   7.696  15.287  0.00  0.00    +0.000 C 
BRANCH  11  12
ATOM     12  C   UNL     1      49.191   7.974  16.565  0.00  0.00    +0.000 A 
ATOM     13  C   UNL     1      48.731   9.218  16.973  0.00  0.00    +0.000 A 
ATOM     14  S   UNL     1      47.843   9.166  18.431  0.00  0.00    +0.000 S 
ATOM     15  C   UNL     1      48.025   7.478  18.553  0.00  0.00    +0.000 A 
ATOM     16  N   UNL     1      47.466   6.778  19.578  0.00  0.00    +0.000 NA
ATOM     17  C   UNL     1      47.674   5.505  19.523  0.00  0.00    +0.000 A 
ATOM     18  N   UNL     1      48.395   4.863  18.547  0.00  0.00    +0.000 N 
ATOM     19  C   UNL     1      48.980   5.529  17.492  0.00  0.00    +0.000 A 
ATOM     20  O   UNL     1      49.610   4.931  16.627  0.00  0.00    +0.000 OA
ATOM     21  C   UNL     1      48.766   6.965  17.506  0.00  0.00    +0.000 A 
ATOM     22  H   UNL     1      48.519   3.864  18.565  0.00  0.00    +0.000 HD
ENDBRANCH  11  12
ENDBRANCH   8  11
ENDBRANCH   7   8
ENDBRANCH   1   7
BRANCH   4  23
ATOM     23  C   UNL     1      44.230   3.585  11.528  0.00  0.00    +0.000 C 
BRANCH  23  24
ATOM     24  N   UNL     1      44.235   3.558  10.068  0.00  0.00    +0.000 NA
ATOM     25  H   UNL     1      44.943   4.206   9.726  0.00  0.00    +0.000 HD
BRANCH  24  26
ATOM     26  C   UNL     1      44.516   2.224   9.553  0.00  0.00    +0.000 C 
BRANCH  26  27
ATOM     27  C   UNL     1      45.518   2.286   8.421  0.00  0.00    +0.000 A 
ATOM     28  C   UNL     1      46.290   1.165   8.078  0.00  0.00    +0.000 A 
ATOM     29  C   UNL     1      47.168   1.220   6.994  0.00  0.00    +0.000 A 
ATOM     30  C   UNL     1      47.280   2.393   6.257  0.00  0.00    +0.000 A 
ATOM     31  F   UNL     1      48.106   2.435   5.203  0.00  0.00    +0.000 F 
ATOM     32  C   UNL     1      46.545   3.523   6.594  0.00  0.00    +0.000 A 
ATOM     33  C   UNL     1      45.665   3.469   7.674  0.00  0.00    +0.000 A 
ENDBRANCH  26  27
ENDBRANCH  24  26
ENDBRANCH  23  24
ENDBRANCH   4  23
TORSDOF 8
ENDMDL
MODEL 6
REMARK VINA RESULT:    -7.483      3.695      4.255
REMARK INTER + INTRA:         -11.966
REMARK INTER:                 -10.693
REMARK INTRA:                  -1.274
REMARK UNBOUND:                -0.983
REMARK  Name = 
REMARK  9 active torsions:
REMARK  status: ('A' for Active; 'I' for Inactive)
REMARK    1  A    between atoms: C_1  and  C_2
REMARK    2  A    between atoms: C_2  and  N_3
REMARK    3  A    between atoms: C_2  and  C_21
REMARK    4  A    between atoms: N_3  and  C_4
REMARK    5  A    between atoms: C_4  and  C_5
REMARK    6  A    between atoms: C_8  and  C_9
REMARK    7  A    between atoms: C_9  and  N_10
REMARK    8  A    between atoms: N_10  and  C_11
REMARK    9  A    between atoms: C_11  and  C_12
REMARK                            x       y       z     vdW  Elec       q    Type
REMARK                         _______ _______ _______ _____ _____    ______ ____
ROOT
ATOM      1  C   UNL     1      46.585   5.404  13.507  0.00  0.00    +0.000 A 
ATOM      2  C   UNL     1      45.337   5.962  13.201  0.00  0.00    +0.000 A 
ATOM      3  C   UNL     1      44.317   5.168  12.671  0.00  0.00    +0.000 A 
ATOM      4  C   UNL     1      44.528   3.804  12.419  0.00  0.00    +0.000 A 
ATOM      5  C   UNL     1      45.766   3.242  12.743  0.00  0.00    +0.000 A 
ATOM      6  C   UNL     1      46.782   4.032  13.284  0.00  0.00    +0.000 A 
ENDROOT
BRANCH   1   7
ATOM      7  C   UNL     1      47.733   6.262  13.985  0.00  0.00    +0.000 C 
BRANCH   7   8
ATOM      8  N   UNL     1      47.342   7.652  14.214  0.00  0.00    +0.000 NA
ATOM      9  H   UNL     1      46.385   7.775  13.888  0.00  0.00    +0.000 HD
BRANCH   8  11
ATOM     10  C   UNL     1      48.263   8.301  11.981  0.00  0.00    +0.000 C 
ATOM     11  C   UNL     1      48.194   8.604  13.483  0.00  0.00    +0.000 C 
BRANCH  11  12
ATOM     12  C   UNL     1      49.589   8.548  14.080  0.00  0.00    +0.000 A 
ATOM     13  C   UNL     1      50.751   8.245  13.383  0.00  0.00    +0.000 A 
ATOM     14  S   UNL     1      52.159   8.331  14.346  0.00  0.00    +0.000 S 
ATOM     15  C   UNL     1      51.266   8.797  15.718  0.00  0.00    +0.000 A 
ATOM     16  N   UNL     1      51.878   9.066  16.903  0.00  0.00    +0.000 NA
ATOM     17  C   UNL     1      51.071   9.426  17.845  0.00  0.00    +0.000 A 
ATOM     18  N   UNL     1      49.709   9.534  17.720  0.00  0.00    +0.000 N 
ATOM     19  C   UNL     1      49.044   9.270  16.541  0.00  0.00    +0.000 A 
ATOM     20  O   UNL     1      47.827   9.384  16.453  0.00  0.00    +0.000 OA
ATOM     21  C   UNL     1      49.912   8.869  15.450  0.00  0.00    +0.000 A 
ATOM     22  H   UNL     1      49.137   9.820  18.497  0.00  0.00    +0.000 HD
ENDBRANCH  11  12
ENDBRANCH   8  11
ENDBRANCH   7   8
ENDBRANCH   1   7
BRANCH   4  23
ATOM     23  C   UNL     1      43.442   2.966  11.786  0.00  0.00    +0.000 C 
BRANCH  23  24
ATOM     24  N   UNL     1      43.915   2.386  10.532  0.00  0.00    +0.000 NA
ATOM     25  H   UNL     1      43.213   1.735  10.182  0.00  0.00    +0.000 HD
BRANCH  24  26
ATOM     26  C   UNL     1      44.169   3.408   9.525  0.00  0.00    +0.000 C 
BRANCH  26  27
ATOM     27  C   UNL     1      45.269   2.970   8.583  0.00  0.00    +0.000 A 
ATOM     28  C   UNL     1      45.749   1.651   8.597  0.00  0.00    +0.000 A 
ATOM     29  C   UNL     1      46.722   1.246   7.682  0.00  0.00    +0.000 A 
ATOM     30  C   UNL     1      47.221   2.158   6.759  0.00  0.00    +0.000 A 
ATOM     31  F   UNL     1      48.139   1.760   5.868  0.00  0.00    +0.000 F 
ATOM     32  C   UNL     1      46.780   3.475   6.744  0.00  0.00    +0.000 A 
ATOM     33  C   UNL     1      45.805   3.880   7.654  0.00  0.00    +0.000 A 
ENDBRANCH  26  27
ENDBRANCH  24  26
ENDBRANCH  23  24
ENDBRANCH   4  23
TORSDOF 8
ENDMDL
MODEL 7
REMARK VINA RESULT:    -7.381      3.988      4.747
REMARK INTER + INTRA:         -11.817
REMARK INTER:                 -10.709
REMARK INTRA:                  -1.107
REMARK UNBOUND:                -0.983
REMARK  Name = 
REMARK  9 active torsions:
REMARK  status: ('A' for Active; 'I' for Inactive)
REMARK    1  A    between atoms: C_1  and  C_2
REMARK    2  A    between atoms: C_2  and  N_3
REMARK    3  A    between atoms: C_2  and  C_21
REMARK    4  A    between atoms: N_3  and  C_4
REMARK    5  A    between atoms: C_4  and  C_5
REMARK    6  A    between atoms: C_8  and  C_9
REMARK    7  A    between atoms: C_9  and  N_10
REMARK    8  A    between atoms: N_10  and  C_11
REMARK    9  A    between atoms: C_11  and  C_12
REMARK                            x       y       z     vdW  Elec       q    Type
REMARK                         _______ _______ _______ _____ _____    ______ ____
ROOT
ATOM      1  C   UNL     1      46.637   5.708  13.418  0.00  0.00    +0.000 A 
ATOM      2  C   UNL     1      45.344   6.164  13.129  0.00  0.00    +0.000 A 
ATOM      3  C   UNL     1      44.359   5.273  12.697  0.00  0.00    +0.000 A 
ATOM      4  C   UNL     1      44.648   3.911  12.528  0.00  0.00    +0.000 A 
ATOM      5  C   UNL     1      45.932   3.451  12.837  0.00  0.00    +0.000 A 
ATOM      6  C   UNL     1      46.914   4.339  13.279  0.00  0.00    +0.000 A 
ENDROOT
BRANCH   1   7
ATOM      7  C   UNL     1      47.745   6.667  13.788  0.00  0.00    +0.000 C 
BRANCH   7   8
ATOM      8  N   UNL     1      47.241   7.965  14.237  0.00  0.00    +0.000 NA
ATOM      9  H   UNL     1      46.223   7.943  14.205  0.00  0.00    +0.000 HD
BRANCH   8  11
ATOM     10  C   UNL     1      46.763   9.314  12.185  0.00  0.00    +0.000 C 
ATOM     11  C   UNL     1      47.695   9.071  13.378  0.00  0.00    +0.000 C 
BRANCH  11  12
ATOM     12  C   UNL     1      49.090   8.741  12.877  0.00  0.00    +0.000 A 
ATOM     13  C   UNL     1      49.415   8.386  11.575  0.00  0.00    +0.000 A 
ATOM     14  S   UNL     1      51.088   8.141  11.337  0.00  0.00    +0.000 S 
ATOM     15  C   UNL     1      51.437   8.523  12.959  0.00  0.00    +0.000 A 
ATOM     16  N   UNL     1      52.715   8.534  13.424  0.00  0.00    +0.000 NA
ATOM     17  C   UNL     1      52.821   8.862  14.669  0.00  0.00    +0.000 A 
ATOM     18  N   UNL     1      51.771   9.171  15.497  0.00  0.00    +0.000 N 
ATOM     19  C   UNL     1      50.460   9.171  15.072  0.00  0.00    +0.000 A 
ATOM     20  O   UNL     1      49.541   9.461  15.829  0.00  0.00    +0.000 OA
ATOM     21  C   UNL     1      50.291   8.816  13.674  0.00  0.00    +0.000 A 
ATOM     22  H   UNL     1      51.925   9.418  16.461  0.00  0.00    +0.000 HD
ENDBRANCH  11  12
ENDBRANCH   8  11
ENDBRANCH   7   8
ENDBRANCH   1   7
BRANCH   4  23
ATOM     23  C   UNL     1      43.596   2.965  12.000  0.00  0.00    +0.000 C 
BRANCH  23  24
ATOM     24  N   UNL     1      44.039   2.362  10.746  0.00  0.00    +0.000 NA
ATOM     25  H   UNL     1      43.380   1.633  10.476  0.00  0.00    +0.000 HD
BRANCH  24  26
ATOM     26  C   UNL     1      44.133   3.346   9.676  0.00  0.00    +0.000 C 
BRANCH  26  27
ATOM     27  C   UNL     1      45.200   2.954   8.679  0.00  0.00    +0.000 A 
ATOM     28  C   UNL     1      45.775   3.907   7.823  0.00  0.00    +0.000 A 
ATOM     29  C   UNL     1      46.801   3.542   6.950  0.00  0.00    +0.000 A 
ATOM     30  C   UNL     1      47.249   2.227   6.925  0.00  0.00    +0.000 A 
ATOM     31  F   UNL     1      48.249   1.885   6.102  0.00  0.00    +0.000 F 
ATOM     32  C   UNL     1      46.678   1.261   7.744  0.00  0.00    +0.000 A 
ATOM     33  C   UNL     1      45.656   1.625   8.620  0.00  0.00    +0.000 A 
ENDBRANCH  26  27
ENDBRANCH  24  26
ENDBRANCH  23  24
ENDBRANCH   4  23
TORSDOF 8
ENDMDL
MODEL 8
REMARK VINA RESULT:    -7.348      3.363      4.898
REMARK INTER + INTRA:         -11.767
REMARK INTER:                 -10.893
REMARK INTRA:                  -0.874
REMARK UNBOUND:                -0.983
REMARK  Name = 
REMARK  9 active torsions:
REMARK  status: ('A' for Active; 'I' for Inactive)
REMARK    1  A    between atoms: C_1  and  C_2
REMARK    2  A    between atoms: C_2  and  N_3
REMARK    3  A    between atoms: C_2  and  C_21
REMARK    4  A    between atoms: N_3  and  C_4
REMARK    5  A    between atoms: C_4  and  C_5
REMARK    6  A    between atoms: C_8  and  C_9
REMARK    7  A    between atoms: C_9  and  N_10
REMARK    8  A    between atoms: N_10  and  C_11
REMARK    9  A    between atoms: C_11  and  C_12
REMARK                            x       y       z     vdW  Elec       q    Type
REMARK                         _______ _______ _______ _____ _____    ______ ____
ROOT
ATOM      1  C   UNL     1      47.425   5.809  13.727  0.00  0.00    +0.000 A 
ATOM      2  C   UNL     1      47.012   4.594  14.289  0.00  0.00    +0.000 A 
ATOM      3  C   UNL     1      46.052   3.807  13.649  0.00  0.00    +0.000 A 
ATOM      4  C   UNL     1      45.471   4.226  12.442  0.00  0.00    +0.000 A 
ATOM      5  C   UNL     1      45.898   5.428  11.869  0.00  0.00    +0.000 A 
ATOM      6  C   UNL     1      46.866   6.209  12.504  0.00  0.00    +0.000 A 
ENDROOT
BRANCH   1   7
ATOM      7  C   UNL     1      48.385   6.724  14.452  0.00  0.00    +0.000 C 
BRANCH   7   8
ATOM      8  N   UNL     1      48.315   6.579  15.905  0.00  0.00    +0.000 NA
ATOM      9  H   UNL     1      47.387   6.864  16.212  0.00  0.00    +0.000 HD
BRANCH   8  11
ATOM     10  C   UNL     1      50.459   6.609  17.193  0.00  0.00    +0.000 C 
ATOM     11  C   UNL     1      49.300   7.422  16.602  0.00  0.00    +0.000 C 
BRANCH  11  12
ATOM     12  C   UNL     1      48.583   8.170  17.712  0.00  0.00    +0.000 A 
ATOM     13  C   UNL     1      48.205   7.630  18.933  0.00  0.00    +0.000 A 
ATOM     14  S   UNL     1      47.474   8.766  19.978  0.00  0.00    +0.000 S 
ATOM     15  C   UNL     1      47.658  10.021  18.843  0.00  0.00    +0.000 A 
ATOM     16  N   UNL     1      47.258  11.291  19.121  0.00  0.00    +0.000 NA
ATOM     17  C   UNL     1      47.482  12.135  18.170  0.00  0.00    +0.000 A 
ATOM     18  N   UNL     1      48.059  11.831  16.962  0.00  0.00    +0.000 N 
ATOM     19  C   UNL     1      48.477  10.559  16.635  0.00  0.00    +0.000 A 
ATOM     20  O   UNL     1      48.999  10.315  15.552  0.00  0.00    +0.000 OA
ATOM     21  C   UNL     1      48.253   9.575  17.678  0.00  0.00    +0.000 A 
ATOM     22  H   UNL     1      48.204  12.540  16.263  0.00  0.00    +0.000 HD
ENDBRANCH  11  12
ENDBRANCH   8  11
ENDBRANCH   7   8
ENDBRANCH   1   7
BRANCH   4  23
ATOM     23  C   UNL     1      44.388   3.401  11.787  0.00  0.00    +0.000 C 
BRANCH  23  24
ATOM     24  N   UNL     1      44.958   2.550  10.746  0.00  0.00    +0.000 NA
ATOM     25  H   UNL     1      44.774   1.575  10.977  0.00  0.00    +0.000 HD
BRANCH  24  26
ATOM     26  C   UNL     1      44.394   2.848   9.436  0.00  0.00    +0.000 C 
BRANCH  26  27
ATOM     27  C   UNL     1      45.408   2.584   8.344  0.00  0.00    +0.000 A 
ATOM     28  C   UNL     1      45.731   3.575   7.404  0.00  0.00    +0.000 A 
ATOM     29  C   UNL     1      46.711   3.336   6.439  0.00  0.00    +0.000 A 
ATOM     30  C   UNL     1      47.363   2.110   6.407  0.00  0.00    +0.000 A 
ATOM     31  F   UNL     1      48.319   1.892   5.494  0.00  0.00    +0.000 F 
ATOM     32  C   UNL     1      47.041   1.105   7.312  0.00  0.00    +0.000 A 
ATOM     33  C   UNL     1      46.065   1.343   8.279  0.00  0.00    +0.000 A 
ENDBRANCH  26  27
ENDBRANCH  24  26
ENDBRANCH  23  24
ENDBRANCH   4  23
TORSDOF 8
ENDMDL
MODEL 9
REMARK VINA RESULT:    -7.202      2.209      3.025
REMARK INTER + INTRA:         -11.553
REMARK INTER:                 -10.436
REMARK INTRA:                  -1.117
REMARK UNBOUND:                -0.983
REMARK  Name = 
REMARK  9 active torsions:
REMARK  status: ('A' for Active; 'I' for Inactive)
REMARK    1  A    between atoms: C_1  and  C_2
REMARK    2  A    between atoms: C_2  and  N_3
REMARK    3  A    between atoms: C_2  and  C_21
REMARK    4  A    between atoms: N_3  and  C_4
REMARK    5  A    between atoms: C_4  and  C_5
REMARK    6  A    between atoms: C_8  and  C_9
REMARK    7  A    between atoms: C_9  and  N_10
REMARK    8  A    between atoms: N_10  and  C_11
REMARK    9  A    between atoms: C_11  and  C_12
REMARK                            x       y       z     vdW  Elec       q    Type
REMARK                         _______ _______ _______ _____ _____    ______ ____
ROOT
ATOM      1  C   UNL     1      46.628   5.298  13.655  0.00  0.00    +0.000 A 
ATOM      2  C   UNL     1      45.862   4.155  13.393  0.00  0.00    +0.000 A 
ATOM      3  C   UNL     1      44.831   4.193  12.452  0.00  0.00    +0.000 A 
ATOM      4  C   UNL     1      44.531   5.379  11.765  0.00  0.00    +0.000 A 
ATOM      5  C   UNL     1      45.308   6.515  12.010  0.00  0.00    +0.000 A 
ATOM      6  C   UNL     1      46.346   6.474  12.943  0.00  0.00    +0.000 A 
ENDROOT
BRANCH   1   7
ATOM      7  C   UNL     1      47.679   5.308  14.741  0.00  0.00    +0.000 C 
BRANCH   7   8
ATOM      8  N   UNL     1      47.557   4.172  15.654  0.00  0.00    +0.000 NA
ATOM      9  H   UNL     1      46.663   4.241  16.136  0.00  0.00    +0.000 HD
BRANCH   8  11
ATOM     10  C   UNL     1      48.678   2.829  17.443  0.00  0.00    +0.000 C 
ATOM     11  C   UNL     1      48.619   4.155  16.674  0.00  0.00    +0.000 C 
BRANCH  11  12
ATOM     12  C   UNL     1      48.364   5.296  17.643  0.00  0.00    +0.000 A 
ATOM     13  C   UNL     1      47.358   5.331  18.599  0.00  0.00    +0.000 A 
ATOM     14  S   UNL     1      47.392   6.737  19.567  0.00  0.00    +0.000 S 
ATOM     15  C   UNL     1      48.765   7.335  18.757  0.00  0.00    +0.000 A 
ATOM     16  N   UNL     1      49.343   8.513  19.119  0.00  0.00    +0.000 NA
ATOM     17  C   UNL     1      50.387   8.823  18.425  0.00  0.00    +0.000 A 
ATOM     18  N   UNL     1      50.906   8.075  17.398  0.00  0.00    +0.000 N 
ATOM     19  C   UNL     1      50.353   6.877  16.995  0.00  0.00    +0.000 A 
ATOM     20  O   UNL     1      50.842   6.223  16.080  0.00  0.00    +0.000 OA
ATOM     21  C   UNL     1      49.180   6.482  17.752  0.00  0.00    +0.000 A 
ATOM     22  H   UNL     1      51.724   8.377  16.897  0.00  0.00    +0.000 HD
ENDBRANCH  11  12
ENDBRANCH   8  11
ENDBRANCH   7   8
ENDBRANCH   1   7
BRANCH   4  23
ATOM     23  C   UNL     1      43.375   5.430  10.795  0.00  0.00    +0.000 C 
BRANCH  23  24
ATOM     24  N   UNL     1      43.626   4.549   9.658  0.00  0.00    +0.000 NA
ATOM     25  H   UNL     1      42.844   4.613   9.008  0.00  0.00    +0.000 HD
BRANCH  24  26
ATOM     26  C   UNL     1      44.858   4.898   8.964  0.00  0.00    +0.000 C 
BRANCH  26  27
ATOM     27  C   UNL     1      45.558   3.657   8.456  0.00  0.00    +0.000 A 
ATOM     28  C   UNL     1      45.213   2.385   8.939  0.00  0.00    +0.000 A 
ATOM     29  C   UNL     1      45.826   1.244   8.419  0.00  0.00    +0.000 A 
ATOM     30  C   UNL     1      46.786   1.372   7.422  0.00  0.00    +0.000 A 
ATOM     31  F   UNL     1      47.356   0.273   6.909  0.00  0.00    +0.000 F 
ATOM     32  C   UNL     1      47.162   2.622   6.947  0.00  0.00    +0.000 A 
ATOM     33  C   UNL     1      46.548   3.763   7.463  0.00  0.00    +0.000 A 
ENDBRANCH  26  27
ENDBRANCH  24  26
ENDBRANCH  23  24
ENDBRANCH   4  23
TORSDOF 8
ENDMDL
