MODEL 1
REMARK VINA RESULT:    -6.583      0.000      0.000
REMARK INTER + INTRA:          -9.776
REMARK INTER:                  -8.892
REMARK INTRA:                  -0.884
REMARK UNBOUND:                -0.884
REMARK  Name = 
REMARK  8 active torsions:
REMARK  status: ('A' for Active; 'I' for Inactive)
REMARK    1  A    between atoms: C_1  and  C_2
REMARK    2  A    between atoms: C_2  and  C_3
REMARK    3  A    between atoms: C_2  and  N_15
REMARK    4  A    between atoms: C_3  and  C_5
REMARK    5  A    between atoms: N_15  and  C_16
REMARK    6  A    between atoms: N_15  and  C_17
REMARK    7  A    between atoms: C_20  and  C_21
REMARK    8  A    between atoms: C_21  and  N_22
REMARK                            x       y       z     vdW  Elec       q    Type
REMARK                         _______ _______ _______ _____ _____    ______ ____
ROOT
ATOM      1  C   UNL     1      51.471   7.981  15.062  0.00  0.00    +0.000 C 
ATOM      2  C   UNL     1      49.994   7.629  14.819  0.00  0.00    +0.000 C 
ENDROOT
BRANCH   2   3
ATOM      3  C   UNL     1      49.199   7.558  16.148  0.00  0.00    +0.000 C 
ATOM      4  O   UNL     1      48.512   8.515  16.513  0.00  0.00    +0.000 OA
BRANCH   3   5
ATOM      5  C   UNL     1      49.384   6.422  17.067  0.00  0.00    +0.000 A 
ATOM      6  C   UNL     1      50.227   6.438  18.165  0.00  0.00    +0.000 A 
ATOM      7  S   UNL     1      50.057   5.043  19.154  0.00  0.00    +0.000 S 
ATOM      8  C   UNL     1      48.875   4.381  18.122  0.00  0.00    +0.000 A 
ATOM      9  N   UNL     1      48.261   3.198  18.415  0.00  0.00    +0.000 NA
ATOM     10  C   UNL     1      47.383   2.830  17.539  0.00  0.00    +0.000 A 
ATOM     11  N   UNL     1      47.086   3.518  16.388  0.00  0.00    +0.000 N 
ATOM     12  C   UNL     1      47.759   4.659  16.001  0.00  0.00    +0.000 A 
ATOM     13  O   UNL     1      47.626   5.108  14.867  0.00  0.00    +0.000 OA
ATOM     14  C   UNL     1      48.663   5.174  17.011  0.00  0.00    +0.000 A 
ATOM     15  H   UNL     1      46.447   3.134  15.709  0.00  0.00    +0.000 HD
ENDBRANCH   3   5
ENDBRANCH   2   3
BRANCH   2  16
ATOM     16  N   UNL     1      49.354   8.480  13.764  0.00  0.00    +0.000 N 
ATOM     17  C   UNL     1      49.381   9.926  14.046  0.00  0.00    +0.000 C 
BRANCH  16  18
ATOM     18  C   UNL     1      48.154   8.090  13.140  0.00  0.00    +0.000 A 
ATOM     19  C   UNL     1      48.094   7.125  12.139  0.00  0.00    +0.000 A 
ATOM     20  C   UNL     1      46.888   6.711  11.572  0.00  0.00    +0.000 A 
ATOM     21  C   UNL     1      45.676   7.283  11.949  0.00  0.00    +0.000 A 
ATOM     22  C   UNL     1      45.708   8.295  12.918  0.00  0.00    +0.000 A 
ATOM     23  C   UNL     1      46.929   8.681  13.510  0.00  0.00    +0.000 A 
BRANCH  21  24
ATOM     24  C   UNL     1      44.423   6.885  11.204  0.00  0.00    +0.000 C 
BRANCH  24  25
ATOM     25  N   UNL     1      43.667   5.715  11.641  0.00  0.00    +0.000 NA
ATOM     26  C   UNL     1      43.805   5.330  13.044  0.00  0.00    +0.000 C 
ATOM     27  C   UNL     1      44.874   4.258  13.310  0.00  0.00    +0.000 C 
ATOM     28  O   UNL     1      44.687   3.108  12.477  0.00  0.00    +0.000 OA
ATOM     29  C   UNL     1      44.709   3.469  11.090  0.00  0.00    +0.000 C 
ATOM     30  C   UNL     1      43.653   4.540  10.763  0.00  0.00    +0.000 C 
ENDBRANCH  24  25
ENDBRANCH  21  24
ENDBRANCH  16  18
ENDBRANCH   2  16
TORSDOF 6
ENDMDL
MODEL 2
REMARK VINA RESULT:    -6.559      2.034      2.387
REMARK INTER + INTRA:          -9.744
REMARK INTER:                  -8.577
REMARK INTRA:                  -1.168
REMARK UNBOUND:                -0.884
REMARK  Name = 
REMARK  8 active torsions:
REMARK  status: ('A' for Active; 'I' for Inactive)
REMARK    1  A    between atoms: C_1  and  C_2
REMARK    2  A    between atoms: C_2  and  C_3
REMARK    3  A    between atoms: C_2  and  N_15
REMARK    4  A    between atoms: C_3  and  C_5
REMARK    5  A    between atoms: N_15  and  C_16
REMARK    6  A    between atoms: N_15  and  C_17
REMARK    7  A    between atoms: C_20  and  C_21
REMARK    8  A    between atoms: C_21  and  N_22
REMARK                            x       y       z     vdW  Elec       q    Type
REMARK                         _______ _______ _______ _____ _____    ______ ____
ROOT
ATOM      1  C   UNL     1      51.336   8.161  16.136  0.00  0.00    +0.000 C 
ATOM      2  C   UNL     1      50.010   7.396  15.984  0.00  0.00    +0.000 C 
ENDROOT
BRANCH   2   3
ATOM      3  C   UNL     1      49.592   6.714  17.313  0.00  0.00    +0.000 C 
ATOM      4  O   UNL     1      49.753   7.297  18.387  0.00  0.00    +0.000 OA
BRANCH   3   5
ATOM      5  C   UNL     1      49.153   5.309  17.322  0.00  0.00    +0.000 A 
ATOM      6  C   UNL     1      47.843   4.901  17.140  0.00  0.00    +0.000 A 
ATOM      7  S   UNL     1      47.692   3.196  16.989  0.00  0.00    +0.000 S 
ATOM      8  C   UNL     1      49.367   2.969  17.189  0.00  0.00    +0.000 A 
ATOM      9  N   UNL     1      49.928   1.727  17.116  0.00  0.00    +0.000 NA
ATOM     10  C   UNL     1      51.211   1.718  17.283  0.00  0.00    +0.000 A 
ATOM     11  N   UNL     1      51.977   2.828  17.544  0.00  0.00    +0.000 N 
ATOM     12  C   UNL     1      51.437   4.084  17.733  0.00  0.00    +0.000 A 
ATOM     13  O   UNL     1      52.121   4.995  18.189  0.00  0.00    +0.000 OA
ATOM     14  C   UNL     1      50.020   4.162  17.434  0.00  0.00    +0.000 A 
ATOM     15  H   UNL     1      52.961   2.740  17.741  0.00  0.00    +0.000 HD
ENDBRANCH   3   5
ENDBRANCH   2   3
BRANCH   2  16
ATOM     16  N   UNL     1      48.930   8.216  15.346  0.00  0.00    +0.000 N 
ATOM     17  C   UNL     1      48.124   9.007  16.293  0.00  0.00    +0.000 C 
BRANCH  16  18
ATOM     18  C   UNL     1      48.148   7.701  14.295  0.00  0.00    +0.000 A 
ATOM     19  C   UNL     1      48.235   6.383  13.855  0.00  0.00    +0.000 A 
ATOM     20  C   UNL     1      47.411   5.876  12.850  0.00  0.00    +0.000 A 
ATOM     21  C   UNL     1      46.484   6.684  12.196  0.00  0.00    +0.000 A 
ATOM     22  C   UNL     1      46.408   8.029  12.580  0.00  0.00    +0.000 A 
ATOM     23  C   UNL     1      47.220   8.523  13.623  0.00  0.00    +0.000 A 
BRANCH  21  24
ATOM     24  C   UNL     1      45.717   6.109  11.028  0.00  0.00    +0.000 C 
BRANCH  24  25
ATOM     25  N   UNL     1      44.323   5.714  11.207  0.00  0.00    +0.000 NA
ATOM     26  C   UNL     1      43.873   5.495  12.581  0.00  0.00    +0.000 C 
ATOM     27  C   UNL     1      43.944   4.034  13.049  0.00  0.00    +0.000 C 
ATOM     28  O   UNL     1      43.270   3.154  12.142  0.00  0.00    +0.000 OA
ATOM     29  C   UNL     1      43.821   3.259  10.823  0.00  0.00    +0.000 C 
ATOM     30  C   UNL     1      43.773   4.704  10.297  0.00  0.00    +0.000 C 
ENDBRANCH  24  25
ENDBRANCH  21  24
ENDBRANCH  16  18
ENDBRANCH   2  16
TORSDOF 6
ENDMDL
MODEL 3
REMARK VINA RESULT:    -6.470      2.857      3.785
REMARK INTER + INTRA:          -9.624
REMARK INTER:                  -8.798
REMARK INTRA:                  -0.826
REMARK UNBOUND:                -0.884
REMARK  Name = 
REMARK  8 active torsions:
REMARK  status: ('A' for Active; 'I' for Inactive)
REMARK    1  A    between atoms: C_1  and  C_2
REMARK    2  A    between atoms: C_2  and  C_3
REMARK    3  A    between atoms: C_2  and  N_15
REMARK    4  A    between atoms: C_3  and  C_5
REMARK    5  A    between atoms: N_15  and  C_16
REMARK    6  A    between atoms: N_15  and  C_17
REMARK    7  A    between atoms: C_20  and  C_21
REMARK    8  A    between atoms: C_21  and  N_22
REMARK                            x       y       z     vdW  Elec       q    Type
REMARK                         _______ _______ _______ _____ _____    ______ ____
ROOT
ATOM      1  C   UNL     1      47.902   6.502  18.692  0.00  0.00    +0.000 C 
ATOM      2  C   UNL     1      49.369   6.171  18.368  0.00  0.00    +0.000 C 
ENDROOT
BRANCH   2   3
ATOM      3  C   UNL     1      49.751   4.748  18.852  0.00  0.00    +0.000 C 
ATOM      4  O   UNL     1      48.924   4.050  19.442  0.00  0.00    +0.000 OA
BRANCH   3   5
ATOM      5  C   UNL     1      51.144   4.279  18.761  0.00  0.00    +0.000 A 
ATOM      6  C   UNL     1      52.220   4.919  19.350  0.00  0.00    +0.000 A 
ATOM      7  S   UNL     1      53.675   4.010  19.241  0.00  0.00    +0.000 S 
ATOM      8  C   UNL     1      52.901   2.760  18.384  0.00  0.00    +0.000 A 
ATOM      9  N   UNL     1      53.572   1.630  18.017  0.00  0.00    +0.000 NA
ATOM     10  C   UNL     1      52.848   0.770  17.377  0.00  0.00    +0.000 A 
ATOM     11  N   UNL     1      51.527   0.949  17.047  0.00  0.00    +0.000 N 
ATOM     12  C   UNL     1      50.841   2.119  17.303  0.00  0.00    +0.000 A 
ATOM     13  O   UNL     1      49.745   2.324  16.792  0.00  0.00    +0.000 OA
ATOM     14  C   UNL     1      51.577   3.059  18.126  0.00  0.00    +0.000 A 
ATOM     15  H   UNL     1      51.042   0.272  16.479  0.00  0.00    +0.000 HD
ENDBRANCH   3   5
ENDBRANCH   2   3
BRANCH   2  16
ATOM     16  N   UNL     1      49.734   6.454  16.943  0.00  0.00    +0.000 N 
ATOM     17  C   UNL     1      50.449   7.726  16.737  0.00  0.00    +0.000 C 
BRANCH  16  18
ATOM     18  C   UNL     1      48.839   6.180  15.892  0.00  0.00    +0.000 A 
ATOM     19  C   UNL     1      48.033   5.046  15.853  0.00  0.00    +0.000 A 
ATOM     20  C   UNL     1      47.111   4.820  14.831  0.00  0.00    +0.000 A 
ATOM     21  C   UNL     1      46.983   5.703  13.762  0.00  0.00    +0.000 A 
ATOM     22  C   UNL     1      47.817   6.828  13.744  0.00  0.00    +0.000 A 
ATOM     23  C   UNL     1      48.721   7.066  14.801  0.00  0.00    +0.000 A 
BRANCH  21  24
ATOM     24  C   UNL     1      46.062   5.334  12.622  0.00  0.00    +0.000 C 
BRANCH  24  25
ATOM     25  N   UNL     1      44.944   4.426  12.865  0.00  0.00    +0.000 NA
ATOM     26  C   UNL     1      44.961   3.156  12.143  0.00  0.00    +0.000 C 
ATOM     27  C   UNL     1      44.168   3.160  10.827  0.00  0.00    +0.000 C 
ATOM     28  O   UNL     1      42.826   3.624  11.020  0.00  0.00    +0.000 OA
ATOM     29  C   UNL     1      42.816   4.940  11.587  0.00  0.00    +0.000 C 
ATOM     30  C   UNL     1      43.594   4.996  12.913  0.00  0.00    +0.000 C 
ENDBRANCH  24  25
ENDBRANCH  21  24
ENDBRANCH  16  18
ENDBRANCH   2  16
TORSDOF 6
ENDMDL
MODEL 4
REMARK VINA RESULT:    -6.345      1.924      2.374
REMARK INTER + INTRA:          -9.455
REMARK INTER:                  -8.329
REMARK INTRA:                  -1.126
REMARK UNBOUND:                -0.884
REMARK  Name = 
REMARK  8 active torsions:
REMARK  status: ('A' for Active; 'I' for Inactive)
REMARK    1  A    between atoms: C_1  and  C_2
REMARK    2  A    between atoms: C_2  and  C_3
REMARK    3  A    between atoms: C_2  and  N_15
REMARK    4  A    between atoms: C_3  and  C_5
REMARK    5  A    between atoms: N_15  and  C_16
REMARK    6  A    between atoms: N_15  and  C_17
REMARK    7  A    between atoms: C_20  and  C_21
REMARK    8  A    between atoms: C_21  and  N_22
REMARK                            x       y       z     vdW  Elec       q    Type
REMARK                         _______ _______ _______ _____ _____    ______ ____
ROOT
ATOM      1  C   UNL     1      52.815   6.833  15.911  0.00  0.00    +0.000 C 
ATOM      2  C   UNL     1      51.293   6.751  16.111  0.00  0.00    +0.000 C 
ENDROOT
BRANCH   2   3
ATOM      3  C   UNL     1      50.911   6.832  17.612  0.00  0.00    +0.000 C 
ATOM      4  O   UNL     1      51.747   7.184  18.447  0.00  0.00    +0.000 OA
BRANCH   3   5
ATOM      5  C   UNL     1      49.604   6.337  18.076  0.00  0.00    +0.000 A 
ATOM      6  C   UNL     1      48.659   7.118  18.718  0.00  0.00    +0.000 A 
ATOM      7  S   UNL     1      47.161   6.305  18.936  0.00  0.00    +0.000 S 
ATOM      8  C   UNL     1      47.754   4.888  18.202  0.00  0.00    +0.000 A 
ATOM      9  N   UNL     1      46.955   3.797  18.016  0.00  0.00    +0.000 NA
ATOM     10  C   UNL     1      47.548   2.802  17.440  0.00  0.00    +0.000 A 
ATOM     11  N   UNL     1      48.867   2.787  17.060  0.00  0.00    +0.000 N 
ATOM     12  C   UNL     1      49.736   3.826  17.326  0.00  0.00    +0.000 A 
ATOM     13  O   UNL     1      50.945   3.681  17.180  0.00  0.00    +0.000 OA
ATOM     14  C   UNL     1      49.087   5.008  17.858  0.00  0.00    +0.000 A 
ATOM     15  H   UNL     1      49.286   1.950  16.686  0.00  0.00    +0.000 HD
ENDBRANCH   3   5
ENDBRANCH   2   3
BRANCH   2  16
ATOM     16  N   UNL     1      50.533   7.697  15.231  0.00  0.00    +0.000 N 
ATOM     17  C   UNL     1      50.221   8.994  15.855  0.00  0.00    +0.000 C 
BRANCH  16  18
ATOM     18  C   UNL     1      49.485   7.246  14.408  0.00  0.00    +0.000 A 
ATOM     19  C   UNL     1      48.467   6.409  14.859  0.00  0.00    +0.000 A 
ATOM     20  C   UNL     1      47.406   6.018  14.043  0.00  0.00    +0.000 A 
ATOM     21  C   UNL     1      47.334   6.411  12.709  0.00  0.00    +0.000 A 
ATOM     22  C   UNL     1      48.370   7.210  12.210  0.00  0.00    +0.000 A 
ATOM     23  C   UNL     1      49.421   7.630  13.053  0.00  0.00    +0.000 A 
BRANCH  21  24
ATOM     24  C   UNL     1      46.231   5.846  11.845  0.00  0.00    +0.000 C 
BRANCH  24  25
ATOM     25  N   UNL     1      45.216   4.985  12.445  0.00  0.00    +0.000 NA
ATOM     26  C   UNL     1      45.200   3.589  12.013  0.00  0.00    +0.000 C 
ATOM     27  C   UNL     1      44.223   3.287  10.866  0.00  0.00    +0.000 C 
ATOM     28  O   UNL     1      42.900   3.748  11.164  0.00  0.00    +0.000 OA
ATOM     29  C   UNL     1      42.896   5.155  11.436  0.00  0.00    +0.000 C 
ATOM     30  C   UNL     1      43.857   5.518  12.582  0.00  0.00    +0.000 C 
ENDBRANCH  24  25
ENDBRANCH  21  24
ENDBRANCH  16  18
ENDBRANCH   2  16
TORSDOF 6
ENDMDL
MODEL 5
REMARK VINA RESULT:    -6.161      1.685      2.122
REMARK INTER + INTRA:          -9.206
REMARK INTER:                  -8.184
REMARK INTRA:                  -1.022
REMARK UNBOUND:                -0.884
REMARK  Name = 
REMARK  8 active torsions:
REMARK  status: ('A' for Active; 'I' for Inactive)
REMARK    1  A    between atoms: C_1  and  C_2
REMARK    2  A    between atoms: C_2  and  C_3
REMARK    3  A    between atoms: C_2  and  N_15
REMARK    4  A    between atoms: C_3  and  C_5
REMARK    5  A    between atoms: N_15  and  C_16
REMARK    6  A    between atoms: N_15  and  C_17
REMARK    7  A    between atoms: C_20  and  C_21
REMARK    8  A    between atoms: C_21  and  N_22
REMARK                            x       y       z     vdW  Elec       q    Type
REMARK                         _______ _______ _______ _____ _____    ______ ____
ROOT
ATOM      1  C   UNL     1      51.184   7.837  15.160  0.00  0.00    +0.000 C 
ATOM      2  C   UNL     1      49.893   7.259  14.556  0.00  0.00    +0.000 C 
ENDROOT
BRANCH   2   3
ATOM      3  C   UNL     1      49.048   6.516  15.623  0.00  0.00    +0.000 C 
ATOM      4  O   UNL     1      48.237   5.653  15.282  0.00  0.00    +0.000 OA
BRANCH   3   5
ATOM      5  C   UNL     1      49.083   6.946  17.031  0.00  0.00    +0.000 A 
ATOM      6  C   UNL     1      48.501   8.109  17.505  0.00  0.00    +0.000 A 
ATOM      7  S   UNL     1      48.530   8.216  19.219  0.00  0.00    +0.000 S 
ATOM      8  C   UNL     1      49.342   6.726  19.360  0.00  0.00    +0.000 A 
ATOM      9  N   UNL     1      49.635   6.191  20.580  0.00  0.00    +0.000 NA
ATOM     10  C   UNL     1      50.248   5.053  20.523  0.00  0.00    +0.000 A 
ATOM     11  N   UNL     1      50.617   4.418  19.362  0.00  0.00    +0.000 N 
ATOM     12  C   UNL     1      50.437   4.975  18.112  0.00  0.00    +0.000 A 
ATOM     13  O   UNL     1      50.983   4.489  17.127  0.00  0.00    +0.000 OA
ATOM     14  C   UNL     1      49.645   6.190  18.123  0.00  0.00    +0.000 A 
ATOM     15  H   UNL     1      51.162   3.571  19.390  0.00  0.00    +0.000 HD
ENDBRANCH   3   5
ENDBRANCH   2   3
BRANCH   2  16
ATOM     16  N   UNL     1      49.123   8.260  13.748  0.00  0.00    +0.000 N 
ATOM     17  C   UNL     1      49.061   9.606  14.343  0.00  0.00    +0.000 C 
BRANCH  16  18
ATOM     18  C   UNL     1      47.918   7.912  13.111  0.00  0.00    +0.000 A 
ATOM     19  C   UNL     1      47.834   6.945  12.113  0.00  0.00    +0.000 A 
ATOM     20  C   UNL     1      46.621   6.574  11.533  0.00  0.00    +0.000 A 
ATOM     21  C   UNL     1      45.426   7.191  11.893  0.00  0.00    +0.000 A 
ATOM     22  C   UNL     1      45.484   8.204  12.859  0.00  0.00    +0.000 A 
ATOM     23  C   UNL     1      46.710   8.547  13.465  0.00  0.00    +0.000 A 
BRANCH  21  24
ATOM     24  C   UNL     1      44.169   6.836  11.135  0.00  0.00    +0.000 C 
BRANCH  24  25
ATOM     25  N   UNL     1      43.437   5.622  11.483  0.00  0.00    +0.000 NA
ATOM     26  C   UNL     1      43.389   5.267  12.900  0.00  0.00    +0.000 C 
ATOM     27  C   UNL     1      44.476   4.277  13.347  0.00  0.00    +0.000 C 
ATOM     28  O   UNL     1      44.493   3.104  12.523  0.00  0.00    +0.000 OA
ATOM     29  C   UNL     1      44.697   3.447  11.147  0.00  0.00    +0.000 C 
ATOM     30  C   UNL     1      43.632   4.437  10.642  0.00  0.00    +0.000 C 
ENDBRANCH  24  25
ENDBRANCH  21  24
ENDBRANCH  16  18
ENDBRANCH   2  16
TORSDOF 6
ENDMDL
MODEL 6
REMARK VINA RESULT:    -6.124      2.299      6.045
REMARK INTER + INTRA:          -9.156
REMARK INTER:                  -8.093
REMARK INTRA:                  -1.063
REMARK UNBOUND:                -0.884
REMARK  Name = 
REMARK  8 active torsions:
REMARK  status: ('A' for Active; 'I' for Inactive)
REMARK    1  A    between atoms: C_1  and  C_2
REMARK    2  A    between atoms: C_2  and  C_3
REMARK    3  A    between atoms: C_2  and  N_15
REMARK    4  A    between atoms: C_3  and  C_5
REMARK    5  A    between atoms: N_15  and  C_16
REMARK    6  A    between atoms: N_15  and  C_17
REMARK    7  A    between atoms: C_20  and  C_21
REMARK    8  A    between atoms: C_21  and  N_22
REMARK                            x       y       z     vdW  Elec       q    Type
REMARK                         _______ _______ _______ _____ _____    ______ ____
ROOT
ATOM      1  C   UNL     1      48.787   7.643  11.462  0.00  0.00    +0.000 C 
ATOM      2  C   UNL     1      48.220   8.718  12.404  0.00  0.00    +0.000 C 
ENDROOT
BRANCH   2   3
ATOM      3  C   UNL     1      46.818   8.324  12.938  0.00  0.00    +0.000 C 
ATOM      4  O   UNL     1      46.141   9.141  13.565  0.00  0.00    +0.000 OA
BRANCH   3   5
ATOM      5  C   UNL     1      46.351   6.931  12.846  0.00  0.00    +0.000 A 
ATOM      6  C   UNL     1      47.008   5.851  13.411  0.00  0.00    +0.000 A 
ATOM      7  S   UNL     1      46.100   4.395  13.312  0.00  0.00    +0.000 S 
ATOM      8  C   UNL     1      44.827   5.173  12.491  0.00  0.00    +0.000 A 
ATOM      9  N   UNL     1      43.691   4.501  12.147  0.00  0.00    +0.000 NA
ATOM     10  C   UNL     1      42.814   5.229  11.534  0.00  0.00    +0.000 A 
ATOM     11  N   UNL     1      42.981   6.553  11.210  0.00  0.00    +0.000 N 
ATOM     12  C   UNL     1      44.155   7.240  11.443  0.00  0.00    +0.000 A 
ATOM     13  O   UNL     1      44.346   8.341  10.937  0.00  0.00    +0.000 OA
ATOM     14  C   UNL     1      45.117   6.500  12.237  0.00  0.00    +0.000 A 
ATOM     15  H   UNL     1      42.290   7.041  10.662  0.00  0.00    +0.000 HD
ENDBRANCH   3   5
ENDBRANCH   2   3
BRANCH   2  16
ATOM     16  N   UNL     1      49.189   9.136  13.468  0.00  0.00    +0.000 N 
ATOM     17  C   UNL     1      50.535   9.472  12.972  0.00  0.00    +0.000 C 
BRANCH  16  18
ATOM     18  C   UNL     1      49.239   8.475  14.710  0.00  0.00    +0.000 A 
ATOM     19  C   UNL     1      48.583   8.939  15.847  0.00  0.00    +0.000 A 
ATOM     20  C   UNL     1      48.598   8.240  17.054  0.00  0.00    +0.000 A 
ATOM     21  C   UNL     1      49.316   7.056  17.198  0.00  0.00    +0.000 A 
ATOM     22  C   UNL     1      50.029   6.589  16.086  0.00  0.00    +0.000 A 
ATOM     23  C   UNL     1      49.979   7.284  14.860  0.00  0.00    +0.000 A 
BRANCH  21  24
ATOM     24  C   UNL     1      49.399   6.419  18.566  0.00  0.00    +0.000 C 
BRANCH  24  25
ATOM     25  N   UNL     1      48.637   5.204  18.841  0.00  0.00    +0.000 NA
ATOM     26  C   UNL     1      49.373   3.943  18.799  0.00  0.00    +0.000 C 
ATOM     27  C   UNL     1      49.310   3.212  17.449  0.00  0.00    +0.000 C 
ATOM     28  O   UNL     1      47.959   3.034  17.006  0.00  0.00    +0.000 OA
ATOM     29  C   UNL     1      47.285   4.294  16.899  0.00  0.00    +0.000 C 
ATOM     30  C   UNL     1      47.312   5.071  18.227  0.00  0.00    +0.000 C 
ENDBRANCH  24  25
ENDBRANCH  21  24
ENDBRANCH  16  18
ENDBRANCH   2  16
TORSDOF 6
ENDMDL
MODEL 7
REMARK VINA RESULT:    -6.089      3.150      6.962
REMARK INTER + INTRA:          -9.110
REMARK INTER:                  -8.186
REMARK INTRA:                  -0.923
REMARK UNBOUND:                -0.884
REMARK  Name = 
REMARK  8 active torsions:
REMARK  status: ('A' for Active; 'I' for Inactive)
REMARK    1  A    between atoms: C_1  and  C_2
REMARK    2  A    between atoms: C_2  and  C_3
REMARK    3  A    between atoms: C_2  and  N_15
REMARK    4  A    between atoms: C_3  and  C_5
REMARK    5  A    between atoms: N_15  and  C_16
REMARK    6  A    between atoms: N_15  and  C_17
REMARK    7  A    between atoms: C_20  and  C_21
REMARK    8  A    between atoms: C_21  and  N_22
REMARK                            x       y       z     vdW  Elec       q    Type
REMARK                         _______ _______ _______ _____ _____    ______ ____
ROOT
ATOM      1  C   UNL     1      47.483   5.559  13.320  0.00  0.00    +0.000 C 
ATOM      2  C   UNL     1      47.583   6.539  12.140  0.00  0.00    +0.000 C 
ENDROOT
BRANCH   2   3
ATOM      3  C   UNL     1      46.202   6.771  11.474  0.00  0.00    +0.000 C 
ATOM      4  O   UNL     1      45.580   7.816  11.682  0.00  0.00    +0.000 OA
BRANCH   3   5
ATOM      5  C   UNL     1      45.546   5.687  10.724  0.00  0.00    +0.000 A 
ATOM      6  C   UNL     1      45.752   5.436   9.379  0.00  0.00    +0.000 A 
ATOM      7  S   UNL     1      45.011   3.978   8.854  0.00  0.00    +0.000 S 
ATOM      8  C   UNL     1      44.381   3.668  10.404  0.00  0.00    +0.000 A 
ATOM      9  N   UNL     1      43.673   2.532  10.668  0.00  0.00    +0.000 NA
ATOM     10  C   UNL     1      43.265   2.437  11.893  0.00  0.00    +0.000 A 
ATOM     11  N   UNL     1      43.476   3.384  12.865  0.00  0.00    +0.000 N 
ATOM     12  C   UNL     1      44.091   4.593  12.614  0.00  0.00    +0.000 A 
ATOM     13  O   UNL     1      44.054   5.497  13.443  0.00  0.00    +0.000 OA
ATOM     14  C   UNL     1      44.671   4.689  11.289  0.00  0.00    +0.000 A 
ATOM     15  H   UNL     1      43.063   3.283  13.779  0.00  0.00    +0.000 HD
ENDBRANCH   3   5
ENDBRANCH   2   3
BRANCH   2  16
ATOM     16  N   UNL     1      48.320   7.799  12.484  0.00  0.00    +0.000 N 
ATOM     17  C   UNL     1      49.400   8.151  11.546  0.00  0.00    +0.000 C 
BRANCH  16  18
ATOM     18  C   UNL     1      48.662   8.104  13.815  0.00  0.00    +0.000 A 
ATOM     19  C   UNL     1      47.864   8.884  14.647  0.00  0.00    +0.000 A 
ATOM     20  C   UNL     1      48.192   9.128  15.981  0.00  0.00    +0.000 A 
ATOM     21  C   UNL     1      49.370   8.639  16.539  0.00  0.00    +0.000 A 
ATOM     22  C   UNL     1      50.221   7.894  15.713  0.00  0.00    +0.000 A 
ATOM     23  C   UNL     1      49.862   7.622  14.375  0.00  0.00    +0.000 A 
BRANCH  21  24
ATOM     24  C   UNL     1      49.731   9.050  17.948  0.00  0.00    +0.000 C 
BRANCH  24  25
ATOM     25  N   UNL     1      49.502   8.119  19.049  0.00  0.00    +0.000 NA
ATOM     26  C   UNL     1      50.608   7.228  19.396  0.00  0.00    +0.000 C 
ATOM     27  C   UNL     1      50.548   5.847  18.727  0.00  0.00    +0.000 C 
ATOM     28  O   UNL     1      49.285   5.207  18.945  0.00  0.00    +0.000 OA
ATOM     29  C   UNL     1      48.209   6.019  18.460  0.00  0.00    +0.000 C 
ATOM     30  C   UNL     1      48.215   7.418  19.100  0.00  0.00    +0.000 C 
ENDBRANCH  24  25
ENDBRANCH  21  24
ENDBRANCH  16  18
ENDBRANCH   2  16
TORSDOF 6
ENDMDL
MODEL 8
REMARK VINA RESULT:    -5.884      1.890      2.392
REMARK INTER + INTRA:          -8.833
REMARK INTER:                  -7.360
REMARK INTRA:                  -1.473
REMARK UNBOUND:                -0.884
REMARK  Name = 
REMARK  8 active torsions:
REMARK  status: ('A' for Active; 'I' for Inactive)
REMARK    1  A    between atoms: C_1  and  C_2
REMARK    2  A    between atoms: C_2  and  C_3
REMARK    3  A    between atoms: C_2  and  N_15
REMARK    4  A    between atoms: C_3  and  C_5
REMARK    5  A    between atoms: N_15  and  C_16
REMARK    6  A    between atoms: N_15  and  C_17
REMARK    7  A    between atoms: C_20  and  C_21
REMARK    8  A    between atoms: C_21  and  N_22
REMARK                            x       y       z     vdW  Elec       q    Type
REMARK                         _______ _______ _______ _____ _____    ______ ____
ROOT
ATOM      1  C   UNL     1      52.724   8.962  14.191  0.00  0.00    +0.000 C 
ATOM      2  C   UNL     1      51.368   8.347  14.578  0.00  0.00    +0.000 C 
ENDROOT
BRANCH   2   3
ATOM      3  C   UNL     1      51.186   8.294  16.117  0.00  0.00    +0.000 C 
ATOM      4  O   UNL     1      51.621   9.205  16.825  0.00  0.00    +0.000 OA
BRANCH   3   5
ATOM      5  C   UNL     1      50.643   7.086  16.760  0.00  0.00    +0.000 A 
ATOM      6  C   UNL     1      51.305   5.872  16.820  0.00  0.00    +0.000 A 
ATOM      7  S   UNL     1      50.505   4.727  17.821  0.00  0.00    +0.000 S 
ATOM      8  C   UNL     1      49.249   5.822  18.173  0.00  0.00    +0.000 A 
ATOM      9  N   UNL     1      48.240   5.491  19.030  0.00  0.00    +0.000 NA
ATOM     10  C   UNL     1      47.364   6.429  19.199  0.00  0.00    +0.000 A 
ATOM     11  N   UNL     1      47.391   7.650  18.571  0.00  0.00    +0.000 N 
ATOM     12  C   UNL     1      48.331   7.983  17.618  0.00  0.00    +0.000 A 
ATOM     13  O   UNL     1      48.186   8.981  16.920  0.00  0.00    +0.000 OA
ATOM     14  C   UNL     1      49.400   7.012  17.487  0.00  0.00    +0.000 A 
ATOM     15  H   UNL     1      46.634   8.306  18.689  0.00  0.00    +0.000 HD
ENDBRANCH   3   5
ENDBRANCH   2   3
BRANCH   2  16
ATOM     16  N   UNL     1      50.215   8.961  13.843  0.00  0.00    +0.000 N 
ATOM     17  C   UNL     1      49.925  10.356  14.215  0.00  0.00    +0.000 C 
BRANCH  16  18
ATOM     18  C   UNL     1      49.038   8.231  13.592  0.00  0.00    +0.000 A 
ATOM     19  C   UNL     1      48.996   6.840  13.560  0.00  0.00    +0.000 A 
ATOM     20  C   UNL     1      47.809   6.133  13.367  0.00  0.00    +0.000 A 
ATOM     21  C   UNL     1      46.602   6.790  13.146  0.00  0.00    +0.000 A 
ATOM     22  C   UNL     1      46.619   8.190  13.120  0.00  0.00    +0.000 A 
ATOM     23  C   UNL     1      47.818   8.896  13.353  0.00  0.00    +0.000 A 
BRANCH  21  24
ATOM     24  C   UNL     1      45.378   5.968  12.811  0.00  0.00    +0.000 C 
BRANCH  24  25
ATOM     25  N   UNL     1      45.509   4.809  11.932  0.00  0.00    +0.000 NA
ATOM     26  C   UNL     1      45.080   4.985  10.546  0.00  0.00    +0.000 C 
ATOM     27  C   UNL     1      43.634   4.550  10.266  0.00  0.00    +0.000 C 
ATOM     28  O   UNL     1      43.387   3.212  10.715  0.00  0.00    +0.000 OA
ATOM     29  C   UNL     1      43.661   3.082  12.115  0.00  0.00    +0.000 C 
ATOM     30  C   UNL     1      45.102   3.501  12.456  0.00  0.00    +0.000 C 
ENDBRANCH  24  25
ENDBRANCH  21  24
ENDBRANCH  16  18
ENDBRANCH   2  16
TORSDOF 6
ENDMDL
MODEL 9
REMARK VINA RESULT:    -5.859      2.570      5.999
REMARK INTER + INTRA:          -8.799
REMARK INTER:                  -7.773
REMARK INTRA:                  -1.026
REMARK UNBOUND:                -0.884
REMARK  Name = 
REMARK  8 active torsions:
REMARK  status: ('A' for Active; 'I' for Inactive)
REMARK    1  A    between atoms: C_1  and  C_2
REMARK    2  A    between atoms: C_2  and  C_3
REMARK    3  A    between atoms: C_2  and  N_15
REMARK    4  A    between atoms: C_3  and  C_5
REMARK    5  A    between atoms: N_15  and  C_16
REMARK    6  A    between atoms: N_15  and  C_17
REMARK    7  A    between atoms: C_20  and  C_21
REMARK    8  A    between atoms: C_21  and  N_22
REMARK                            x       y       z     vdW  Elec       q    Type
REMARK                         _______ _______ _______ _____ _____    ______ ____
ROOT
ATOM      1  C   UNL     1      47.119  10.318  11.961  0.00  0.00    +0.000 C 
ATOM      2  C   UNL     1      47.373   9.134  12.909  0.00  0.00    +0.000 C 
ENDROOT
BRANCH   2   3
ATOM      3  C   UNL     1      47.254   7.777  12.169  0.00  0.00    +0.000 C 
ATOM      4  O   UNL     1      48.212   7.328  11.537  0.00  0.00    +0.000 OA
BRANCH   3   5
ATOM      5  C   UNL     1      45.954   7.092  12.076  0.00  0.00    +0.000 A 
ATOM      6  C   UNL     1      44.809   7.663  11.548  0.00  0.00    +0.000 A 
ATOM      7  S   UNL     1      43.520   6.539  11.384  0.00  0.00    +0.000 S 
ATOM      8  C   UNL     1      44.456   5.277  12.038  0.00  0.00    +0.000 A 
ATOM      9  N   UNL     1      43.965   4.007  12.136  0.00  0.00    +0.000 NA
ATOM     10  C   UNL     1      44.798   3.159  12.648  0.00  0.00    +0.000 A 
ATOM     11  N   UNL     1      46.059   3.468  13.094  0.00  0.00    +0.000 N 
ATOM     12  C   UNL     1      46.553   4.757  13.113  0.00  0.00    +0.000 A 
ATOM     13  O   UNL     1      47.582   5.022  13.726  0.00  0.00    +0.000 OA
ATOM     14  C   UNL     1      45.703   5.718  12.436  0.00  0.00    +0.000 A 
ATOM     15  H   UNL     1      46.627   2.774  13.555  0.00  0.00    +0.000 HD
ENDBRANCH   3   5
ENDBRANCH   2   3
BRANCH   2  16
ATOM     16  N   UNL     1      48.627   9.287  13.716  0.00  0.00    +0.000 N 
ATOM     17  C   UNL     1      49.850   9.470  12.915  0.00  0.00    +0.000 C 
BRANCH  16  18
ATOM     18  C   UNL     1      48.862   8.497  14.857  0.00  0.00    +0.000 A 
ATOM     19  C   UNL     1      48.305   8.774  16.103  0.00  0.00    +0.000 A 
ATOM     20  C   UNL     1      48.504   7.948  17.209  0.00  0.00    +0.000 A 
ATOM     21  C   UNL     1      49.315   6.819  17.135  0.00  0.00    +0.000 A 
ATOM     22  C   UNL     1      49.932   6.542  15.908  0.00  0.00    +0.000 A 
ATOM     23  C   UNL     1      49.696   7.364  14.786  0.00  0.00    +0.000 A 
BRANCH  21  24
ATOM     24  C   UNL     1      49.595   6.042  18.400  0.00  0.00    +0.000 C 
BRANCH  24  25
ATOM     25  N   UNL     1      48.786   4.869  18.717  0.00  0.00    +0.000 NA
ATOM     26  C   UNL     1      49.372   3.564  18.415  0.00  0.00    +0.000 C 
ATOM     27  C   UNL     1      48.975   2.988  17.048  0.00  0.00    +0.000 C 
ATOM     28  O   UNL     1      47.553   2.965  16.876  0.00  0.00    +0.000 OA
ATOM     29  C   UNL     1      46.998   4.278  17.019  0.00  0.00    +0.000 C 
ATOM     30  C   UNL     1      47.360   4.906  18.377  0.00  0.00    +0.000 C 
ENDBRANCH  24  25
ENDBRANCH  21  24
ENDBRANCH  16  18
ENDBRANCH   2  16
TORSDOF 6
ENDMDL
