MODEL 1
REMARK VINA RESULT:    -8.644      0.000      0.000
REMARK INTER + INTRA:         -12.839
REMARK INTER:                 -12.181
REMARK INTRA:                  -0.659
REMARK UNBOUND:                -0.659
REMARK  Name = 
REMARK  8 active torsions:
REMARK  status: ('A' for Active; 'I' for Inactive)
REMARK    1  A    between atoms: C_1  and  N_2
REMARK    2  A    between atoms: N_2  and  C_3
REMARK    3  A    between atoms: N_2  and  C_24
REMARK    4  A    between atoms: C_3  and  C_4
REMARK    5  A    between atoms: C_7  and  C_8
REMARK    6  A    between atoms: C_8  and  N_9
REMARK    7  A    between atoms: C_10  and  C_12
REMARK    8  A    between atoms: C_24  and  C_25
REMARK                            x       y       z     vdW  Elec       q    Type
REMARK                         _______ _______ _______ _____ _____    ______ ____
ROOT
ATOM      1  C   UNL     1      44.654   5.352  10.848  0.00  0.00    +0.000 A 
ATOM      2  C   UNL     1      45.867   5.819  10.344  0.00  0.00    +0.000 A 
ATOM      3  C   UNL     1      46.626   6.696  11.115  0.00  0.00    +0.000 A 
ATOM      4  C   UNL     1      46.153   7.097  12.366  0.00  0.00    +0.000 A 
ATOM      5  C   UNL     1      44.917   6.611  12.769  0.00  0.00    +0.000 A 
ATOM      6  N   UNL     1      44.169   5.744  12.054  0.00  0.00    +0.000 NA
ENDROOT
BRANCH   1   7
ATOM      7  C   UNL     1      43.833   4.349  10.055  0.00  0.00    +0.000 C 
BRANCH   7   9
ATOM      8  C   UNL     1      45.024   2.810  11.492  0.00  0.00    +0.000 C 
ATOM      9  N   UNL     1      43.952   2.940  10.492  0.00  0.00    +0.000 NA
BRANCH   9  10
ATOM     10  C   UNL     1      44.269   2.057   9.347  0.00  0.00    +0.000 C 
BRANCH  10  11
ATOM     11  C   UNL     1      45.592   2.377   8.616  0.00  0.00    +0.000 C 
ATOM     12  C   UNL     1      45.405   3.446   7.525  0.00  0.00    +0.000 C 
ATOM     13  C   UNL     1      46.718   3.730   6.798  0.00  0.00    +0.000 C 
ATOM     14  C   UNL     1      47.330   2.455   6.225  0.00  0.00    +0.000 C 
ATOM     15  C   UNL     1      47.512   1.388   7.300  0.00  0.00    +0.000 C 
ATOM     16  C   UNL     1      46.200   1.095   8.025  0.00  0.00    +0.000 C 
ENDBRANCH  10  11
ENDBRANCH   9  10
ENDBRANCH   7   9
ENDBRANCH   1   7
BRANCH   4  17
ATOM     17  C   UNL     1      46.919   8.049  13.237  0.00  0.00    +0.000 C 
BRANCH  17  18
ATOM     18  N   UNL     1      47.393   7.398  14.431  0.00  0.00    +0.000 N 
ATOM     19  C   UNL     1      48.603   6.757  14.459  0.00  0.00    +0.000 C 
ATOM     20  O   UNL     1      49.346   6.728  13.483  0.00  0.00    +0.000 OA
ATOM     21  H   UNL     1      46.711   7.207  15.162  0.00  0.00    +0.000 HD
BRANCH  19  22
ATOM     22  C   UNL     1      48.997   6.165  15.743  0.00  0.00    +0.000 A 
ATOM     23  C   UNL     1      50.078   6.690  16.443  0.00  0.00    +0.000 A 
ATOM     24  S   UNL     1      50.360   5.924  17.937  0.00  0.00    +0.000 S 
ATOM     25  C   UNL     1      49.087   4.826  17.678  0.00  0.00    +0.000 A 
ATOM     26  N   UNL     1      48.801   3.856  18.590  0.00  0.00    +0.000 NA
ATOM     27  C   UNL     1      47.832   3.068  18.246  0.00  0.00    +0.000 A 
ATOM     28  N   UNL     1      47.123   3.172  17.083  0.00  0.00    +0.000 N 
ATOM     29  C   UNL     1      47.346   4.156  16.151  0.00  0.00    +0.000 A 
ATOM     30  O   UNL     1      46.655   4.258  15.144  0.00  0.00    +0.000 OA
ATOM     31  C   UNL     1      48.439   5.056  16.479  0.00  0.00    +0.000 A 
ATOM     32  H   UNL     1      46.368   2.532  16.879  0.00  0.00    +0.000 HD
ENDBRANCH  19  22
ENDBRANCH  17  18
ENDBRANCH   4  17
TORSDOF 7
ENDMDL
MODEL 2
REMARK VINA RESULT:    -8.444      2.379      2.861
REMARK INTER + INTRA:         -12.559
REMARK INTER:                 -11.628
REMARK INTRA:                  -0.931
REMARK UNBOUND:                -0.659
REMARK  Name = 
REMARK  8 active torsions:
REMARK  status: ('A' for Active; 'I' for Inactive)
REMARK    1  A    between atoms: C_1  and  N_2
REMARK    2  A    between atoms: N_2  and  C_3
REMARK    3  A    between atoms: N_2  and  C_24
REMARK    4  A    between atoms: C_3  and  C_4
REMARK    5  A    between atoms: C_7  and  C_8
REMARK    6  A    between atoms: C_8  and  N_9
REMARK    7  A    between atoms: C_10  and  C_12
REMARK    8  A    between atoms: C_24  and  C_25
REMARK                            x       y       z     vdW  Elec       q    Type
REMARK                         _______ _______ _______ _____ _____    ______ ____
ROOT
ATOM      1  C   UNL     1      45.979   4.288  12.953  0.00  0.00    +0.000 A 
ATOM      2  C   UNL     1      46.418   5.495  12.411  0.00  0.00    +0.000 A 
ATOM      3  C   UNL     1      47.251   6.313  13.170  0.00  0.00    +0.000 A 
ATOM      4  C   UNL     1      47.617   5.916  14.457  0.00  0.00    +0.000 A 
ATOM      5  C   UNL     1      47.099   4.718  14.929  0.00  0.00    +0.000 A 
ATOM      6  N   UNL     1      46.309   3.894  14.210  0.00  0.00    +0.000 NA
ENDROOT
BRANCH   1   7
ATOM      7  C   UNL     1      45.117   3.348  12.127  0.00  0.00    +0.000 C 
BRANCH   7   9
ATOM      8  C   UNL     1      43.199   4.477  11.176  0.00  0.00    +0.000 C 
ATOM      9  N   UNL     1      44.537   3.932  10.896  0.00  0.00    +0.000 NA
BRANCH   9  10
ATOM     10  C   UNL     1      44.414   2.910   9.833  0.00  0.00    +0.000 C 
BRANCH  10  11
ATOM     11  C   UNL     1      45.642   2.775   8.905  0.00  0.00    +0.000 C 
ATOM     12  C   UNL     1      45.591   3.767   7.731  0.00  0.00    +0.000 C 
ATOM     13  C   UNL     1      46.800   3.602   6.812  0.00  0.00    +0.000 C 
ATOM     14  C   UNL     1      46.936   2.164   6.317  0.00  0.00    +0.000 C 
ATOM     15  C   UNL     1      46.981   1.174   7.476  0.00  0.00    +0.000 C 
ATOM     16  C   UNL     1      45.770   1.332   8.393  0.00  0.00    +0.000 C 
ENDBRANCH  10  11
ENDBRANCH   9  10
ENDBRANCH   7   9
ENDBRANCH   1   7
BRANCH   4  17
ATOM     17  C   UNL     1      48.500   6.760  15.329  0.00  0.00    +0.000 C 
BRANCH  17  18
ATOM     18  N   UNL     1      49.586   5.988  15.875  0.00  0.00    +0.000 N 
ATOM     19  C   UNL     1      49.742   5.838  17.227  0.00  0.00    +0.000 C 
ATOM     20  O   UNL     1      48.956   6.330  18.031  0.00  0.00    +0.000 OA
ATOM     21  H   UNL     1      50.366   5.777  15.257  0.00  0.00    +0.000 HD
BRANCH  19  22
ATOM     22  C   UNL     1      50.863   4.997  17.664  0.00  0.00    +0.000 A 
ATOM     23  C   UNL     1      51.975   5.582  18.259  0.00  0.00    +0.000 A 
ATOM     24  S   UNL     1      53.152   4.459  18.757  0.00  0.00    +0.000 S 
ATOM     25  C   UNL     1      52.248   3.155  18.146  0.00  0.00    +0.000 A 
ATOM     26  N   UNL     1      52.715   1.878  18.226  0.00  0.00    +0.000 NA
ATOM     27  C   UNL     1      51.941   0.990  17.687  0.00  0.00    +0.000 A 
ATOM     28  N   UNL     1      50.744   1.266  17.089  0.00  0.00    +0.000 N 
ATOM     29  C   UNL     1      50.212   2.530  17.018  0.00  0.00    +0.000 A 
ATOM     30  O   UNL     1      49.108   2.738  16.525  0.00  0.00    +0.000 OA
ATOM     31  C   UNL     1      51.052   3.568  17.590  0.00  0.00    +0.000 A 
ATOM     32  H   UNL     1      50.179   0.525  16.698  0.00  0.00    +0.000 HD
ENDBRANCH  19  22
ENDBRANCH  17  18
ENDBRANCH   4  17
TORSDOF 7
ENDMDL
MODEL 3
REMARK VINA RESULT:    -8.077      2.687      3.275
REMARK INTER + INTRA:         -12.042
REMARK INTER:                 -11.158
REMARK INTRA:                  -0.884
REMARK UNBOUND:                -0.659
REMARK  Name = 
REMARK  8 active torsions:
REMARK  status: ('A' for Active; 'I' for Inactive)
REMARK    1  A    between atoms: C_1  and  N_2
REMARK    2  A    between atoms: N_2  and  C_3
REMARK    3  A    between atoms: N_2  and  C_24
REMARK    4  A    between atoms: C_3  and  C_4
REMARK    5  A    between atoms: C_7  and  C_8
REMARK    6  A    between atoms: C_8  and  N_9
REMARK    7  A    between atoms: C_10  and  C_12
REMARK    8  A    between atoms: C_24  and  C_25
REMARK                            x       y       z     vdW  Elec       q    Type
REMARK                         _______ _______ _______ _____ _____    ______ ____
ROOT
ATOM      1  C   UNL     1      45.889   4.262  12.817  0.00  0.00    +0.000 A 
ATOM      2  C   UNL     1      46.309   5.462  12.247  0.00  0.00    +0.000 A 
ATOM      3  C   UNL     1      47.196   6.272  12.953  0.00  0.00    +0.000 A 
ATOM      4  C   UNL     1      47.634   5.873  14.217  0.00  0.00    +0.000 A 
ATOM      5  C   UNL     1      47.131   4.681  14.721  0.00  0.00    +0.000 A 
ATOM      6  N   UNL     1      46.289   3.866  14.052  0.00  0.00    +0.000 NA
ENDROOT
BRANCH   1   7
ATOM      7  C   UNL     1      44.968   3.332  12.046  0.00  0.00    +0.000 C 
BRANCH   7   9
ATOM      8  C   UNL     1      43.043   4.403  11.044  0.00  0.00    +0.000 C 
ATOM      9  N   UNL     1      44.400   3.888  10.797  0.00  0.00    +0.000 NA
BRANCH   9  10
ATOM     10  C   UNL     1      44.324   2.852   9.743  0.00  0.00    +0.000 C 
BRANCH  10  11
ATOM     11  C   UNL     1      45.583   2.723   8.856  0.00  0.00    +0.000 C 
ATOM     12  C   UNL     1      45.547   3.689   7.659  0.00  0.00    +0.000 C 
ATOM     13  C   UNL     1      46.787   3.529   6.781  0.00  0.00    +0.000 C 
ATOM     14  C   UNL     1      46.967   2.084   6.322  0.00  0.00    +0.000 C 
ATOM     15  C   UNL     1      46.997   1.121   7.503  0.00  0.00    +0.000 C 
ATOM     16  C   UNL     1      45.755   1.272   8.380  0.00  0.00    +0.000 C 
ENDBRANCH  10  11
ENDBRANCH   9  10
ENDBRANCH   7   9
ENDBRANCH   1   7
BRANCH   4  17
ATOM     17  C   UNL     1      48.578   6.707  15.031  0.00  0.00    +0.000 C 
BRANCH  17  18
ATOM     18  N   UNL     1      48.340   6.540  16.441  0.00  0.00    +0.000 N 
ATOM     19  C   UNL     1      49.249   5.906  17.246  0.00  0.00    +0.000 C 
ATOM     20  O   UNL     1      50.313   5.475  16.812  0.00  0.00    +0.000 OA
ATOM     21  H   UNL     1      47.387   6.671  16.773  0.00  0.00    +0.000 HD
BRANCH  19  22
ATOM     22  C   UNL     1      48.914   5.831  18.673  0.00  0.00    +0.000 A 
ATOM     23  C   UNL     1      49.137   4.650  19.373  0.00  0.00    +0.000 A 
ATOM     24  S   UNL     1      48.749   4.755  21.028  0.00  0.00    +0.000 S 
ATOM     25  C   UNL     1      48.216   6.361  20.858  0.00  0.00    +0.000 A 
ATOM     26  N   UNL     1      47.717   7.051  21.922  0.00  0.00    +0.000 NA
ATOM     27  C   UNL     1      47.315   8.249  21.641  0.00  0.00    +0.000 A 
ATOM     28  N   UNL     1      47.376   8.818  20.400  0.00  0.00    +0.000 N 
ATOM     29  C   UNL     1      47.905   8.178  19.306  0.00  0.00    +0.000 A 
ATOM     30  O   UNL     1      48.000   8.735  18.217  0.00  0.00    +0.000 OA
ATOM     31  C   UNL     1      48.354   6.820  19.562  0.00  0.00    +0.000 A 
ATOM     32  H   UNL     1      47.057   9.764  20.249  0.00  0.00    +0.000 HD
ENDBRANCH  19  22
ENDBRANCH  17  18
ENDBRANCH   4  17
TORSDOF 7
ENDMDL
MODEL 4
REMARK VINA RESULT:    -8.054      1.985      2.415
REMARK INTER + INTRA:         -12.009
REMARK INTER:                 -11.045
REMARK INTRA:                  -0.963
REMARK UNBOUND:                -0.659
REMARK  Name = 
REMARK  8 active torsions:
REMARK  status: ('A' for Active; 'I' for Inactive)
REMARK    1  A    between atoms: C_1  and  N_2
REMARK    2  A    between atoms: N_2  and  C_3
REMARK    3  A    between atoms: N_2  and  C_24
REMARK    4  A    between atoms: C_3  and  C_4
REMARK    5  A    between atoms: C_7  and  C_8
REMARK    6  A    between atoms: C_8  and  N_9
REMARK    7  A    between atoms: C_10  and  C_12
REMARK    8  A    between atoms: C_24  and  C_25
REMARK                            x       y       z     vdW  Elec       q    Type
REMARK                         _______ _______ _______ _____ _____    ______ ____
ROOT
ATOM      1  C   UNL     1      45.977   4.397  12.703  0.00  0.00    +0.000 A 
ATOM      2  C   UNL     1      46.200   5.560  11.969  0.00  0.00    +0.000 A 
ATOM      3  C   UNL     1      47.090   6.510  12.462  0.00  0.00    +0.000 A 
ATOM      4  C   UNL     1      47.729   6.285  13.683  0.00  0.00    +0.000 A 
ATOM      5  C   UNL     1      47.416   5.116  14.363  0.00  0.00    +0.000 A 
ATOM      6  N   UNL     1      46.575   4.168  13.900  0.00  0.00    +0.000 NA
ENDROOT
BRANCH   1   7
ATOM      7  C   UNL     1      45.055   3.316  12.162  0.00  0.00    +0.000 C 
BRANCH   7   9
ATOM      8  C   UNL     1      42.853   3.913  11.354  0.00  0.00    +0.000 C 
ATOM      9  N   UNL     1      44.258   3.696  10.973  0.00  0.00    +0.000 NA
BRANCH   9  10
ATOM     10  C   UNL     1      44.306   2.634   9.943  0.00  0.00    +0.000 C 
BRANCH  10  11
ATOM     11  C   UNL     1      45.542   2.673   9.016  0.00  0.00    +0.000 C 
ATOM     12  C   UNL     1      45.417   3.755   7.931  0.00  0.00    +0.000 C 
ATOM     13  C   UNL     1      46.636   3.760   7.011  0.00  0.00    +0.000 C 
ATOM     14  C   UNL     1      46.881   2.385   6.396  0.00  0.00    +0.000 C 
ATOM     15  C   UNL     1      47.000   1.305   7.466  0.00  0.00    +0.000 C 
ATOM     16  C   UNL     1      45.779   1.292   8.385  0.00  0.00    +0.000 C 
ENDBRANCH  10  11
ENDBRANCH   9  10
ENDBRANCH   7   9
ENDBRANCH   1   7
BRANCH   4  17
ATOM     17  C   UNL     1      48.689   7.276  14.273  0.00  0.00    +0.000 C 
BRANCH  17  18
ATOM     18  N   UNL     1      48.575   7.324  15.707  0.00  0.00    +0.000 N 
ATOM     19  C   UNL     1      49.558   6.820  16.516  0.00  0.00    +0.000 C 
ATOM     20  O   UNL     1      50.588   6.330  16.061  0.00  0.00    +0.000 OA
ATOM     21  H   UNL     1      47.652   7.502  16.097  0.00  0.00    +0.000 HD
BRANCH  19  22
ATOM     22  C   UNL     1      49.349   6.961  17.962  0.00  0.00    +0.000 A 
ATOM     23  C   UNL     1      49.450   8.214  18.555  0.00  0.00    +0.000 A 
ATOM     24  S   UNL     1      49.119   8.207  20.226  0.00  0.00    +0.000 S 
ATOM     25  C   UNL     1      48.886   6.523  20.229  0.00  0.00    +0.000 A 
ATOM     26  N   UNL     1      48.595   5.856  21.381  0.00  0.00    +0.000 NA
ATOM     27  C   UNL     1      48.481   4.574  21.242  0.00  0.00    +0.000 A 
ATOM     28  N   UNL     1      48.623   3.905  20.059  0.00  0.00    +0.000 N 
ATOM     29  C   UNL     1      48.877   4.534  18.866  0.00  0.00    +0.000 A 
ATOM     30  O   UNL     1      48.942   3.913  17.810  0.00  0.00    +0.000 OA
ATOM     31  C   UNL     1      49.035   5.976  18.968  0.00  0.00    +0.000 A 
ATOM     32  H   UNL     1      48.509   2.902  20.016  0.00  0.00    +0.000 HD
ENDBRANCH  19  22
ENDBRANCH  17  18
ENDBRANCH   4  17
TORSDOF 7
ENDMDL
MODEL 5
REMARK VINA RESULT:    -7.585      2.833      8.262
REMARK INTER + INTRA:         -11.348
REMARK INTER:                  -9.949
REMARK INTRA:                  -1.399
REMARK UNBOUND:                -0.659
REMARK  Name = 
REMARK  8 active torsions:
REMARK  status: ('A' for Active; 'I' for Inactive)
REMARK    1  A    between atoms: C_1  and  N_2
REMARK    2  A    between atoms: N_2  and  C_3
REMARK    3  A    between atoms: N_2  and  C_24
REMARK    4  A    between atoms: C_3  and  C_4
REMARK    5  A    between atoms: C_7  and  C_8
REMARK    6  A    between atoms: C_8  and  N_9
REMARK    7  A    between atoms: C_10  and  C_12
REMARK    8  A    between atoms: C_24  and  C_25
REMARK                            x       y       z     vdW  Elec       q    Type
REMARK                         _______ _______ _______ _____ _____    ______ ____
ROOT
ATOM      1  C   UNL     1      48.907   7.797  16.160  0.00  0.00    +0.000 A 
ATOM      2  C   UNL     1      48.424   8.970  15.584  0.00  0.00    +0.000 A 
ATOM      3  C   UNL     1      47.974   8.941  14.266  0.00  0.00    +0.000 A 
ATOM      4  C   UNL     1      48.028   7.744  13.549  0.00  0.00    +0.000 A 
ATOM      5  C   UNL     1      48.561   6.636  14.191  0.00  0.00    +0.000 A 
ATOM      6  N   UNL     1      48.984   6.628  15.473  0.00  0.00    +0.000 NA
ENDROOT
BRANCH   1   7
ATOM      7  C   UNL     1      49.350   7.786  17.614  0.00  0.00    +0.000 C 
BRANCH   7   9
ATOM      8  C   UNL     1      47.973   7.739  19.603  0.00  0.00    +0.000 C 
ATOM      9  N   UNL     1      48.549   6.929  18.517  0.00  0.00    +0.000 NA
BRANCH   9  10
ATOM     10  C   UNL     1      49.386   5.866  19.118  0.00  0.00    +0.000 C 
BRANCH  10  11
ATOM     11  C   UNL     1      49.074   4.432  18.635  0.00  0.00    +0.000 C 
ATOM     12  C   UNL     1      50.174   3.881  17.712  0.00  0.00    +0.000 C 
ATOM     13  C   UNL     1      49.836   2.473  17.226  0.00  0.00    +0.000 C 
ATOM     14  C   UNL     1      48.469   2.427  16.548  0.00  0.00    +0.000 C 
ATOM     15  C   UNL     1      47.374   2.978  17.455  0.00  0.00    +0.000 C 
ATOM     16  C   UNL     1      47.705   4.389  17.938  0.00  0.00    +0.000 C 
ENDBRANCH  10  11
ENDBRANCH   9  10
ENDBRANCH   7   9
ENDBRANCH   1   7
BRANCH   4  17
ATOM     17  C   UNL     1      47.570   7.652  12.123  0.00  0.00    +0.000 C 
BRANCH  17  18
ATOM     18  N   UNL     1      46.889   6.408  11.872  0.00  0.00    +0.000 N 
ATOM     19  C   UNL     1      45.521   6.335  11.867  0.00  0.00    +0.000 C 
ATOM     20  O   UNL     1      44.816   7.324  12.049  0.00  0.00    +0.000 OA
ATOM     21  H   UNL     1      47.432   5.552  11.954  0.00  0.00    +0.000 HD
BRANCH  19  22
ATOM     22  C   UNL     1      44.939   5.023  11.561  0.00  0.00    +0.000 A 
ATOM     23  C   UNL     1      44.255   4.324  12.548  0.00  0.00    +0.000 A 
ATOM     24  S   UNL     1      43.596   2.850  12.008  0.00  0.00    +0.000 S 
ATOM     25  C   UNL     1      44.249   3.063  10.453  0.00  0.00    +0.000 A 
ATOM     26  N   UNL     1      44.075   2.123   9.483  0.00  0.00    +0.000 NA
ATOM     27  C   UNL     1      44.658   2.398   8.360  0.00  0.00    +0.000 A 
ATOM     28  N   UNL     1      45.387   3.528   8.121  0.00  0.00    +0.000 N 
ATOM     29  C   UNL     1      45.559   4.523   9.052  0.00  0.00    +0.000 A 
ATOM     30  O   UNL     1      46.171   5.553   8.789  0.00  0.00    +0.000 OA
ATOM     31  C   UNL     1      44.941   4.254  10.340  0.00  0.00    +0.000 A 
ATOM     32  H   UNL     1      45.807   3.690   7.217  0.00  0.00    +0.000 HD
ENDBRANCH  19  22
ENDBRANCH  17  18
ENDBRANCH   4  17
TORSDOF 7
ENDMDL
MODEL 6
REMARK VINA RESULT:    -7.507      3.134      7.924
REMARK INTER + INTRA:         -11.237
REMARK INTER:                  -9.636
REMARK INTRA:                  -1.601
REMARK UNBOUND:                -0.659
REMARK  Name = 
REMARK  8 active torsions:
REMARK  status: ('A' for Active; 'I' for Inactive)
REMARK    1  A    between atoms: C_1  and  N_2
REMARK    2  A    between atoms: N_2  and  C_3
REMARK    3  A    between atoms: N_2  and  C_24
REMARK    4  A    between atoms: C_3  and  C_4
REMARK    5  A    between atoms: C_7  and  C_8
REMARK    6  A    between atoms: C_8  and  N_9
REMARK    7  A    between atoms: C_10  and  C_12
REMARK    8  A    between atoms: C_24  and  C_25
REMARK                            x       y       z     vdW  Elec       q    Type
REMARK                         _______ _______ _______ _____ _____    ______ ____
ROOT
ATOM      1  C   UNL     1      48.862   7.848  16.309  0.00  0.00    +0.000 A 
ATOM      2  C   UNL     1      48.880   6.672  15.562  0.00  0.00    +0.000 A 
ATOM      3  C   UNL     1      48.686   6.743  14.185  0.00  0.00    +0.000 A 
ATOM      4  C   UNL     1      48.466   7.984  13.585  0.00  0.00    +0.000 A 
ATOM      5  C   UNL     1      48.425   9.097  14.414  0.00  0.00    +0.000 A 
ATOM      6  N   UNL     1      48.632   9.062  15.747  0.00  0.00    +0.000 NA
ENDROOT
BRANCH   1   7
ATOM      7  C   UNL     1      49.128   7.807  17.805  0.00  0.00    +0.000 C 
BRANCH   7   9
ATOM      8  C   UNL     1      47.500   7.664  19.589  0.00  0.00    +0.000 C 
ATOM      9  N   UNL     1      48.255   6.899  18.583  0.00  0.00    +0.000 NA
BRANCH   9  10
ATOM     10  C   UNL     1      49.052   5.867  19.280  0.00  0.00    +0.000 C 
BRANCH  10  11
ATOM     11  C   UNL     1      48.881   4.428  18.742  0.00  0.00    +0.000 C 
ATOM     12  C   UNL     1      50.082   3.984  17.890  0.00  0.00    +0.000 C 
ATOM     13  C   UNL     1      49.884   2.570  17.347  0.00  0.00    +0.000 C 
ATOM     14  C   UNL     1      48.576   2.447  16.568  0.00  0.00    +0.000 C 
ATOM     15  C   UNL     1      47.382   2.893  17.405  0.00  0.00    +0.000 C 
ATOM     16  C   UNL     1      47.573   4.309  17.944  0.00  0.00    +0.000 C 
ENDBRANCH  10  11
ENDBRANCH   9  10
ENDBRANCH   7   9
ENDBRANCH   1   7
BRANCH   4  17
ATOM     17  C   UNL     1      48.237   8.125  12.109  0.00  0.00    +0.000 C 
BRANCH  17  18
ATOM     18  N   UNL     1      47.552   6.977  11.575  0.00  0.00    +0.000 N 
ATOM     19  C   UNL     1      46.194   6.981  11.391  0.00  0.00    +0.000 C 
ATOM     20  O   UNL     1      45.506   7.965  11.648  0.00  0.00    +0.000 OA
ATOM     21  H   UNL     1      48.050   6.091  11.578  0.00  0.00    +0.000 HD
BRANCH  19  22
ATOM     22  C   UNL     1      45.612   5.769  10.803  0.00  0.00    +0.000 A 
ATOM     23  C   UNL     1      45.785   5.508   9.448  0.00  0.00    +0.000 A 
ATOM     24  S   UNL     1      45.097   4.034   8.945  0.00  0.00    +0.000 S 
ATOM     25  C   UNL     1      44.495   3.718  10.504  0.00  0.00    +0.000 A 
ATOM     26  N   UNL     1      43.765   2.597  10.761  0.00  0.00    +0.000 NA
ATOM     27  C   UNL     1      43.339   2.504  11.981  0.00  0.00    +0.000 A 
ATOM     28  N   UNL     1      43.585   3.424  12.961  0.00  0.00    +0.000 N 
ATOM     29  C   UNL     1      44.347   4.549  12.762  0.00  0.00    +0.000 A 
ATOM     30  O   UNL     1      44.599   5.327  13.676  0.00  0.00    +0.000 OA
ATOM     31  C   UNL     1      44.834   4.712  11.402  0.00  0.00    +0.000 A 
ATOM     32  H   UNL     1      43.234   3.286  13.898  0.00  0.00    +0.000 HD
ENDBRANCH  19  22
ENDBRANCH  17  18
ENDBRANCH   4  17
TORSDOF 7
ENDMDL
MODEL 7
REMARK VINA RESULT:    -7.271      3.764      5.205
REMARK INTER + INTRA:         -10.905
REMARK INTER:                  -9.598
REMARK INTRA:                  -1.306
REMARK UNBOUND:                -0.659
REMARK  Name = 
REMARK  8 active torsions:
REMARK  status: ('A' for Active; 'I' for Inactive)
REMARK    1  A    between atoms: C_1  and  N_2
REMARK    2  A    between atoms: N_2  and  C_3
REMARK    3  A    between atoms: N_2  and  C_24
REMARK    4  A    between atoms: C_3  and  C_4
REMARK    5  A    between atoms: C_7  and  C_8
REMARK    6  A    between atoms: C_8  and  N_9
REMARK    7  A    between atoms: C_10  and  C_12
REMARK    8  A    between atoms: C_24  and  C_25
REMARK                            x       y       z     vdW  Elec       q    Type
REMARK                         _______ _______ _______ _____ _____    ______ ____
ROOT
ATOM      1  C   UNL     1      45.858   5.037  12.131  0.00  0.00    +0.000 A 
ATOM      2  C   UNL     1      45.409   6.149  11.421  0.00  0.00    +0.000 A 
ATOM      3  C   UNL     1      45.850   7.415  11.797  0.00  0.00    +0.000 A 
ATOM      4  C   UNL     1      46.720   7.546  12.882  0.00  0.00    +0.000 A 
ATOM      5  C   UNL     1      47.083   6.387  13.554  0.00  0.00    +0.000 A 
ATOM      6  N   UNL     1      46.690   5.145  13.199  0.00  0.00    +0.000 NA
ENDROOT
BRANCH   1   7
ATOM      7  C   UNL     1      45.440   3.640  11.707  0.00  0.00    +0.000 C 
BRANCH   7   9
ATOM      8  C   UNL     1      43.044   3.301  11.663  0.00  0.00    +0.000 C 
ATOM      9  N   UNL     1      44.238   3.569  10.845  0.00  0.00    +0.000 NA
BRANCH   9  10
ATOM     10  C   UNL     1      44.370   2.489   9.842  0.00  0.00    +0.000 C 
BRANCH  10  11
ATOM     11  C   UNL     1      45.625   2.576   8.943  0.00  0.00    +0.000 C 
ATOM     12  C   UNL     1      45.514   3.705   7.904  0.00  0.00    +0.000 C 
ATOM     13  C   UNL     1      46.751   3.759   7.011  0.00  0.00    +0.000 C 
ATOM     14  C   UNL     1      47.019   2.413   6.341  0.00  0.00    +0.000 C 
ATOM     15  C   UNL     1      47.124   1.289   7.365  0.00  0.00    +0.000 C 
ATOM     16  C   UNL     1      45.885   1.226   8.257  0.00  0.00    +0.000 C 
ENDBRANCH  10  11
ENDBRANCH   9  10
ENDBRANCH   7   9
ENDBRANCH   1   7
BRANCH   4  17
ATOM     17  C   UNL     1      47.220   8.883  13.343  0.00  0.00    +0.000 C 
BRANCH  17  18
ATOM     18  N   UNL     1      48.531   9.161  12.817  0.00  0.00    +0.000 N 
ATOM     19  C   UNL     1      48.707  10.012  11.758  0.00  0.00    +0.000 C 
ATOM     20  O   UNL     1      47.764  10.594  11.228  0.00  0.00    +0.000 OA
ATOM     21  H   UNL     1      49.283   8.526  13.074  0.00  0.00    +0.000 HD
BRANCH  19  22
ATOM     22  C   UNL     1      50.092  10.248  11.334  0.00  0.00    +0.000 A 
ATOM     23  C   UNL     1      50.543  11.549  11.144  0.00  0.00    +0.000 A 
ATOM     24  S   UNL     1      52.187  11.644  10.711  0.00  0.00    +0.000 S 
ATOM     25  C   UNL     1      52.341   9.950  10.706  0.00  0.00    +0.000 A 
ATOM     26  N   UNL     1      53.522   9.354  10.382  0.00  0.00    +0.000 NA
ATOM     27  C   UNL     1      53.485   8.059  10.382  0.00  0.00    +0.000 A 
ATOM     28  N   UNL     1      52.381   7.314  10.687  0.00  0.00    +0.000 N 
ATOM     29  C   UNL     1      51.180   7.867  11.058  0.00  0.00    +0.000 A 
ATOM     30  O   UNL     1      50.223   7.172  11.381  0.00  0.00    +0.000 OA
ATOM     31  C   UNL     1      51.161   9.321  11.053  0.00  0.00    +0.000 A 
ATOM     32  H   UNL     1      52.422   6.305  10.682  0.00  0.00    +0.000 HD
ENDBRANCH  19  22
ENDBRANCH  17  18
ENDBRANCH   4  17
TORSDOF 7
ENDMDL
MODEL 8
REMARK VINA RESULT:    -7.127      1.788      2.240
REMARK INTER + INTRA:         -10.702
REMARK INTER:                  -9.980
REMARK INTRA:                  -0.722
REMARK UNBOUND:                -0.659
REMARK  Name = 
REMARK  8 active torsions:
REMARK  status: ('A' for Active; 'I' for Inactive)
REMARK    1  A    between atoms: C_1  and  N_2
REMARK    2  A    between atoms: N_2  and  C_3
REMARK    3  A    between atoms: N_2  and  C_24
REMARK    4  A    between atoms: C_3  and  C_4
REMARK    5  A    between atoms: C_7  and  C_8
REMARK    6  A    between atoms: C_8  and  N_9
REMARK    7  A    between atoms: C_10  and  C_12
REMARK    8  A    between atoms: C_24  and  C_25
REMARK                            x       y       z     vdW  Elec       q    Type
REMARK                         _______ _______ _______ _____ _____    ______ ____
ROOT
ATOM      1  C   UNL     1      46.130   6.627  11.458  0.00  0.00    +0.000 A 
ATOM      2  C   UNL     1      45.246   7.542  12.026  0.00  0.00    +0.000 A 
ATOM      3  C   UNL     1      45.726   8.455  12.962  0.00  0.00    +0.000 A 
ATOM      4  C   UNL     1      47.076   8.426  13.320  0.00  0.00    +0.000 A 
ATOM      5  C   UNL     1      47.873   7.454  12.731  0.00  0.00    +0.000 A 
ATOM      6  N   UNL     1      47.441   6.571  11.806  0.00  0.00    +0.000 NA
ENDROOT
BRANCH   1   7
ATOM      7  C   UNL     1      45.646   5.658  10.392  0.00  0.00    +0.000 C 
BRANCH   7   9
ATOM      8  C   UNL     1      45.146   3.898  11.976  0.00  0.00    +0.000 C 
ATOM      9  N   UNL     1      44.632   4.675  10.837  0.00  0.00    +0.000 NA
BRANCH   9  10
ATOM     10  C   UNL     1      44.290   3.737   9.745  0.00  0.00    +0.000 C 
BRANCH  10  11
ATOM     11  C   UNL     1      45.496   3.169   8.964  0.00  0.00    +0.000 C 
ATOM     12  C   UNL     1      45.688   3.870   7.608  0.00  0.00    +0.000 C 
ATOM     13  C   UNL     1      46.869   3.279   6.841  0.00  0.00    +0.000 C 
ATOM     14  C   UNL     1      46.727   1.768   6.669  0.00  0.00    +0.000 C 
ATOM     15  C   UNL     1      46.529   1.068   8.009  0.00  0.00    +0.000 C 
ATOM     16  C   UNL     1      45.345   1.652   8.777  0.00  0.00    +0.000 C 
ENDBRANCH  10  11
ENDBRANCH   9  10
ENDBRANCH   7   9
ENDBRANCH   1   7
BRANCH   4  17
ATOM     17  C   UNL     1      47.650   9.374  14.331  0.00  0.00    +0.000 C 
BRANCH  17  18
ATOM     18  N   UNL     1      47.619   8.808  15.654  0.00  0.00    +0.000 N 
ATOM     19  C   UNL     1      48.756   8.329  16.250  0.00  0.00    +0.000 C 
ATOM     20  O   UNL     1      49.851   8.382  15.697  0.00  0.00    +0.000 OA
ATOM     21  H   UNL     1      46.712   8.541  16.028  0.00  0.00    +0.000 HD
BRANCH  19  22
ATOM     22  C   UNL     1      48.608   7.812  17.615  0.00  0.00    +0.000 A 
ATOM     23  C   UNL     1      48.400   8.695  18.669  0.00  0.00    +0.000 A 
ATOM     24  S   UNL     1      48.191   7.925  20.173  0.00  0.00    +0.000 S 
ATOM     25  C   UNL     1      48.429   6.389  19.483  0.00  0.00    +0.000 A 
ATOM     26  N   UNL     1      48.405   5.264  20.249  0.00  0.00    +0.000 NA
ATOM     27  C   UNL     1      48.638   4.168  19.599  0.00  0.00    +0.000 A 
ATOM     28  N   UNL     1      48.882   4.100  18.256  0.00  0.00    +0.000 N 
ATOM     29  C   UNL     1      48.878   5.200  17.434  0.00  0.00    +0.000 A 
ATOM     30  O   UNL     1      49.043   5.100  16.223  0.00  0.00    +0.000 OA
ATOM     31  C   UNL     1      48.641   6.460  18.119  0.00  0.00    +0.000 A 
ATOM     32  H   UNL     1      49.044   3.211  17.806  0.00  0.00    +0.000 HD
ENDBRANCH  19  22
ENDBRANCH  17  18
ENDBRANCH   4  17
TORSDOF 7
ENDMDL
MODEL 9
REMARK VINA RESULT:    -7.016      3.606      8.672
REMARK INTER + INTRA:         -10.545
REMARK INTER:                  -9.223
REMARK INTRA:                  -1.323
REMARK UNBOUND:                -0.659
REMARK  Name = 
REMARK  8 active torsions:
REMARK  status: ('A' for Active; 'I' for Inactive)
REMARK    1  A    between atoms: C_1  and  N_2
REMARK    2  A    between atoms: N_2  and  C_3
REMARK    3  A    between atoms: N_2  and  C_24
REMARK    4  A    between atoms: C_3  and  C_4
REMARK    5  A    between atoms: C_7  and  C_8
REMARK    6  A    between atoms: C_8  and  N_9
REMARK    7  A    between atoms: C_10  and  C_12
REMARK    8  A    between atoms: C_24  and  C_25
REMARK                            x       y       z     vdW  Elec       q    Type
REMARK                         _______ _______ _______ _____ _____    ______ ____
ROOT
ATOM      1  C   UNL     1      51.266   3.545  18.245  0.00  0.00    +0.000 A 
ATOM      2  C   UNL     1      50.893   2.510  17.390  0.00  0.00    +0.000 A 
ATOM      3  C   UNL     1      49.568   2.426  16.968  0.00  0.00    +0.000 A 
ATOM      4  C   UNL     1      48.643   3.369  17.417  0.00  0.00    +0.000 A 
ATOM      5  C   UNL     1      49.096   4.342  18.297  0.00  0.00    +0.000 A 
ATOM      6  N   UNL     1      50.377   4.462  18.707  0.00  0.00    +0.000 NA
ENDROOT
BRANCH   1   7
ATOM      7  C   UNL     1      52.715   3.696  18.675  0.00  0.00    +0.000 C 
BRANCH   7   9
ATOM      8  C   UNL     1      55.021   3.930  17.979  0.00  0.00    +0.000 C 
ATOM      9  N   UNL     1      53.626   4.271  17.658  0.00  0.00    +0.000 NA
BRANCH   9  10
ATOM     10  C   UNL     1      53.502   5.744  17.611  0.00  0.00    +0.000 C 
BRANCH  10  11
ATOM     11  C   UNL     1      52.931   6.314  16.292  0.00  0.00    +0.000 C 
ATOM     12  C   UNL     1      53.845   7.392  15.685  0.00  0.00    +0.000 C 
ATOM     13  C   UNL     1      53.251   7.959  14.397  0.00  0.00    +0.000 C 
ATOM     14  C   UNL     1      51.838   8.492  14.617  0.00  0.00    +0.000 C 
ATOM     15  C   UNL     1      50.928   7.430  15.226  0.00  0.00    +0.000 C 
ATOM     16  C   UNL     1      51.514   6.865  16.518  0.00  0.00    +0.000 C 
ENDBRANCH  10  11
ENDBRANCH   9  10
ENDBRANCH   7   9
ENDBRANCH   1   7
BRANCH   4  17
ATOM     17  C   UNL     1      47.200   3.325  17.008  0.00  0.00    +0.000 C 
BRANCH  17  18
ATOM     18  N   UNL     1      46.899   4.349  16.042  0.00  0.00    +0.000 N 
ATOM     19  C   UNL     1      47.018   4.117  14.697  0.00  0.00    +0.000 C 
ATOM     20  O   UNL     1      47.362   3.024  14.255  0.00  0.00    +0.000 OA
ATOM     21  H   UNL     1      46.845   5.308  16.378  0.00  0.00    +0.000 HD
BRANCH  19  22
ATOM     22  C   UNL     1      46.646   5.224  13.809  0.00  0.00    +0.000 A 
ATOM     23  C   UNL     1      47.509   6.302  13.650  0.00  0.00    +0.000 A 
ATOM     24  S   UNL     1      46.949   7.466  12.541  0.00  0.00    +0.000 S 
ATOM     25  C   UNL     1      45.508   6.602  12.276  0.00  0.00    +0.000 A 
ATOM     26  N   UNL     1      44.550   7.077  11.432  0.00  0.00    +0.000 NA
ATOM     27  C   UNL     1      43.490   6.336  11.356  0.00  0.00    +0.000 A 
ATOM     28  N   UNL     1      43.311   5.165  12.037  0.00  0.00    +0.000 N 
ATOM     29  C   UNL     1      44.261   4.626  12.868  0.00  0.00    +0.000 A 
ATOM     30  O   UNL     1      44.095   3.544  13.420  0.00  0.00    +0.000 OA
ATOM     31  C   UNL     1      45.465   5.429  13.006  0.00  0.00    +0.000 A 
ATOM     32  H   UNL     1      42.464   4.626  11.923  0.00  0.00    +0.000 HD
ENDBRANCH  19  22
ENDBRANCH  17  18
ENDBRANCH   4  17
TORSDOF 7
ENDMDL
