MODEL 1
REMARK VINA RESULT:    -8.838      0.000      0.000
REMARK INTER + INTRA:         -13.539
REMARK INTER:                 -12.455
REMARK INTRA:                  -1.084
REMARK UNBOUND:                -1.084
REMARK  Name = 
REMARK  7 active torsions:
REMARK  status: ('A' for Active; 'I' for Inactive)
REMARK    1  A    between atoms: C_2  and  C_4
REMARK    2  A    between atoms: C_7  and  O_8
REMARK    3  A    between atoms: O_8  and  C_9
REMARK    4  A    between atoms: C_9  and  C_10
REMARK    5  A    between atoms: C_10  and  C_13
REMARK    6  A    between atoms: C_17  and  O_18
REMARK    7  A    between atoms: O_18  and  C_19
REMARK                            x       y       z     vdW  Elec       q    Type
REMARK                         _______ _______ _______ _____ _____    ______ ____
ROOT
ATOM      1  C   UNL     1      43.883   4.642  12.509  0.00  0.00    +0.000 C 
ATOM      2  F   UNL     1      42.937   5.357  13.191  0.00  0.00    +0.000 F 
ATOM      3  F   UNL     1      43.777   3.363  12.981  0.00  0.00    +0.000 F 
ENDROOT
BRANCH   1   4
ATOM      4  C   UNL     1      45.276   5.209  12.724  0.00  0.00    +0.000 A 
ATOM      5  C   UNL     1      45.831   6.115  11.810  0.00  0.00    +0.000 A 
ATOM      6  C   UNL     1      47.115   6.630  12.013  0.00  0.00    +0.000 A 
ATOM      7  C   UNL     1      47.862   6.242  13.128  0.00  0.00    +0.000 A 
ATOM      8  C   UNL     1      47.329   5.333  14.036  0.00  0.00    +0.000 A 
ATOM      9  C   UNL     1      46.041   4.824  13.836  0.00  0.00    +0.000 A 
BRANCH   8  10
ATOM     10  O   UNL     1      47.954   4.901  15.178  0.00  0.00    +0.000 OA
BRANCH  10  11
ATOM     11  C   UNL     1      47.194   4.156  16.163  0.00  0.00    +0.000 C 
ATOM     12  C   UNL     1      47.201   4.670  17.615  0.00  0.00    +0.000 C 
ATOM     13  N   UNL     1      47.640   3.354  18.098  0.00  0.00    +0.000 NA
ATOM     14  C   UNL     1      47.914   2.914  16.724  0.00  0.00    +0.000 C 
ATOM     15  H   UNL     1      46.916   2.815  18.572  0.00  0.00    +0.000 HD
ENDBRANCH  10  11
ENDBRANCH   8  10
ENDBRANCH   1   4
BRANCH   1  16
ATOM     16  C   UNL     1      43.524   4.650  11.018  0.00  0.00    +0.000 C 
BRANCH  16  17
ATOM     17  O   UNL     1      43.454   3.312  10.488  0.00  0.00    +0.000 OA
BRANCH  17  21
ATOM     18  C   UNL     1      46.373   2.691   7.647  0.00  0.00    +0.000 A 
ATOM     19  C   UNL     1      45.904   3.986   7.879  0.00  0.00    +0.000 A 
ATOM     20  C   UNL     1      44.909   4.187   8.841  0.00  0.00    +0.000 A 
ATOM     21  C   UNL     1      44.426   3.086   9.535  0.00  0.00    +0.000 A 
ATOM     22  N   UNL     1      44.857   1.825   9.322  0.00  0.00    +0.000 NA
ATOM     23  C   UNL     1      45.810   1.653   8.376  0.00  0.00    +0.000 A 
BRANCH  18  25
ATOM     24  N   UNL     1      47.440   3.079   5.498  0.00  0.00    +0.000 N 
ATOM     25  C   UNL     1      47.420   2.360   6.659  0.00  0.00    +0.000 C 
ATOM     26  O   UNL     1      48.267   1.506   6.889  0.00  0.00    +0.000 OA
ATOM     27  H   UNL     1      48.239   2.922   4.895  0.00  0.00    +0.000 HD
ATOM     28  H   UNL     1      46.940   3.950   5.388  0.00  0.00    +0.000 HD
ENDBRANCH  18  25
ENDBRANCH  17  21
ENDBRANCH  16  17
ENDBRANCH   1  16
TORSDOF 7
ENDMDL
MODEL 2
REMARK VINA RESULT:    -7.810      2.644      3.701
REMARK INTER + INTRA:         -12.090
REMARK INTER:                 -11.121
REMARK INTRA:                  -0.969
REMARK UNBOUND:                -1.084
REMARK  Name = 
REMARK  7 active torsions:
REMARK  status: ('A' for Active; 'I' for Inactive)
REMARK    1  A    between atoms: C_2  and  C_4
REMARK    2  A    between atoms: C_7  and  O_8
REMARK    3  A    between atoms: O_8  and  C_9
REMARK    4  A    between atoms: C_9  and  C_10
REMARK    5  A    between atoms: C_10  and  C_13
REMARK    6  A    between atoms: C_17  and  O_18
REMARK    7  A    between atoms: O_18  and  C_19
REMARK                            x       y       z     vdW  Elec       q    Type
REMARK                         _______ _______ _______ _____ _____    ______ ____
ROOT
ATOM      1  C   UNL     1      43.763   4.594  12.260  0.00  0.00    +0.000 C 
ATOM      2  F   UNL     1      43.081   5.424  11.414  0.00  0.00    +0.000 F 
ATOM      3  F   UNL     1      42.936   4.416  13.333  0.00  0.00    +0.000 F 
ENDROOT
BRANCH   1   4
ATOM      4  C   UNL     1      45.100   5.188  12.671  0.00  0.00    +0.000 A 
ATOM      5  C   UNL     1      45.940   4.514  13.569  0.00  0.00    +0.000 A 
ATOM      6  C   UNL     1      47.166   5.069  13.944  0.00  0.00    +0.000 A 
ATOM      7  C   UNL     1      47.568   6.306  13.432  0.00  0.00    +0.000 A 
ATOM      8  C   UNL     1      46.738   6.992  12.551  0.00  0.00    +0.000 A 
ATOM      9  C   UNL     1      45.513   6.432  12.170  0.00  0.00    +0.000 A 
BRANCH   8  10
ATOM     10  O   UNL     1      47.035   8.195  11.963  0.00  0.00    +0.000 OA
BRANCH  10  11
ATOM     11  C   UNL     1      46.635   9.423  12.622  0.00  0.00    +0.000 C 
ATOM     12  C   UNL     1      45.641  10.342  11.888  0.00  0.00    +0.000 C 
ATOM     13  N   UNL     1      46.561  11.480  12.029  0.00  0.00    +0.000 NA
ATOM     14  C   UNL     1      47.637  10.585  12.476  0.00  0.00    +0.000 C 
ATOM     15  H   UNL     1      46.276  12.168  12.725  0.00  0.00    +0.000 HD
ENDBRANCH  10  11
ENDBRANCH   8  10
ENDBRANCH   1   4
BRANCH   1  16
ATOM     16  C   UNL     1      43.967   3.242  11.563  0.00  0.00    +0.000 C 
BRANCH  16  17
ATOM     17  O   UNL     1      43.499   3.279  10.200  0.00  0.00    +0.000 OA
BRANCH  17  21
ATOM     18  C   UNL     1      46.569   2.683   7.517  0.00  0.00    +0.000 A 
ATOM     19  C   UNL     1      46.044   3.967   7.688  0.00  0.00    +0.000 A 
ATOM     20  C   UNL     1      44.998   4.159   8.596  0.00  0.00    +0.000 A 
ATOM     21  C   UNL     1      44.522   3.062   9.301  0.00  0.00    +0.000 A 
ATOM     22  N   UNL     1      45.008   1.812   9.148  0.00  0.00    +0.000 NA
ATOM     23  C   UNL     1      46.010   1.647   8.252  0.00  0.00    +0.000 A 
BRANCH  18  25
ATOM     24  N   UNL     1      47.760   3.093   5.439  0.00  0.00    +0.000 N 
ATOM     25  C   UNL     1      47.672   2.362   6.589  0.00  0.00    +0.000 C 
ATOM     26  O   UNL     1      48.505   1.507   6.860  0.00  0.00    +0.000 OA
ATOM     27  H   UNL     1      48.593   2.942   4.882  0.00  0.00    +0.000 HD
ATOM     28  H   UNL     1      47.267   3.965   5.308  0.00  0.00    +0.000 HD
ENDBRANCH  18  25
ENDBRANCH  17  21
ENDBRANCH  16  17
ENDBRANCH   1  16
TORSDOF 7
ENDMDL
MODEL 3
REMARK VINA RESULT:    -7.669      2.475      2.770
REMARK INTER + INTRA:         -11.892
REMARK INTER:                 -10.961
REMARK INTRA:                  -0.930
REMARK UNBOUND:                -1.084
REMARK  Name = 
REMARK  7 active torsions:
REMARK  status: ('A' for Active; 'I' for Inactive)
REMARK    1  A    between atoms: C_2  and  C_4
REMARK    2  A    between atoms: C_7  and  O_8
REMARK    3  A    between atoms: O_8  and  C_9
REMARK    4  A    between atoms: C_9  and  C_10
REMARK    5  A    between atoms: C_10  and  C_13
REMARK    6  A    between atoms: C_17  and  O_18
REMARK    7  A    between atoms: O_18  and  C_19
REMARK                            x       y       z     vdW  Elec       q    Type
REMARK                         _______ _______ _______ _____ _____    ______ ____
ROOT
ATOM      1  C   UNL     1      44.401   4.232  12.272  0.00  0.00    +0.000 C 
ATOM      2  F   UNL     1      43.642   3.962  13.377  0.00  0.00    +0.000 F 
ATOM      3  F   UNL     1      45.450   3.357  12.333  0.00  0.00    +0.000 F 
ENDROOT
BRANCH   1   4
ATOM      4  C   UNL     1      44.871   5.677  12.255  0.00  0.00    +0.000 A 
ATOM      5  C   UNL     1      44.238   6.628  11.442  0.00  0.00    +0.000 A 
ATOM      6  C   UNL     1      44.679   7.954  11.429  0.00  0.00    +0.000 A 
ATOM      7  C   UNL     1      45.759   8.347  12.225  0.00  0.00    +0.000 A 
ATOM      8  C   UNL     1      46.404   7.410  13.026  0.00  0.00    +0.000 A 
ATOM      9  C   UNL     1      45.958   6.085  13.044  0.00  0.00    +0.000 A 
BRANCH   8  10
ATOM     10  O   UNL     1      47.453   7.682  13.867  0.00  0.00    +0.000 OA
BRANCH  10  11
ATOM     11  C   UNL     1      48.723   7.017  13.653  0.00  0.00    +0.000 C 
ATOM     12  C   UNL     1      49.889   7.376  14.593  0.00  0.00    +0.000 C 
ATOM     13  N   UNL     1      50.745   7.692  13.440  0.00  0.00    +0.000 NA
ATOM     14  C   UNL     1      49.589   7.631  12.535  0.00  0.00    +0.000 C 
ATOM     15  H   UNL     1      51.463   6.996  13.245  0.00  0.00    +0.000 HD
ENDBRANCH  10  11
ENDBRANCH   8  10
ENDBRANCH   1   4
BRANCH   1  16
ATOM     16  C   UNL     1      43.572   3.922  11.019  0.00  0.00    +0.000 C 
BRANCH  16  17
ATOM     17  O   UNL     1      43.856   2.602  10.515  0.00  0.00    +0.000 OA
BRANCH  17  21
ATOM     18  C   UNL     1      46.416   2.767   7.291  0.00  0.00    +0.000 A 
ATOM     19  C   UNL     1      45.693   3.906   7.654  0.00  0.00    +0.000 A 
ATOM     20  C   UNL     1      44.822   3.840   8.746  0.00  0.00    +0.000 A 
ATOM     21  C   UNL     1      44.712   2.638   9.434  0.00  0.00    +0.000 A 
ATOM     22  N   UNL     1      45.394   1.524   9.098  0.00  0.00    +0.000 NA
ATOM     23  C   UNL     1      46.220   1.608   8.028  0.00  0.00    +0.000 A 
BRANCH  18  25
ATOM     24  N   UNL     1      48.650   2.352   6.430  0.00  0.00    +0.000 N 
ATOM     25  C   UNL     1      47.364   2.721   6.159  0.00  0.00    +0.000 C 
ATOM     26  O   UNL     1      47.001   2.959   5.014  0.00  0.00    +0.000 OA
ATOM     27  H   UNL     1      49.247   2.207   5.624  0.00  0.00    +0.000 HD
ATOM     28  H   UNL     1      48.918   1.900   7.292  0.00  0.00    +0.000 HD
ENDBRANCH  18  25
ENDBRANCH  17  21
ENDBRANCH  16  17
ENDBRANCH   1  16
TORSDOF 7
ENDMDL
MODEL 4
REMARK VINA RESULT:    -7.487      2.587      3.500
REMARK INTER + INTRA:         -11.635
REMARK INTER:                 -10.663
REMARK INTRA:                  -0.972
REMARK UNBOUND:                -1.084
REMARK  Name = 
REMARK  7 active torsions:
REMARK  status: ('A' for Active; 'I' for Inactive)
REMARK    1  A    between atoms: C_2  and  C_4
REMARK    2  A    between atoms: C_7  and  O_8
REMARK    3  A    between atoms: O_8  and  C_9
REMARK    4  A    between atoms: C_9  and  C_10
REMARK    5  A    between atoms: C_10  and  C_13
REMARK    6  A    between atoms: C_17  and  O_18
REMARK    7  A    between atoms: O_18  and  C_19
REMARK                            x       y       z     vdW  Elec       q    Type
REMARK                         _______ _______ _______ _____ _____    ______ ____
ROOT
ATOM      1  C   UNL     1      43.477   5.670  11.925  0.00  0.00    +0.000 C 
ATOM      2  F   UNL     1      43.304   6.866  11.284  0.00  0.00    +0.000 F 
ATOM      3  F   UNL     1      42.495   5.625  12.874  0.00  0.00    +0.000 F 
ENDROOT
BRANCH   1   4
ATOM      4  C   UNL     1      44.863   5.561  12.539  0.00  0.00    +0.000 A 
ATOM      5  C   UNL     1      45.337   4.334  13.026  0.00  0.00    +0.000 A 
ATOM      6  C   UNL     1      46.611   4.242  13.593  0.00  0.00    +0.000 A 
ATOM      7  C   UNL     1      47.426   5.374  13.686  0.00  0.00    +0.000 A 
ATOM      8  C   UNL     1      46.962   6.600  13.220  0.00  0.00    +0.000 A 
ATOM      9  C   UNL     1      45.689   6.690  12.646  0.00  0.00    +0.000 A 
BRANCH   8  10
ATOM     10  O   UNL     1      47.678   7.770  13.232  0.00  0.00    +0.000 OA
BRANCH  10  11
ATOM     11  C   UNL     1      48.916   7.851  12.483  0.00  0.00    +0.000 C 
ATOM     12  C   UNL     1      50.197   8.231  13.249  0.00  0.00    +0.000 C 
ATOM     13  N   UNL     1      50.460   9.324  12.303  0.00  0.00    +0.000 NA
ATOM     14  C   UNL     1      49.120   9.174  11.720  0.00  0.00    +0.000 C 
ATOM     15  H   UNL     1      51.221   9.143  11.651  0.00  0.00    +0.000 HD
ENDBRANCH  10  11
ENDBRANCH   8  10
ENDBRANCH   1   4
BRANCH   1  16
ATOM     16  C   UNL     1      43.245   4.536  10.919  0.00  0.00    +0.000 C 
BRANCH  16  17
ATOM     17  O   UNL     1      43.660   4.918   9.592  0.00  0.00    +0.000 OA
BRANCH  17  21
ATOM     18  C   UNL     1      46.197   2.117   7.951  0.00  0.00    +0.000 A 
ATOM     19  C   UNL     1      45.250   1.716   8.897  0.00  0.00    +0.000 A 
ATOM     20  C   UNL     1      44.397   2.674   9.454  0.00  0.00    +0.000 A 
ATOM     21  C   UNL     1      44.522   3.994   9.039  0.00  0.00    +0.000 A 
ATOM     22  N   UNL     1      45.433   4.405   8.132  0.00  0.00    +0.000 NA
ATOM     23  C   UNL     1      46.258   3.462   7.618  0.00  0.00    +0.000 A 
BRANCH  18  25
ATOM     24  N   UNL     1      46.948  -0.146   7.475  0.00  0.00    +0.000 N 
ATOM     25  C   UNL     1      47.147   1.193   7.297  0.00  0.00    +0.000 C 
ATOM     26  O   UNL     1      48.050   1.609   6.583  0.00  0.00    +0.000 OA
ATOM     27  H   UNL     1      47.532  -0.757   6.918  0.00  0.00    +0.000 HD
ATOM     28  H   UNL     1      46.080  -0.526   7.826  0.00  0.00    +0.000 HD
ENDBRANCH  18  25
ENDBRANCH  17  21
ENDBRANCH  16  17
ENDBRANCH   1  16
TORSDOF 7
ENDMDL
MODEL 5
REMARK VINA RESULT:    -7.474      3.202      4.681
REMARK INTER + INTRA:         -11.617
REMARK INTER:                 -10.670
REMARK INTRA:                  -0.947
REMARK UNBOUND:                -1.084
REMARK  Name = 
REMARK  7 active torsions:
REMARK  status: ('A' for Active; 'I' for Inactive)
REMARK    1  A    between atoms: C_2  and  C_4
REMARK    2  A    between atoms: C_7  and  O_8
REMARK    3  A    between atoms: O_8  and  C_9
REMARK    4  A    between atoms: C_9  and  C_10
REMARK    5  A    between atoms: C_10  and  C_13
REMARK    6  A    between atoms: C_17  and  O_18
REMARK    7  A    between atoms: O_18  and  C_19
REMARK                            x       y       z     vdW  Elec       q    Type
REMARK                         _______ _______ _______ _____ _____    ______ ____
ROOT
ATOM      1  C   UNL     1      44.304   5.087  12.170  0.00  0.00    +0.000 C 
ATOM      2  F   UNL     1      43.336   5.212  13.127  0.00  0.00    +0.000 F 
ATOM      3  F   UNL     1      44.973   3.937  12.483  0.00  0.00    +0.000 F 
ENDROOT
BRANCH   1   4
ATOM      4  C   UNL     1      45.231   6.291  12.151  0.00  0.00    +0.000 A 
ATOM      5  C   UNL     1      46.623   6.125  12.117  0.00  0.00    +0.000 A 
ATOM      6  C   UNL     1      47.469   7.238  12.104  0.00  0.00    +0.000 A 
ATOM      7  C   UNL     1      46.936   8.530  12.128  0.00  0.00    +0.000 A 
ATOM      8  C   UNL     1      45.557   8.708  12.175  0.00  0.00    +0.000 A 
ATOM      9  C   UNL     1      44.711   7.594  12.182  0.00  0.00    +0.000 A 
BRANCH   8  10
ATOM     10  O   UNL     1      44.919   9.923  12.175  0.00  0.00    +0.000 OA
BRANCH  10  11
ATOM     11  C   UNL     1      43.981  10.230  11.113  0.00  0.00    +0.000 C 
ATOM     12  C   UNL     1      44.474  11.111   9.951  0.00  0.00    +0.000 C 
ATOM     13  N   UNL     1      43.351  12.038  10.153  0.00  0.00    +0.000 NA
ATOM     14  C   UNL     1      43.013  11.388  11.427  0.00  0.00    +0.000 C 
ATOM     15  H   UNL     1      42.620  11.975   9.447  0.00  0.00    +0.000 HD
ENDBRANCH  10  11
ENDBRANCH   8  10
ENDBRANCH   1   4
BRANCH   1  16
ATOM     16  C   UNL     1      43.626   4.909  10.806  0.00  0.00    +0.000 C 
BRANCH  16  17
ATOM     17  O   UNL     1      43.578   3.521  10.420  0.00  0.00    +0.000 OA
BRANCH  17  21
ATOM     18  C   UNL     1      46.435   2.676   7.574  0.00  0.00    +0.000 A 
ATOM     19  C   UNL     1      45.988   3.990   7.730  0.00  0.00    +0.000 A 
ATOM     20  C   UNL     1      45.014   4.267   8.694  0.00  0.00    +0.000 A 
ATOM     21  C   UNL     1      44.529   3.220   9.467  0.00  0.00    +0.000 A 
ATOM     22  N   UNL     1      44.940   1.942   9.329  0.00  0.00    +0.000 NA
ATOM     23  C   UNL     1      45.873   1.696   8.379  0.00  0.00    +0.000 A 
BRANCH  18  25
ATOM     24  N   UNL     1      47.557   2.999   5.442  0.00  0.00    +0.000 N 
ATOM     25  C   UNL     1      47.459   2.267   6.591  0.00  0.00    +0.000 C 
ATOM     26  O   UNL     1      48.224   1.338   6.816  0.00  0.00    +0.000 OA
ATOM     27  H   UNL     1      48.344   2.779   4.844  0.00  0.00    +0.000 HD
ATOM     28  H   UNL     1      47.137   3.912   5.340  0.00  0.00    +0.000 HD
ENDBRANCH  18  25
ENDBRANCH  17  21
ENDBRANCH  16  17
ENDBRANCH   1  16
TORSDOF 7
ENDMDL
MODEL 6
REMARK VINA RESULT:    -7.389      2.069      8.109
REMARK INTER + INTRA:         -11.496
REMARK INTER:                 -10.829
REMARK INTRA:                  -0.667
REMARK UNBOUND:                -1.084
REMARK  Name = 
REMARK  7 active torsions:
REMARK  status: ('A' for Active; 'I' for Inactive)
REMARK    1  A    between atoms: C_2  and  C_4
REMARK    2  A    between atoms: C_7  and  O_8
REMARK    3  A    between atoms: O_8  and  C_9
REMARK    4  A    between atoms: C_9  and  C_10
REMARK    5  A    between atoms: C_10  and  C_13
REMARK    6  A    between atoms: C_17  and  O_18
REMARK    7  A    between atoms: O_18  and  C_19
REMARK                            x       y       z     vdW  Elec       q    Type
REMARK                         _______ _______ _______ _____ _____    ______ ____
ROOT
ATOM      1  C   UNL     1      45.304   6.209  11.459  0.00  0.00    +0.000 C 
ATOM      2  F   UNL     1      44.175   6.975  11.541  0.00  0.00    +0.000 F 
ATOM      3  F   UNL     1      46.268   7.041  10.962  0.00  0.00    +0.000 F 
ENDROOT
BRANCH   1   4
ATOM      4  C   UNL     1      45.094   4.995  10.569  0.00  0.00    +0.000 A 
ATOM      5  C   UNL     1      44.335   3.902  11.013  0.00  0.00    +0.000 A 
ATOM      6  C   UNL     1      44.150   2.788  10.191  0.00  0.00    +0.000 A 
ATOM      7  C   UNL     1      44.723   2.748   8.916  0.00  0.00    +0.000 A 
ATOM      8  C   UNL     1      45.489   3.819   8.469  0.00  0.00    +0.000 A 
ATOM      9  C   UNL     1      45.669   4.937   9.290  0.00  0.00    +0.000 A 
BRANCH   8  10
ATOM     10  O   UNL     1      46.076   3.906   7.232  0.00  0.00    +0.000 OA
BRANCH  10  11
ATOM     11  C   UNL     1      46.480   2.690   6.553  0.00  0.00    +0.000 C 
ATOM     12  C   UNL     1      47.764   1.990   7.036  0.00  0.00    +0.000 C 
ATOM     13  N   UNL     1      48.310   2.010   5.671  0.00  0.00    +0.000 NA
ATOM     14  C   UNL     1      47.240   2.916   5.231  0.00  0.00    +0.000 C 
ATOM     15  H   UNL     1      48.308   1.105   5.203  0.00  0.00    +0.000 HD
ENDBRANCH  10  11
ENDBRANCH   8  10
ENDBRANCH   1   4
BRANCH   1  16
ATOM     16  C   UNL     1      45.707   5.774  12.874  0.00  0.00    +0.000 C 
BRANCH  16  17
ATOM     17  O   UNL     1      47.130   5.892  13.074  0.00  0.00    +0.000 OA
BRANCH  17  21
ATOM     18  C   UNL     1      48.232   4.659  16.848  0.00  0.00    +0.000 A 
ATOM     19  C   UNL     1      47.317   3.898  16.116  0.00  0.00    +0.000 A 
ATOM     20  C   UNL     1      46.943   4.327  14.838  0.00  0.00    +0.000 A 
ATOM     21  C   UNL     1      47.504   5.496  14.342  0.00  0.00    +0.000 A 
ATOM     22  N   UNL     1      48.384   6.251  15.032  0.00  0.00    +0.000 NA
ATOM     23  C   UNL     1      48.719   5.824  16.273  0.00  0.00    +0.000 A 
BRANCH  18  25
ATOM     24  N   UNL     1      48.005   3.339  18.875  0.00  0.00    +0.000 N 
ATOM     25  C   UNL     1      48.699   4.303  18.203  0.00  0.00    +0.000 C 
ATOM     26  O   UNL     1      49.698   4.818  18.689  0.00  0.00    +0.000 OA
ATOM     27  H   UNL     1      48.416   3.024  19.746  0.00  0.00    +0.000 HD
ATOM     28  H   UNL     1      47.355   2.715  18.417  0.00  0.00    +0.000 HD
ENDBRANCH  18  25
ENDBRANCH  17  21
ENDBRANCH  16  17
ENDBRANCH   1  16
TORSDOF 7
ENDMDL
MODEL 7
REMARK VINA RESULT:    -7.143      2.770      3.186
REMARK INTER + INTRA:         -11.150
REMARK INTER:                 -10.442
REMARK INTRA:                  -0.708
REMARK UNBOUND:                -1.084
REMARK  Name = 
REMARK  7 active torsions:
REMARK  status: ('A' for Active; 'I' for Inactive)
REMARK    1  A    between atoms: C_2  and  C_4
REMARK    2  A    between atoms: C_7  and  O_8
REMARK    3  A    between atoms: O_8  and  C_9
REMARK    4  A    between atoms: C_9  and  C_10
REMARK    5  A    between atoms: C_10  and  C_13
REMARK    6  A    between atoms: C_17  and  O_18
REMARK    7  A    between atoms: O_18  and  C_19
REMARK                            x       y       z     vdW  Elec       q    Type
REMARK                         _______ _______ _______ _____ _____    ______ ____
ROOT
ATOM      1  C   UNL     1      43.476   5.675  11.968  0.00  0.00    +0.000 C 
ATOM      2  F   UNL     1      42.362   5.953  11.225  0.00  0.00    +0.000 F 
ATOM      3  F   UNL     1      43.004   5.275  13.187  0.00  0.00    +0.000 F 
ENDROOT
BRANCH   1   4
ATOM      4  C   UNL     1      44.387   6.885  12.085  0.00  0.00    +0.000 A 
ATOM      5  C   UNL     1      44.095   8.073  11.400  0.00  0.00    +0.000 A 
ATOM      6  C   UNL     1      44.940   9.181  11.510  0.00  0.00    +0.000 A 
ATOM      7  C   UNL     1      46.091   9.115  12.301  0.00  0.00    +0.000 A 
ATOM      8  C   UNL     1      46.400   7.938  12.975  0.00  0.00    +0.000 A 
ATOM      9  C   UNL     1      45.550   6.832  12.870  0.00  0.00    +0.000 A 
BRANCH   8  10
ATOM     10  O   UNL     1      47.482   7.763  13.800  0.00  0.00    +0.000 OA
BRANCH  10  11
ATOM     11  C   UNL     1      48.756   8.347  13.430  0.00  0.00    +0.000 C 
ATOM     12  C   UNL     1      49.655   7.556  12.461  0.00  0.00    +0.000 C 
ATOM     13  N   UNL     1      50.776   7.634  13.409  0.00  0.00    +0.000 NA
ATOM     14  C   UNL     1      49.882   8.137  14.461  0.00  0.00    +0.000 C 
ATOM     15  H   UNL     1      51.511   8.286  13.140  0.00  0.00    +0.000 HD
ENDBRANCH  10  11
ENDBRANCH   8  10
ENDBRANCH   1   4
BRANCH   1  16
ATOM     16  C   UNL     1      44.221   4.503  11.317  0.00  0.00    +0.000 C 
BRANCH  16  17
ATOM     17  O   UNL     1      43.708   4.224   9.998  0.00  0.00    +0.000 OA
BRANCH  17  21
ATOM     18  C   UNL     1      46.547   2.481   7.574  0.00  0.00    +0.000 A 
ATOM     19  C   UNL     1      45.821   1.686   8.463  0.00  0.00    +0.000 A 
ATOM     20  C   UNL     1      44.863   2.286   9.287  0.00  0.00    +0.000 A 
ATOM     21  C   UNL     1      44.667   3.657   9.185  0.00  0.00    +0.000 A 
ATOM     22  N   UNL     1      45.362   4.447   8.339  0.00  0.00    +0.000 NA
ATOM     23  C   UNL     1      46.294   3.845   7.562  0.00  0.00    +0.000 A 
BRANCH  18  25
ATOM     24  N   UNL     1      48.653   2.759   6.392  0.00  0.00    +0.000 N 
ATOM     25  C   UNL     1      47.580   1.957   6.657  0.00  0.00    +0.000 C 
ATOM     26  O   UNL     1      47.503   0.828   6.188  0.00  0.00    +0.000 OA
ATOM     27  H   UNL     1      49.405   2.331   5.864  0.00  0.00    +0.000 HD
ATOM     28  H   UNL     1      48.882   3.567   6.954  0.00  0.00    +0.000 HD
ENDBRANCH  18  25
ENDBRANCH  17  21
ENDBRANCH  16  17
ENDBRANCH   1  16
TORSDOF 7
ENDMDL
MODEL 8
REMARK VINA RESULT:    -6.513      3.836      5.949
REMARK INTER + INTRA:         -10.262
REMARK INTER:                  -9.452
REMARK INTRA:                  -0.810
REMARK UNBOUND:                -1.084
REMARK  Name = 
REMARK  7 active torsions:
REMARK  status: ('A' for Active; 'I' for Inactive)
REMARK    1  A    between atoms: C_2  and  C_4
REMARK    2  A    between atoms: C_7  and  O_8
REMARK    3  A    between atoms: O_8  and  C_9
REMARK    4  A    between atoms: C_9  and  C_10
REMARK    5  A    between atoms: C_10  and  C_13
REMARK    6  A    between atoms: C_17  and  O_18
REMARK    7  A    between atoms: O_18  and  C_19
REMARK                            x       y       z     vdW  Elec       q    Type
REMARK                         _______ _______ _______ _____ _____    ______ ____
ROOT
ATOM      1  C   UNL     1      48.297   3.019  16.780  0.00  0.00    +0.000 C 
ATOM      2  F   UNL     1      47.531   2.508  17.791  0.00  0.00    +0.000 F 
ATOM      3  F   UNL     1      48.810   1.930  16.132  0.00  0.00    +0.000 F 
ENDROOT
BRANCH   1   4
ATOM      4  C   UNL     1      49.392   3.928  17.312  0.00  0.00    +0.000 A 
ATOM      5  C   UNL     1      50.635   3.404  17.696  0.00  0.00    +0.000 A 
ATOM      6  C   UNL     1      51.636   4.246  18.188  0.00  0.00    +0.000 A 
ATOM      7  C   UNL     1      51.408   5.620  18.307  0.00  0.00    +0.000 A 
ATOM      8  C   UNL     1      50.174   6.150  17.943  0.00  0.00    +0.000 A 
ATOM      9  C   UNL     1      49.175   5.308  17.444  0.00  0.00    +0.000 A 
BRANCH   8  10
ATOM     10  O   UNL     1      49.843   7.481  17.990  0.00  0.00    +0.000 OA
BRANCH  10  11
ATOM     11  C   UNL     1      48.611   7.926  17.370  0.00  0.00    +0.000 C 
ATOM     12  C   UNL     1      48.716   8.790  16.100  0.00  0.00    +0.000 C 
ATOM     13  N   UNL     1      47.872   9.826  16.712  0.00  0.00    +0.000 NA
ATOM     14  C   UNL     1      47.978   9.171  18.023  0.00  0.00    +0.000 C 
ATOM     15  H   UNL     1      46.923   9.869  16.343  0.00  0.00    +0.000 HD
ENDBRANCH  10  11
ENDBRANCH   8  10
ENDBRANCH   1   4
BRANCH   1  16
ATOM     16  C   UNL     1      47.385   3.786  15.813  0.00  0.00    +0.000 C 
BRANCH  16  17
ATOM     17  O   UNL     1      47.499   3.277  14.469  0.00  0.00    +0.000 OA
BRANCH  17  21
ATOM     18  C   UNL     1      44.722   4.993  11.956  0.00  0.00    +0.000 A 
ATOM     19  C   UNL     1      45.527   5.811  12.752  0.00  0.00    +0.000 A 
ATOM     20  C   UNL     1      46.463   5.221  13.607  0.00  0.00    +0.000 A 
ATOM     21  C   UNL     1      46.560   3.836  13.628  0.00  0.00    +0.000 A 
ATOM     22  N   UNL     1      45.788   3.024  12.874  0.00  0.00    +0.000 NA
ATOM     23  C   UNL     1      44.879   3.619  12.065  0.00  0.00    +0.000 A 
BRANCH  18  25
ATOM     24  N   UNL     1      43.184   6.743  11.265  0.00  0.00    +0.000 N 
ATOM     25  C   UNL     1      43.702   5.505  11.017  0.00  0.00    +0.000 C 
ATOM     26  O   UNL     1      43.368   4.866  10.028  0.00  0.00    +0.000 OA
ATOM     27  H   UNL     1      42.583   7.123  10.543  0.00  0.00    +0.000 HD
ATOM     28  H   UNL     1      43.616   7.398  11.901  0.00  0.00    +0.000 HD
ENDBRANCH  18  25
ENDBRANCH  17  21
ENDBRANCH  16  17
ENDBRANCH   1  16
TORSDOF 7
ENDMDL
MODEL 9
REMARK VINA RESULT:    -6.416      3.308      7.201
REMARK INTER + INTRA:         -10.125
REMARK INTER:                  -9.354
REMARK INTRA:                  -0.772
REMARK UNBOUND:                -1.084
REMARK  Name = 
REMARK  7 active torsions:
REMARK  status: ('A' for Active; 'I' for Inactive)
REMARK    1  A    between atoms: C_2  and  C_4
REMARK    2  A    between atoms: C_7  and  O_8
REMARK    3  A    between atoms: O_8  and  C_9
REMARK    4  A    between atoms: C_9  and  C_10
REMARK    5  A    between atoms: C_10  and  C_13
REMARK    6  A    between atoms: C_17  and  O_18
REMARK    7  A    between atoms: O_18  and  C_19
REMARK                            x       y       z     vdW  Elec       q    Type
REMARK                         _______ _______ _______ _____ _____    ______ ____
ROOT
ATOM      1  C   UNL     1      43.967   5.753  11.419  0.00  0.00    +0.000 C 
ATOM      2  F   UNL     1      44.139   5.530  12.757  0.00  0.00    +0.000 F 
ATOM      3  F   UNL     1      42.659   6.123  11.280  0.00  0.00    +0.000 F 
ENDROOT
BRANCH   1   4
ATOM      4  C   UNL     1      44.294   4.515  10.599  0.00  0.00    +0.000 A 
ATOM      5  C   UNL     1      43.759   3.266  10.942  0.00  0.00    +0.000 A 
ATOM      6  C   UNL     1      44.067   2.132  10.185  0.00  0.00    +0.000 A 
ATOM      7  C   UNL     1      44.916   2.230   9.080  0.00  0.00    +0.000 A 
ATOM      8  C   UNL     1      45.465   3.462   8.737  0.00  0.00    +0.000 A 
ATOM      9  C   UNL     1      45.151   4.597   9.491  0.00  0.00    +0.000 A 
BRANCH   8  10
ATOM     10  O   UNL     1      46.286   3.686   7.661  0.00  0.00    +0.000 OA
BRANCH  10  11
ATOM     11  C   UNL     1      46.591   2.591   6.762  0.00  0.00    +0.000 C 
ATOM     12  C   UNL     1      47.894   1.806   7.001  0.00  0.00    +0.000 C 
ATOM     13  N   UNL     1      48.311   2.038   5.611  0.00  0.00    +0.000 NA
ATOM     14  C   UNL     1      47.231   3.017   5.426  0.00  0.00    +0.000 C 
ATOM     15  H   UNL     1      48.240   1.220   5.008  0.00  0.00    +0.000 HD
ENDBRANCH  10  11
ENDBRANCH   8  10
ENDBRANCH   1   4
BRANCH   1  16
ATOM     16  C   UNL     1      44.861   6.926  10.999  0.00  0.00    +0.000 C 
BRANCH  16  17
ATOM     17  O   UNL     1      45.305   7.683  12.142  0.00  0.00    +0.000 OA
BRANCH  17  21
ATOM     18  C   UNL     1      49.387   8.244  12.170  0.00  0.00    +0.000 A 
ATOM     19  C   UNL     1      48.540   9.355  12.186  0.00  0.00    +0.000 A 
ATOM     20  C   UNL     1      47.156   9.156  12.170  0.00  0.00    +0.000 A 
ATOM     21  C   UNL     1      46.674   7.854  12.144  0.00  0.00    +0.000 A 
ATOM     22  N   UNL     1      47.472   6.766  12.121  0.00  0.00    +0.000 NA
ATOM     23  C   UNL     1      48.809   6.984  12.122  0.00  0.00    +0.000 A 
BRANCH  18  25
ATOM     24  N   UNL     1      51.507   7.891  13.305  0.00  0.00    +0.000 N 
ATOM     25  C   UNL     1      50.862   8.333  12.186  0.00  0.00    +0.000 C 
ATOM     26  O   UNL     1      51.486   8.743  11.216  0.00  0.00    +0.000 OA
ATOM     27  H   UNL     1      52.518   7.846  13.243  0.00  0.00    +0.000 HD
ATOM     28  H   UNL     1      51.059   7.312  14.001  0.00  0.00    +0.000 HD
ENDBRANCH  18  25
ENDBRANCH  17  21
ENDBRANCH  16  17
ENDBRANCH   1  16
TORSDOF 7
ENDMDL
