MODEL 1
REMARK VINA RESULT:    -7.888      0.000      0.000
REMARK INTER + INTRA:         -10.189
REMARK INTER:                  -9.732
REMARK INTRA:                  -0.457
REMARK UNBOUND:                -0.457
REMARK  Name = 
REMARK  4 active torsions:
REMARK  status: ('A' for Active; 'I' for Inactive)
REMARK    1  A    between atoms: C_5  and  O_6
REMARK    2  A    between atoms: O_6  and  C_7
REMARK    3  A    between atoms: C_7  and  C_8
REMARK    4  A    between atoms: C_12  and  C_13
REMARK                            x       y       z     vdW  Elec       q    Type
REMARK                         _______ _______ _______ _____ _____    ______ ____
ROOT
ATOM      1  C   UNL     1      45.356   5.122  12.084  0.00  0.00    +0.000 A 
ATOM      2  C   UNL     1      46.100   6.222  11.622  0.00  0.00    +0.000 A 
ATOM      3  C   UNL     1      47.250   6.650  12.282  0.00  0.00    +0.000 A 
ATOM      4  C   UNL     1      47.667   5.993  13.436  0.00  0.00    +0.000 A 
ATOM      5  C   UNL     1      46.978   4.869  13.924  0.00  0.00    +0.000 A 
ATOM      6  C   UNL     1      45.853   4.430  13.201  0.00  0.00    +0.000 A 
ENDROOT
BRANCH   5   7
ATOM      7  C   UNL     1      47.356   4.247  15.199  0.00  0.00    +0.000 A 
ATOM      8  C   UNL     1      47.376   4.941  16.398  0.00  0.00    +0.000 A 
ATOM      9  C   UNL     1      47.854   4.258  17.493  0.00  0.00    +0.000 A 
ATOM     10  N   UNL     1      48.282   2.986  17.447  0.00  0.00    +0.000 NA
ATOM     11  C   UNL     1      48.211   2.396  16.245  0.00  0.00    +0.000 A 
ATOM     12  N   UNL     1      47.761   2.960  15.116  0.00  0.00    +0.000 NA
ENDBRANCH   5   7
BRANCH   1  13
ATOM     13  C   UNL     1      44.011   4.778  11.463  0.00  0.00    +0.000 C 
ATOM     14  C   UNL     1      42.712   5.110  12.195  0.00  0.00    +0.000 C 
ATOM     15  C   UNL     1      43.143   5.961  11.054  0.00  0.00    +0.000 C 
BRANCH  13  16
ATOM     16  O   UNL     1      43.915   3.509  10.768  0.00  0.00    +0.000 OA
BRANCH  16  21
ATOM     17 CL   UNL     1      47.021   2.474   6.014  0.00  0.00    +0.000 Cl
ATOM     18  C   UNL     1      46.209   2.813   7.478  0.00  0.00    +0.000 A 
ATOM     19  C   UNL     1      45.787   4.080   7.801  0.00  0.00    +0.000 A 
ATOM     20  N   UNL     1      45.086   4.366   8.912  0.00  0.00    +0.000 NA
ATOM     21  C   UNL     1      44.791   3.327   9.718  0.00  0.00    +0.000 A 
ATOM     22  N   UNL     1      45.197   2.061   9.526  0.00  0.00    +0.000 NA
ATOM     23  C   UNL     1      45.903   1.835   8.397  0.00  0.00    +0.000 A 
ENDBRANCH  16  21
ENDBRANCH  13  16
ENDBRANCH   1  13
TORSDOF 4
ENDMDL
MODEL 2
REMARK VINA RESULT:    -7.360      1.997      3.244
REMARK INTER + INTRA:          -9.538
REMARK INTER:                  -8.842
REMARK INTRA:                  -0.696
REMARK UNBOUND:                -0.457
REMARK  Name = 
REMARK  4 active torsions:
REMARK  status: ('A' for Active; 'I' for Inactive)
REMARK    1  A    between atoms: C_5  and  O_6
REMARK    2  A    between atoms: O_6  and  C_7
REMARK    3  A    between atoms: C_7  and  C_8
REMARK    4  A    between atoms: C_12  and  C_13
REMARK                            x       y       z     vdW  Elec       q    Type
REMARK                         _______ _______ _______ _____ _____    ______ ____
ROOT
ATOM      1  C   UNL     1      44.977   4.741  12.170  0.00  0.00    +0.000 A 
ATOM      2  C   UNL     1      45.344   3.559  12.838  0.00  0.00    +0.000 A 
ATOM      3  C   UNL     1      46.556   3.456  13.516  0.00  0.00    +0.000 A 
ATOM      4  C   UNL     1      47.439   4.533  13.520  0.00  0.00    +0.000 A 
ATOM      5  C   UNL     1      47.107   5.747  12.895  0.00  0.00    +0.000 A 
ATOM      6  C   UNL     1      45.851   5.836  12.267  0.00  0.00    +0.000 A 
ENDROOT
BRANCH   5   7
ATOM      7  C   UNL     1      48.083   6.841  12.808  0.00  0.00    +0.000 A 
ATOM      8  C   UNL     1      48.066   7.787  11.796  0.00  0.00    +0.000 A 
ATOM      9  C   UNL     1      49.105   8.689  11.782  0.00  0.00    +0.000 A 
ATOM     10  N   UNL     1      50.099   8.691  12.684  0.00  0.00    +0.000 NA
ATOM     11  C   UNL     1      50.020   7.746  13.632  0.00  0.00    +0.000 A 
ATOM     12  N   UNL     1      49.056   6.822  13.747  0.00  0.00    +0.000 NA
ENDBRANCH   5   7
BRANCH   1  13
ATOM     13  C   UNL     1      43.739   4.781  11.287  0.00  0.00    +0.000 C 
ATOM     14  C   UNL     1      42.411   5.300  11.836  0.00  0.00    +0.000 C 
ATOM     15  C   UNL     1      43.216   6.169  10.935  0.00  0.00    +0.000 C 
BRANCH  13  16
ATOM     16  O   UNL     1      43.537   3.660  10.389  0.00  0.00    +0.000 OA
BRANCH  16  21
ATOM     17 CL   UNL     1      47.373   2.246   6.315  0.00  0.00    +0.000 Cl
ATOM     18  C   UNL     1      46.335   2.695   7.594  0.00  0.00    +0.000 A 
ATOM     19  C   UNL     1      45.931   3.995   7.783  0.00  0.00    +0.000 A 
ATOM     20  N   UNL     1      45.060   4.369   8.738  0.00  0.00    +0.000 NA
ATOM     21  C   UNL     1      44.573   3.386   9.521  0.00  0.00    +0.000 A 
ATOM     22  N   UNL     1      44.939   2.096   9.459  0.00  0.00    +0.000 NA
ATOM     23  C   UNL     1      45.820   1.780   8.485  0.00  0.00    +0.000 A 
ENDBRANCH  16  21
ENDBRANCH  13  16
ENDBRANCH   1  13
TORSDOF 4
ENDMDL
MODEL 3
REMARK VINA RESULT:    -7.047      3.175      7.027
REMARK INTER + INTRA:          -9.152
REMARK INTER:                  -8.618
REMARK INTRA:                  -0.533
REMARK UNBOUND:                -0.457
REMARK  Name = 
REMARK  4 active torsions:
REMARK  status: ('A' for Active; 'I' for Inactive)
REMARK    1  A    between atoms: C_5  and  O_6
REMARK    2  A    between atoms: O_6  and  C_7
REMARK    3  A    between atoms: C_7  and  C_8
REMARK    4  A    between atoms: C_12  and  C_13
REMARK                            x       y       z     vdW  Elec       q    Type
REMARK                         _______ _______ _______ _____ _____    ______ ____
ROOT
ATOM      1  C   UNL     1      45.510   6.281  11.763  0.00  0.00    +0.000 A 
ATOM      2  C   UNL     1      44.129   6.459  11.956  0.00  0.00    +0.000 A 
ATOM      3  C   UNL     1      43.195   5.719  11.234  0.00  0.00    +0.000 A 
ATOM      4  C   UNL     1      43.628   4.797  10.286  0.00  0.00    +0.000 A 
ATOM      5  C   UNL     1      44.997   4.558  10.076  0.00  0.00    +0.000 A 
ATOM      6  C   UNL     1      45.913   5.282  10.862  0.00  0.00    +0.000 A 
ENDROOT
BRANCH   5   7
ATOM      7  C   UNL     1      45.451   3.667   9.001  0.00  0.00    +0.000 A 
ATOM      8  C   UNL     1      45.445   2.286   9.115  0.00  0.00    +0.000 A 
ATOM      9  C   UNL     1      45.999   1.583   8.070  0.00  0.00    +0.000 A 
ATOM     10  N   UNL     1      46.521   2.163   6.978  0.00  0.00    +0.000 NA
ATOM     11  C   UNL     1      46.468   3.503   6.954  0.00  0.00    +0.000 A 
ATOM     12  N   UNL     1      45.950   4.288   7.909  0.00  0.00    +0.000 NA
ENDBRANCH   5   7
BRANCH   1  13
ATOM     13  C   UNL     1      46.513   7.215  12.422  0.00  0.00    +0.000 C 
ATOM     14  C   UNL     1      46.612   8.677  11.988  0.00  0.00    +0.000 C 
ATOM     15  C   UNL     1      45.923   8.341  13.263  0.00  0.00    +0.000 C 
BRANCH  13  16
ATOM     16  O   UNL     1      47.821   6.666  12.726  0.00  0.00    +0.000 OA
BRANCH  16  21
ATOM     17 CL   UNL     1      47.796   4.278  17.980  0.00  0.00    +0.000 Cl
ATOM     18  C   UNL     1      47.895   4.904  16.395  0.00  0.00    +0.000 A 
ATOM     19  C   UNL     1      47.209   4.342  15.345  0.00  0.00    +0.000 A 
ATOM     20  N   UNL     1      47.212   4.853  14.101  0.00  0.00    +0.000 NA
ATOM     21  C   UNL     1      47.926   5.980  13.918  0.00  0.00    +0.000 A 
ATOM     22  N   UNL     1      48.674   6.582  14.857  0.00  0.00    +0.000 NA
ATOM     23  C   UNL     1      48.637   6.022  16.086  0.00  0.00    +0.000 A 
ENDBRANCH  16  21
ENDBRANCH  13  16
ENDBRANCH   1  13
TORSDOF 4
ENDMDL
MODEL 4
REMARK VINA RESULT:    -6.541      1.555      1.992
REMARK INTER + INTRA:          -8.527
REMARK INTER:                  -8.843
REMARK INTRA:                   0.316
REMARK UNBOUND:                -0.457
REMARK  Name = 
REMARK  4 active torsions:
REMARK  status: ('A' for Active; 'I' for Inactive)
REMARK    1  A    between atoms: C_5  and  O_6
REMARK    2  A    between atoms: O_6  and  C_7
REMARK    3  A    between atoms: C_7  and  C_8
REMARK    4  A    between atoms: C_12  and  C_13
REMARK                            x       y       z     vdW  Elec       q    Type
REMARK                         _______ _______ _______ _____ _____    ______ ____
ROOT
ATOM      1  C   UNL     1      45.066   5.909  11.961  0.00  0.00    +0.000 A 
ATOM      2  C   UNL     1      44.960   7.191  11.394  0.00  0.00    +0.000 A 
ATOM      3  C   UNL     1      45.837   8.215  11.746  0.00  0.00    +0.000 A 
ATOM      4  C   UNL     1      46.830   7.978  12.693  0.00  0.00    +0.000 A 
ATOM      5  C   UNL     1      46.999   6.706  13.267  0.00  0.00    +0.000 A 
ATOM      6  C   UNL     1      46.131   5.681  12.848  0.00  0.00    +0.000 A 
ENDROOT
BRANCH   5   7
ATOM      7  C   UNL     1      47.973   6.489  14.343  0.00  0.00    +0.000 A 
ATOM      8  C   UNL     1      49.105   7.272  14.504  0.00  0.00    +0.000 A 
ATOM      9  C   UNL     1      49.983   6.885  15.490  0.00  0.00    +0.000 A 
ATOM     10  N   UNL     1      49.789   5.817  16.280  0.00  0.00    +0.000 NA
ATOM     11  C   UNL     1      48.659   5.131  16.057  0.00  0.00    +0.000 A 
ATOM     12  N   UNL     1      47.733   5.417  15.132  0.00  0.00    +0.000 NA
ENDBRANCH   5   7
BRANCH   1  13
ATOM     13  C   UNL     1      43.998   4.857  11.706  0.00  0.00    +0.000 C 
ATOM     14  C   UNL     1      43.958   3.576  12.539  0.00  0.00    +0.000 C 
ATOM     15  C   UNL     1      42.977   4.659  12.820  0.00  0.00    +0.000 C 
BRANCH  13  16
ATOM     16  O   UNL     1      43.649   4.597  10.323  0.00  0.00    +0.000 OA
BRANCH  16  21
ATOM     17 CL   UNL     1      47.102   1.687   6.728  0.00  0.00    +0.000 Cl
ATOM     18  C   UNL     1      46.178   2.558   7.870  0.00  0.00    +0.000 A 
ATOM     19  C   UNL     1      46.164   3.931   7.901  0.00  0.00    +0.000 A 
ATOM     20  N   UNL     1      45.395   4.646   8.742  0.00  0.00    +0.000 NA
ATOM     21  C   UNL     1      44.602   3.941   9.572  0.00  0.00    +0.000 A 
ATOM     22  N   UNL     1      44.575   2.601   9.663  0.00  0.00    +0.000 NA
ATOM     23  C   UNL     1      45.373   1.937   8.797  0.00  0.00    +0.000 A 
ENDBRANCH  16  21
ENDBRANCH  13  16
ENDBRANCH   1  13
TORSDOF 4
ENDMDL
MODEL 5
REMARK VINA RESULT:    -6.498      3.650      7.328
REMARK INTER + INTRA:          -8.474
REMARK INTER:                  -7.758
REMARK INTRA:                  -0.715
REMARK UNBOUND:                -0.457
REMARK  Name = 
REMARK  4 active torsions:
REMARK  status: ('A' for Active; 'I' for Inactive)
REMARK    1  A    between atoms: C_5  and  O_6
REMARK    2  A    between atoms: O_6  and  C_7
REMARK    3  A    between atoms: C_7  and  C_8
REMARK    4  A    between atoms: C_12  and  C_13
REMARK                            x       y       z     vdW  Elec       q    Type
REMARK                         _______ _______ _______ _____ _____    ______ ____
ROOT
ATOM      1  C   UNL     1      47.149   7.434  12.461  0.00  0.00    +0.000 A 
ATOM      2  C   UNL     1      46.184   8.436  12.666  0.00  0.00    +0.000 A 
ATOM      3  C   UNL     1      44.892   8.314  12.158  0.00  0.00    +0.000 A 
ATOM      4  C   UNL     1      44.547   7.189  11.414  0.00  0.00    +0.000 A 
ATOM      5  C   UNL     1      45.464   6.144  11.207  0.00  0.00    +0.000 A 
ATOM      6  C   UNL     1      46.742   6.275  11.781  0.00  0.00    +0.000 A 
ENDROOT
BRANCH   5   7
ATOM      7  C   UNL     1      45.133   5.012  10.332  0.00  0.00    +0.000 A 
ATOM      8  C   UNL     1      44.451   3.891  10.777  0.00  0.00    +0.000 A 
ATOM      9  C   UNL     1      44.305   2.864   9.873  0.00  0.00    +0.000 A 
ATOM     10  N   UNL     1      44.777   2.907   8.617  0.00  0.00    +0.000 NA
ATOM     11  C   UNL     1      45.410   4.039   8.276  0.00  0.00    +0.000 A 
ATOM     12  N   UNL     1      45.606   5.102   9.068  0.00  0.00    +0.000 NA
ENDBRANCH   5   7
BRANCH   1  13
ATOM     13  C   UNL     1      48.598   7.659  12.863  0.00  0.00    +0.000 C 
ATOM     14  C   UNL     1      49.570   8.349  11.906  0.00  0.00    +0.000 C 
ATOM     15  C   UNL     1      49.019   9.111  13.060  0.00  0.00    +0.000 C 
BRANCH  13  16
ATOM     16  O   UNL     1      49.250   6.590  13.596  0.00  0.00    +0.000 OA
BRANCH  16  21
ATOM     17 CL   UNL     1      47.892   5.219  19.035  0.00  0.00    +0.000 Cl
ATOM     18  C   UNL     1      48.187   5.691  17.421  0.00  0.00    +0.000 A 
ATOM     19  C   UNL     1      48.810   6.876  17.111  0.00  0.00    +0.000 A 
ATOM     20  N   UNL     1      49.119   7.244  15.855  0.00  0.00    +0.000 NA
ATOM     21  C   UNL     1      48.795   6.373  14.880  0.00  0.00    +0.000 A 
ATOM     22  N   UNL     1      48.139   5.216  15.064  0.00  0.00    +0.000 NA
ATOM     23  C   UNL     1      47.850   4.901  16.346  0.00  0.00    +0.000 A 
ENDBRANCH  16  21
ENDBRANCH  13  16
ENDBRANCH   1  13
TORSDOF 4
ENDMDL
MODEL 6
REMARK VINA RESULT:    -6.406      2.777      3.587
REMARK INTER + INTRA:          -8.361
REMARK INTER:                  -8.603
REMARK INTRA:                   0.243
REMARK UNBOUND:                -0.457
REMARK  Name = 
REMARK  4 active torsions:
REMARK  status: ('A' for Active; 'I' for Inactive)
REMARK    1  A    between atoms: C_5  and  O_6
REMARK    2  A    between atoms: O_6  and  C_7
REMARK    3  A    between atoms: C_7  and  C_8
REMARK    4  A    between atoms: C_12  and  C_13
REMARK                            x       y       z     vdW  Elec       q    Type
REMARK                         _______ _______ _______ _____ _____    ______ ____
ROOT
ATOM      1  C   UNL     1      44.659   5.599  11.284  0.00  0.00    +0.000 A 
ATOM      2  C   UNL     1      43.638   6.560  11.172  0.00  0.00    +0.000 A 
ATOM      3  C   UNL     1      43.892   7.914  11.373  0.00  0.00    +0.000 A 
ATOM      4  C   UNL     1      45.176   8.333  11.712  0.00  0.00    +0.000 A 
ATOM      5  C   UNL     1      46.239   7.418  11.806  0.00  0.00    +0.000 A 
ATOM      6  C   UNL     1      45.959   6.064  11.542  0.00  0.00    +0.000 A 
ENDROOT
BRANCH   5   7
ATOM      7  C   UNL     1      47.564   7.847  12.270  0.00  0.00    +0.000 A 
ATOM      8  C   UNL     1      48.091   9.097  11.990  0.00  0.00    +0.000 A 
ATOM      9  C   UNL     1      49.387   9.321  12.397  0.00  0.00    +0.000 A 
ATOM     10  N   UNL     1      50.132   8.407  13.039  0.00  0.00    +0.000 NA
ATOM     11  C   UNL     1      49.529   7.233  13.276  0.00  0.00    +0.000 A 
ATOM     12  N   UNL     1      48.276   6.907  12.931  0.00  0.00    +0.000 NA
ENDBRANCH   5   7
BRANCH   1  13
ATOM     13  C   UNL     1      44.335   4.114  11.241  0.00  0.00    +0.000 C 
ATOM     14  C   UNL     1      45.141   3.120  12.076  0.00  0.00    +0.000 C 
ATOM     15  C   UNL     1      43.779   3.514  12.527  0.00  0.00    +0.000 C 
BRANCH  13  16
ATOM     16  O   UNL     1      43.987   3.555   9.949  0.00  0.00    +0.000 OA
BRANCH  16  21
ATOM     17 CL   UNL     1      47.911   2.204   5.937  0.00  0.00    +0.000 Cl
ATOM     18  C   UNL     1      46.845   2.633   7.200  0.00  0.00    +0.000 A 
ATOM     19  C   UNL     1      46.435   3.930   7.399  0.00  0.00    +0.000 A 
ATOM     20  N   UNL     1      45.544   4.289   8.341  0.00  0.00    +0.000 NA
ATOM     21  C   UNL     1      45.042   3.295   9.099  0.00  0.00    +0.000 A 
ATOM     22  N   UNL     1      45.410   2.005   9.026  0.00  0.00    +0.000 NA
ATOM     23  C   UNL     1      46.312   1.705   8.066  0.00  0.00    +0.000 A 
ENDBRANCH  16  21
ENDBRANCH  13  16
ENDBRANCH   1  13
TORSDOF 4
ENDMDL
MODEL 7
REMARK VINA RESULT:    -6.367      4.117      7.373
REMARK INTER + INTRA:          -8.313
REMARK INTER:                  -7.549
REMARK INTRA:                  -0.764
REMARK UNBOUND:                -0.457
REMARK  Name = 
REMARK  4 active torsions:
REMARK  status: ('A' for Active; 'I' for Inactive)
REMARK    1  A    between atoms: C_5  and  O_6
REMARK    2  A    between atoms: O_6  and  C_7
REMARK    3  A    between atoms: C_7  and  C_8
REMARK    4  A    between atoms: C_12  and  C_13
REMARK                            x       y       z     vdW  Elec       q    Type
REMARK                         _______ _______ _______ _____ _____    ______ ____
ROOT
ATOM      1  C   UNL     1      47.495   7.562  12.591  0.00  0.00    +0.000 A 
ATOM      2  C   UNL     1      46.688   8.713  12.629  0.00  0.00    +0.000 A 
ATOM      3  C   UNL     1      45.322   8.650  12.366  0.00  0.00    +0.000 A 
ATOM      4  C   UNL     1      44.738   7.430  12.036  0.00  0.00    +0.000 A 
ATOM      5  C   UNL     1      45.492   6.244  12.014  0.00  0.00    +0.000 A 
ATOM      6  C   UNL     1      46.859   6.335  12.340  0.00  0.00    +0.000 A 
ENDROOT
BRANCH   5   7
ATOM      7  C   UNL     1      44.898   4.981  11.560  0.00  0.00    +0.000 A 
ATOM      8  C   UNL     1      44.958   4.550  10.245  0.00  0.00    +0.000 A 
ATOM      9  C   UNL     1      44.264   3.400   9.945  0.00  0.00    +0.000 A 
ATOM     10  N   UNL     1      43.561   2.699  10.848  0.00  0.00    +0.000 NA
ATOM     11  C   UNL     1      43.575   3.189  12.097  0.00  0.00    +0.000 A 
ATOM     12  N   UNL     1      44.216   4.292  12.504  0.00  0.00    +0.000 NA
ENDBRANCH   5   7
BRANCH   1  13
ATOM     13  C   UNL     1      49.008   7.670  12.702  0.00  0.00    +0.000 C 
ATOM     14  C   UNL     1      49.871   7.784  11.447  0.00  0.00    +0.000 C 
ATOM     15  C   UNL     1      49.616   8.998  12.269  0.00  0.00    +0.000 C 
BRANCH  13  16
ATOM     16  O   UNL     1      49.652   6.851  13.712  0.00  0.00    +0.000 OA
BRANCH  16  21
ATOM     17 CL   UNL     1      48.341   7.234  19.320  0.00  0.00    +0.000 Cl
ATOM     18  C   UNL     1      48.610   7.154  17.636  0.00  0.00    +0.000 A 
ATOM     19  C   UNL     1      48.962   8.261  16.902  0.00  0.00    +0.000 A 
ATOM     20  N   UNL     1      49.248   8.218  15.588  0.00  0.00    +0.000 NA
ATOM     21  C   UNL     1      49.187   7.007  15.002  0.00  0.00    +0.000 A 
ATOM     22  N   UNL     1      48.804   5.872  15.610  0.00  0.00    +0.000 NA
ATOM     23  C   UNL     1      48.523   5.977  16.928  0.00  0.00    +0.000 A 
ENDBRANCH  16  21
ENDBRANCH  13  16
ENDBRANCH   1  13
TORSDOF 4
ENDMDL
MODEL 8
REMARK VINA RESULT:    -5.944      4.555      8.557
REMARK INTER + INTRA:          -7.791
REMARK INTER:                  -7.253
REMARK INTRA:                  -0.537
REMARK UNBOUND:                -0.457
REMARK  Name = 
REMARK  4 active torsions:
REMARK  status: ('A' for Active; 'I' for Inactive)
REMARK    1  A    between atoms: C_5  and  O_6
REMARK    2  A    between atoms: O_6  and  C_7
REMARK    3  A    between atoms: C_7  and  C_8
REMARK    4  A    between atoms: C_12  and  C_13
REMARK                            x       y       z     vdW  Elec       q    Type
REMARK                         _______ _______ _______ _____ _____    ______ ____
ROOT
ATOM      1  C   UNL     1      47.502   5.005  15.521  0.00  0.00    +0.000 A 
ATOM      2  C   UNL     1      48.338   6.032  15.049  0.00  0.00    +0.000 A 
ATOM      3  C   UNL     1      48.192   6.556  13.767  0.00  0.00    +0.000 A 
ATOM      4  C   UNL     1      47.212   6.044  12.920  0.00  0.00    +0.000 A 
ATOM      5  C   UNL     1      46.329   5.039  13.352  0.00  0.00    +0.000 A 
ATOM      6  C   UNL     1      46.469   4.572  14.672  0.00  0.00    +0.000 A 
ENDROOT
BRANCH   5   7
ATOM      7  C   UNL     1      45.371   4.427  12.423  0.00  0.00    +0.000 A 
ATOM      8  C   UNL     1      45.169   4.892  11.134  0.00  0.00    +0.000 A 
ATOM      9  C   UNL     1      44.164   4.288  10.415  0.00  0.00    +0.000 A 
ATOM     10  N   UNL     1      43.401   3.294  10.896  0.00  0.00    +0.000 NA
ATOM     11  C   UNL     1      43.681   2.904  12.148  0.00  0.00    +0.000 A 
ATOM     12  N   UNL     1      44.636   3.414  12.937  0.00  0.00    +0.000 NA
ENDBRANCH   5   7
BRANCH   1  13
ATOM     13  C   UNL     1      47.785   4.320  16.849  0.00  0.00    +0.000 C 
ATOM     14  C   UNL     1      48.161   2.840  16.893  0.00  0.00    +0.000 C 
ATOM     15  C   UNL     1      49.223   3.867  17.072  0.00  0.00    +0.000 C 
BRANCH  13  16
ATOM     16  O   UNL     1      46.937   4.683  17.968  0.00  0.00    +0.000 OA
BRANCH  16  21
ATOM     17 CL   UNL     1      48.521   8.535  21.964  0.00  0.00    +0.000 Cl
ATOM     18  C   UNL     1      48.172   7.394  20.743  0.00  0.00    +0.000 A 
ATOM     19  C   UNL     1      48.339   6.044  20.938  0.00  0.00    +0.000 A 
ATOM     20  N   UNL     1      48.008   5.117  20.021  0.00  0.00    +0.000 NA
ATOM     21  C   UNL     1      47.477   5.575  18.871  0.00  0.00    +0.000 A 
ATOM     22  N   UNL     1      47.319   6.871  18.555  0.00  0.00    +0.000 NA
ATOM     23  C   UNL     1      47.674   7.757  19.512  0.00  0.00    +0.000 A 
ENDBRANCH  16  21
ENDBRANCH  13  16
ENDBRANCH   1  13
TORSDOF 4
ENDMDL
MODEL 9
REMARK VINA RESULT:    -5.823      2.949      4.445
REMARK INTER + INTRA:          -7.641
REMARK INTER:                  -7.006
REMARK INTRA:                  -0.635
REMARK UNBOUND:                -0.457
REMARK  Name = 
REMARK  4 active torsions:
REMARK  status: ('A' for Active; 'I' for Inactive)
REMARK    1  A    between atoms: C_5  and  O_6
REMARK    2  A    between atoms: O_6  and  C_7
REMARK    3  A    between atoms: C_7  and  C_8
REMARK    4  A    between atoms: C_12  and  C_13
REMARK                            x       y       z     vdW  Elec       q    Type
REMARK                         _______ _______ _______ _____ _____    ______ ____
ROOT
ATOM      1  C   UNL     1      48.242   7.985  14.261  0.00  0.00    +0.000 A 
ATOM      2  C   UNL     1      48.097   9.099  15.107  0.00  0.00    +0.000 A 
ATOM      3  C   UNL     1      48.406   9.026  16.463  0.00  0.00    +0.000 A 
ATOM      4  C   UNL     1      48.848   7.823  17.006  0.00  0.00    +0.000 A 
ATOM      5  C   UNL     1      49.040   6.688  16.200  0.00  0.00    +0.000 A 
ATOM      6  C   UNL     1      48.772   6.812  14.824  0.00  0.00    +0.000 A 
ENDROOT
BRANCH   5   7
ATOM      7  C   UNL     1      49.400   5.394  16.793  0.00  0.00    +0.000 A 
ATOM      8  C   UNL     1      50.619   5.162  17.410  0.00  0.00    +0.000 A 
ATOM      9  C   UNL     1      50.860   3.872  17.824  0.00  0.00    +0.000 A 
ATOM     10  N   UNL     1      49.987   2.865  17.665  0.00  0.00    +0.000 NA
ATOM     11  C   UNL     1      48.831   3.192  17.070  0.00  0.00    +0.000 A 
ATOM     12  N   UNL     1      48.487   4.410  16.631  0.00  0.00    +0.000 NA
ENDBRANCH   5   7
BRANCH   1  13
ATOM     13  C   UNL     1      47.734   8.026  12.828  0.00  0.00    +0.000 C 
ATOM     14  C   UNL     1      48.381   8.956  11.803  0.00  0.00    +0.000 C 
ATOM     15  C   UNL     1      48.692   7.501  11.766  0.00  0.00    +0.000 C 
BRANCH  13  16
ATOM     16  O   UNL     1      46.298   7.949  12.639  0.00  0.00    +0.000 OA
BRANCH  16  21
ATOM     17 CL   UNL     1      43.598   2.999  11.403  0.00  0.00    +0.000 Cl
ATOM     18  C   UNL     1      44.504   4.410  11.730  0.00  0.00    +0.000 A 
ATOM     19  C   UNL     1      44.759   5.352  10.762  0.00  0.00    +0.000 A 
ATOM     20  N   UNL     1      45.409   6.504  11.004  0.00  0.00    +0.000 NA
ATOM     21  C   UNL     1      45.802   6.714  12.275  0.00  0.00    +0.000 A 
ATOM     22  N   UNL     1      45.652   5.841  13.285  0.00  0.00    +0.000 NA
ATOM     23  C   UNL     1      44.998   4.698  12.982  0.00  0.00    +0.000 A 
ENDBRANCH  16  21
ENDBRANCH  13  16
ENDBRANCH   1  13
TORSDOF 4
ENDMDL
