MODEL 1
REMARK VINA RESULT:    -8.574      0.000      0.000
REMARK INTER + INTRA:         -13.390
REMARK INTER:                 -12.333
REMARK INTRA:                  -1.057
REMARK UNBOUND:                -1.057
REMARK  Name = 
REMARK  8 active torsions:
REMARK  status: ('A' for Active; 'I' for Inactive)
REMARK    1  A    between atoms: C_2  and  C_4
REMARK    2  A    between atoms: C_7  and  N_8
REMARK    3  A    between atoms: N_8  and  C_9
REMARK    4  A    between atoms: C_9  and  C_10
REMARK    5  A    between atoms: C_10  and  C_11
REMARK    6  A    between atoms: C_14  and  O_15
REMARK    7  A    between atoms: C_16  and  O_17
REMARK    8  A    between atoms: O_17  and  C_18
REMARK                            x       y       z     vdW  Elec       q    Type
REMARK                         _______ _______ _______ _____ _____    ______ ____
ROOT
ATOM      1  C   UNL     1      43.206   4.360  11.347  0.00  0.00    +0.000 C 
ENDROOT
BRANCH   1   2
ATOM      2  N   UNL     1      43.642   4.793  10.021  0.00  0.00    +0.000 N 
ATOM      3  H   UNL     1      42.901   5.126   9.407  0.00  0.00    +0.000 HD
BRANCH   2   7
ATOM      4  C   UNL     1      46.366   2.379   7.871  0.00  0.00    +0.000 A 
ATOM      5  C   UNL     1      46.367   3.759   7.671  0.00  0.00    +0.000 A 
ATOM      6  C   UNL     1      45.482   4.569   8.393  0.00  0.00    +0.000 A 
ATOM      7  C   UNL     1      44.601   4.034   9.342  0.00  0.00    +0.000 A 
ATOM      8  C   UNL     1      44.601   2.642   9.513  0.00  0.00    +0.000 A 
ATOM      9  C   UNL     1      45.469   1.819   8.784  0.00  0.00    +0.000 A 
BRANCH   4  11
ATOM     10  N   UNL     1      48.393   2.038   6.566  0.00  0.00    +0.000 N 
ATOM     11  C   UNL     1      47.263   1.482   7.099  0.00  0.00    +0.000 C 
ATOM     12  O   UNL     1      47.026   0.289   6.970  0.00  0.00    +0.000 OA
ATOM     13  H   UNL     1      49.044   1.393   6.132  0.00  0.00    +0.000 HD
ATOM     14  H   UNL     1      48.749   2.933   6.863  0.00  0.00    +0.000 HD
ENDBRANCH   4  11
ENDBRANCH   2   7
ENDBRANCH   1   2
BRANCH   1  15
ATOM     15  C   UNL     1      43.411   5.455  12.396  0.00  0.00    +0.000 C 
BRANCH  15  16
ATOM     16  C   UNL     1      44.885   5.656  12.656  0.00  0.00    +0.000 A 
ATOM     17  C   UNL     1      45.530   6.828  12.247  0.00  0.00    +0.000 A 
ATOM     18  C   UNL     1      46.878   7.033  12.551  0.00  0.00    +0.000 A 
ATOM     19  C   UNL     1      47.595   6.071  13.271  0.00  0.00    +0.000 A 
ATOM     20  C   UNL     1      46.962   4.906  13.707  0.00  0.00    +0.000 A 
ATOM     21  C   UNL     1      45.611   4.709  13.393  0.00  0.00    +0.000 A 
BRANCH  19  22
ATOM     22  O   UNL     1      48.910   6.312  13.550  0.00  0.00    +0.000 OA
ATOM     23  H   UNL     1      49.216   7.051  13.001  0.00  0.00    +0.000 HD
ENDBRANCH  19  22
BRANCH  20  24
ATOM     24  O   UNL     1      47.496   3.907  14.483  0.00  0.00    +0.000 OA
BRANCH  24  25
ATOM     25  C   UNL     1      47.338   3.932  15.918  0.00  0.00    +0.000 C 
ATOM     26  C   UNL     1      48.196   4.950  16.704  0.00  0.00    +0.000 C 
ATOM     27  C   UNL     1      48.669   3.823  17.630  0.00  0.00    +0.000 C 
ATOM     28  C   UNL     1      48.105   2.799  16.641  0.00  0.00    +0.000 C 
ENDBRANCH  24  25
ENDBRANCH  20  24
ENDBRANCH  15  16
ENDBRANCH   1  15
TORSDOF 8
ENDMDL
MODEL 2
REMARK VINA RESULT:    -7.782      1.597      3.524
REMARK INTER + INTRA:         -12.251
REMARK INTER:                 -11.215
REMARK INTRA:                  -1.036
REMARK UNBOUND:                -1.057
REMARK  Name = 
REMARK  8 active torsions:
REMARK  status: ('A' for Active; 'I' for Inactive)
REMARK    1  A    between atoms: C_2  and  C_4
REMARK    2  A    between atoms: C_7  and  N_8
REMARK    3  A    between atoms: N_8  and  C_9
REMARK    4  A    between atoms: C_9  and  C_10
REMARK    5  A    between atoms: C_10  and  C_11
REMARK    6  A    between atoms: C_14  and  O_15
REMARK    7  A    between atoms: C_16  and  O_17
REMARK    8  A    between atoms: O_17  and  C_18
REMARK                            x       y       z     vdW  Elec       q    Type
REMARK                         _______ _______ _______ _____ _____    ______ ____
ROOT
ATOM      1  C   UNL     1      43.239   4.034  11.503  0.00  0.00    +0.000 C 
ENDROOT
BRANCH   1   2
ATOM      2  N   UNL     1      43.627   4.595  10.211  0.00  0.00    +0.000 N 
ATOM      3  H   UNL     1      42.879   5.054   9.693  0.00  0.00    +0.000 HD
BRANCH   2   7
ATOM      4  C   UNL     1      46.387   2.485   7.801  0.00  0.00    +0.000 A 
ATOM      5  C   UNL     1      45.550   1.779   8.664  0.00  0.00    +0.000 A 
ATOM      6  C   UNL     1      44.619   2.467   9.452  0.00  0.00    +0.000 A 
ATOM      7  C   UNL     1      44.481   3.859   9.381  0.00  0.00    +0.000 A 
ATOM      8  C   UNL     1      45.345   4.553   8.523  0.00  0.00    +0.000 A 
ATOM      9  C   UNL     1      46.293   3.878   7.743  0.00  0.00    +0.000 A 
BRANCH   4  11
ATOM     10  N   UNL     1      48.466   2.546   6.536  0.00  0.00    +0.000 N 
ATOM     11  C   UNL     1      47.412   1.796   6.976  0.00  0.00    +0.000 C 
ATOM     12  O   UNL     1      47.339   0.600   6.725  0.00  0.00    +0.000 OA
ATOM     13  H   UNL     1      49.206   2.039   6.064  0.00  0.00    +0.000 HD
ATOM     14  H   UNL     1      48.692   3.446   6.930  0.00  0.00    +0.000 HD
ENDBRANCH   4  11
ENDBRANCH   2   7
ENDBRANCH   1   2
BRANCH   1  15
ATOM     15  C   UNL     1      43.414   5.048  12.635  0.00  0.00    +0.000 C 
BRANCH  15  16
ATOM     16  C   UNL     1      44.879   5.354  12.839  0.00  0.00    +0.000 A 
ATOM     17  C   UNL     1      45.723   4.428  13.461  0.00  0.00    +0.000 A 
ATOM     18  C   UNL     1      47.089   4.693  13.584  0.00  0.00    +0.000 A 
ATOM     19  C   UNL     1      47.627   5.883  13.084  0.00  0.00    +0.000 A 
ATOM     20  C   UNL     1      46.804   6.808  12.440  0.00  0.00    +0.000 A 
ATOM     21  C   UNL     1      45.435   6.535  12.325  0.00  0.00    +0.000 A 
BRANCH  19  22
ATOM     22  O   UNL     1      48.969   6.102  13.223  0.00  0.00    +0.000 OA
ATOM     23  H   UNL     1      49.112   6.705  13.970  0.00  0.00    +0.000 HD
ENDBRANCH  19  22
BRANCH  20  24
ATOM     24  O   UNL     1      47.183   7.979  11.829  0.00  0.00    +0.000 OA
BRANCH  24  25
ATOM     25  C   UNL     1      47.076   9.236  12.529  0.00  0.00    +0.000 C 
ATOM     26  C   UNL     1      47.395  10.518  11.727  0.00  0.00    +0.000 C 
ATOM     27  C   UNL     1      48.362  10.960  12.832  0.00  0.00    +0.000 C 
ATOM     28  C   UNL     1      48.300   9.549  13.423  0.00  0.00    +0.000 C 
ENDBRANCH  24  25
ENDBRANCH  20  24
ENDBRANCH  15  16
ENDBRANCH   1  15
TORSDOF 8
ENDMDL
MODEL 3
REMARK VINA RESULT:    -7.308      2.787      7.277
REMARK INTER + INTRA:         -11.569
REMARK INTER:                 -10.431
REMARK INTRA:                  -1.137
REMARK UNBOUND:                -1.057
REMARK  Name = 
REMARK  8 active torsions:
REMARK  status: ('A' for Active; 'I' for Inactive)
REMARK    1  A    between atoms: C_2  and  C_4
REMARK    2  A    between atoms: C_7  and  N_8
REMARK    3  A    between atoms: N_8  and  C_9
REMARK    4  A    between atoms: C_9  and  C_10
REMARK    5  A    between atoms: C_10  and  C_11
REMARK    6  A    between atoms: C_14  and  O_15
REMARK    7  A    between atoms: C_16  and  O_17
REMARK    8  A    between atoms: O_17  and  C_18
REMARK                            x       y       z     vdW  Elec       q    Type
REMARK                         _______ _______ _______ _____ _____    ______ ____
ROOT
ATOM      1  C   UNL     1      45.916   7.452  12.795  0.00  0.00    +0.000 C 
ENDROOT
BRANCH   1   2
ATOM      2  N   UNL     1      47.205   6.767  12.843  0.00  0.00    +0.000 N 
ATOM      3  H   UNL     1      47.562   6.447  11.943  0.00  0.00    +0.000 HD
BRANCH   2   7
ATOM      4  C   UNL     1      47.825   4.144  16.100  0.00  0.00    +0.000 A 
ATOM      5  C   UNL     1      47.141   3.689  14.973  0.00  0.00    +0.000 A 
ATOM      6  C   UNL     1      46.948   4.543  13.881  0.00  0.00    +0.000 A 
ATOM      7  C   UNL     1      47.449   5.852  13.873  0.00  0.00    +0.000 A 
ATOM      8  C   UNL     1      48.116   6.297  15.023  0.00  0.00    +0.000 A 
ATOM      9  C   UNL     1      48.300   5.457  16.129  0.00  0.00    +0.000 A 
BRANCH   4  11
ATOM     10  N   UNL     1      46.917   2.635  17.782  0.00  0.00    +0.000 N 
ATOM     11  C   UNL     1      48.019   3.280  17.292  0.00  0.00    +0.000 C 
ATOM     12  O   UNL     1      49.121   3.121  17.800  0.00  0.00    +0.000 OA
ATOM     13  H   UNL     1      47.086   1.971  18.529  0.00  0.00    +0.000 HD
ATOM     14  H   UNL     1      46.067   2.534  17.249  0.00  0.00    +0.000 HD
ENDBRANCH   4  11
ENDBRANCH   2   7
ENDBRANCH   1   2
BRANCH   1  15
ATOM     15  C   UNL     1      45.159   7.145  11.501  0.00  0.00    +0.000 C 
BRANCH  15  16
ATOM     16  C   UNL     1      44.601   5.742  11.545  0.00  0.00    +0.000 A 
ATOM     17  C   UNL     1      43.803   5.323  12.614  0.00  0.00    +0.000 A 
ATOM     18  C   UNL     1      43.238   4.045  12.612  0.00  0.00    +0.000 A 
ATOM     19  C   UNL     1      43.460   3.175  11.540  0.00  0.00    +0.000 A 
ATOM     20  C   UNL     1      44.235   3.585  10.454  0.00  0.00    +0.000 A 
ATOM     21  C   UNL     1      44.801   4.866  10.468  0.00  0.00    +0.000 A 
BRANCH  19  22
ATOM     22  O   UNL     1      42.886   1.936  11.576  0.00  0.00    +0.000 OA
ATOM     23  H   UNL     1      42.118   1.929  10.983  0.00  0.00    +0.000 HD
ENDBRANCH  19  22
BRANCH  20  24
ATOM     24  O   UNL     1      44.484   2.887   9.297  0.00  0.00    +0.000 OA
BRANCH  24  25
ATOM     25  C   UNL     1      45.813   2.856   8.734  0.00  0.00    +0.000 C 
ATOM     26  C   UNL     1      45.987   3.435   7.311  0.00  0.00    +0.000 C 
ATOM     27  C   UNL     1      46.699   2.146   6.882  0.00  0.00    +0.000 C 
ATOM     28  C   UNL     1      46.209   1.471   8.167  0.00  0.00    +0.000 C 
ENDBRANCH  24  25
ENDBRANCH  20  24
ENDBRANCH  15  16
ENDBRANCH   1  15
TORSDOF 8
ENDMDL
MODEL 4
REMARK VINA RESULT:    -6.721      1.442      2.093
REMARK INTER + INTRA:         -10.724
REMARK INTER:                  -9.944
REMARK INTRA:                  -0.780
REMARK UNBOUND:                -1.057
REMARK  Name = 
REMARK  8 active torsions:
REMARK  status: ('A' for Active; 'I' for Inactive)
REMARK    1  A    between atoms: C_2  and  C_4
REMARK    2  A    between atoms: C_7  and  N_8
REMARK    3  A    between atoms: N_8  and  C_9
REMARK    4  A    between atoms: C_9  and  C_10
REMARK    5  A    between atoms: C_10  and  C_11
REMARK    6  A    between atoms: C_14  and  O_15
REMARK    7  A    between atoms: C_16  and  O_17
REMARK    8  A    between atoms: O_17  and  C_18
REMARK                            x       y       z     vdW  Elec       q    Type
REMARK                         _______ _______ _______ _____ _____    ______ ____
ROOT
ATOM      1  C   UNL     1      44.690   5.032  11.670  0.00  0.00    +0.000 C 
ENDROOT
BRANCH   1   2
ATOM      2  N   UNL     1      44.222   4.934  10.290  0.00  0.00    +0.000 N 
ATOM      3  H   UNL     1      43.212   4.868  10.177  0.00  0.00    +0.000 HD
BRANCH   2   7
ATOM      4  C   UNL     1      46.519   2.544   7.666  0.00  0.00    +0.000 A 
ATOM      5  C   UNL     1      45.688   1.931   8.602  0.00  0.00    +0.000 A 
ATOM      6  C   UNL     1      44.909   2.713   9.463  0.00  0.00    +0.000 A 
ATOM      7  C   UNL     1      44.916   4.112   9.395  0.00  0.00    +0.000 A 
ATOM      8  C   UNL     1      45.773   4.711   8.461  0.00  0.00    +0.000 A 
ATOM      9  C   UNL     1      46.572   3.939   7.607  0.00  0.00    +0.000 A 
BRANCH   4  11
ATOM     10  N   UNL     1      48.471   2.386   6.218  0.00  0.00    +0.000 N 
ATOM     11  C   UNL     1      47.388   1.751   6.760  0.00  0.00    +0.000 C 
ATOM     12  O   UNL     1      47.171   0.568   6.531  0.00  0.00    +0.000 OA
ATOM     13  H   UNL     1      49.109   1.804   5.688  0.00  0.00    +0.000 HD
ATOM     14  H   UNL     1      48.823   3.259   6.580  0.00  0.00    +0.000 HD
ENDBRANCH   4  11
ENDBRANCH   2   7
ENDBRANCH   1   2
BRANCH   1  15
ATOM     15  C   UNL     1      44.614   6.467  12.194  0.00  0.00    +0.000 C 
BRANCH  15  16
ATOM     16  C   UNL     1      46.004   7.010  12.429  0.00  0.00    +0.000 A 
ATOM     17  C   UNL     1      46.407   8.219  11.854  0.00  0.00    +0.000 A 
ATOM     18  C   UNL     1      47.671   8.745  12.131  0.00  0.00    +0.000 A 
ATOM     19  C   UNL     1      48.544   8.070  12.990  0.00  0.00    +0.000 A 
ATOM     20  C   UNL     1      48.151   6.874  13.591  0.00  0.00    +0.000 A 
ATOM     21  C   UNL     1      46.883   6.353  13.303  0.00  0.00    +0.000 A 
BRANCH  19  22
ATOM     22  O   UNL     1      49.770   8.620  13.237  0.00  0.00    +0.000 OA
ATOM     23  H   UNL     1      50.390   8.324  12.551  0.00  0.00    +0.000 HD
ENDBRANCH  19  22
BRANCH  20  24
ATOM     24  O   UNL     1      48.852   6.133  14.511  0.00  0.00    +0.000 OA
BRANCH  24  25
ATOM     25  C   UNL     1      48.586   6.278  15.922  0.00  0.00    +0.000 C 
ATOM     26  C   UNL     1      48.805   7.678  16.540  0.00  0.00    +0.000 C 
ATOM     27  C   UNL     1      49.673   7.050  17.637  0.00  0.00    +0.000 C 
ATOM     28  C   UNL     1      49.733   5.755  16.821  0.00  0.00    +0.000 C 
ENDBRANCH  24  25
ENDBRANCH  20  24
ENDBRANCH  15  16
ENDBRANCH   1  15
TORSDOF 8
ENDMDL
MODEL 5
REMARK VINA RESULT:    -6.702      3.178      7.584
REMARK INTER + INTRA:         -10.697
REMARK INTER:                  -9.849
REMARK INTRA:                  -0.848
REMARK UNBOUND:                -1.057
REMARK  Name = 
REMARK  8 active torsions:
REMARK  status: ('A' for Active; 'I' for Inactive)
REMARK    1  A    between atoms: C_2  and  C_4
REMARK    2  A    between atoms: C_7  and  N_8
REMARK    3  A    between atoms: N_8  and  C_9
REMARK    4  A    between atoms: C_9  and  C_10
REMARK    5  A    between atoms: C_10  and  C_11
REMARK    6  A    between atoms: C_14  and  O_15
REMARK    7  A    between atoms: C_16  and  O_17
REMARK    8  A    between atoms: O_17  and  C_18
REMARK                            x       y       z     vdW  Elec       q    Type
REMARK                         _______ _______ _______ _____ _____    ______ ____
ROOT
ATOM      1  C   UNL     1      47.296   6.777  12.844  0.00  0.00    +0.000 C 
ENDROOT
BRANCH   1   2
ATOM      2  N   UNL     1      47.714   7.230  14.169  0.00  0.00    +0.000 N 
ATOM      3  H   UNL     1      48.369   8.010  14.176  0.00  0.00    +0.000 HD
BRANCH   2   7
ATOM      4  C   UNL     1      48.658   4.201  16.964  0.00  0.00    +0.000 A 
ATOM      5  C   UNL     1      49.334   5.419  17.018  0.00  0.00    +0.000 A 
ATOM      6  C   UNL     1      49.016   6.436  16.109  0.00  0.00    +0.000 A 
ATOM      7  C   UNL     1      48.006   6.276  15.151  0.00  0.00    +0.000 A 
ATOM      8  C   UNL     1      47.352   5.037  15.099  0.00  0.00    +0.000 A 
ATOM      9  C   UNL     1      47.675   4.006  15.991  0.00  0.00    +0.000 A 
BRANCH   4  11
ATOM     10  N   UNL     1      48.488   3.153  19.155  0.00  0.00    +0.000 N 
ATOM     11  C   UNL     1      48.992   3.086  17.886  0.00  0.00    +0.000 C 
ATOM     12  O   UNL     1      49.661   2.128  17.522  0.00  0.00    +0.000 OA
ATOM     13  H   UNL     1      48.638   2.337  19.737  0.00  0.00    +0.000 HD
ATOM     14  H   UNL     1      47.737   3.777  19.407  0.00  0.00    +0.000 HD
ENDBRANCH   4  11
ENDBRANCH   2   7
ENDBRANCH   1   2
BRANCH   1  15
ATOM     15  C   UNL     1      45.830   7.118  12.566  0.00  0.00    +0.000 C 
BRANCH  15  16
ATOM     16  C   UNL     1      45.030   5.852  12.370  0.00  0.00    +0.000 A 
ATOM     17  C   UNL     1      43.745   5.727  12.908  0.00  0.00    +0.000 A 
ATOM     18  C   UNL     1      42.988   4.578  12.664  0.00  0.00    +0.000 A 
ATOM     19  C   UNL     1      43.505   3.544  11.877  0.00  0.00    +0.000 A 
ATOM     20  C   UNL     1      44.777   3.661  11.313  0.00  0.00    +0.000 A 
ATOM     21  C   UNL     1      45.529   4.815  11.567  0.00  0.00    +0.000 A 
BRANCH  19  22
ATOM     22  O   UNL     1      42.731   2.439  11.661  0.00  0.00    +0.000 OA
ATOM     23  H   UNL     1      41.800   2.711  11.632  0.00  0.00    +0.000 HD
ENDBRANCH  19  22
BRANCH  20  24
ATOM     24  O   UNL     1      45.395   2.779  10.461  0.00  0.00    +0.000 OA
BRANCH  24  25
ATOM     25  C   UNL     1      45.027   2.731   9.066  0.00  0.00    +0.000 C 
ATOM     26  C   UNL     1      46.011   2.029   8.102  0.00  0.00    +0.000 C 
ATOM     27  C   UNL     1      45.983   3.260   7.189  0.00  0.00    +0.000 C 
ATOM     28  C   UNL     1      45.307   4.053   8.311  0.00  0.00    +0.000 C 
ENDBRANCH  24  25
ENDBRANCH  20  24
ENDBRANCH  15  16
ENDBRANCH   1  15
TORSDOF 8
ENDMDL
MODEL 6
REMARK VINA RESULT:    -6.596      3.752      6.967
REMARK INTER + INTRA:         -10.545
REMARK INTER:                  -9.771
REMARK INTRA:                  -0.774
REMARK UNBOUND:                -1.057
REMARK  Name = 
REMARK  8 active torsions:
REMARK  status: ('A' for Active; 'I' for Inactive)
REMARK    1  A    between atoms: C_2  and  C_4
REMARK    2  A    between atoms: C_7  and  N_8
REMARK    3  A    between atoms: N_8  and  C_9
REMARK    4  A    between atoms: C_9  and  C_10
REMARK    5  A    between atoms: C_10  and  C_11
REMARK    6  A    between atoms: C_14  and  O_15
REMARK    7  A    between atoms: C_16  and  O_17
REMARK    8  A    between atoms: O_17  and  C_18
REMARK                            x       y       z     vdW  Elec       q    Type
REMARK                         _______ _______ _______ _____ _____    ______ ____
ROOT
ATOM      1  C   UNL     1      45.389   7.647  12.600  0.00  0.00    +0.000 C 
ENDROOT
BRANCH   1   2
ATOM      2  N   UNL     1      46.140   8.875  12.350  0.00  0.00    +0.000 N 
ATOM      3  H   UNL     1      45.685   9.545  11.733  0.00  0.00    +0.000 HD
BRANCH   2   7
ATOM      4  C   UNL     1      50.263   8.493  11.493  0.00  0.00    +0.000 A 
ATOM      5  C   UNL     1      49.681   9.760  11.515  0.00  0.00    +0.000 A 
ATOM      6  C   UNL     1      48.321   9.899  11.816  0.00  0.00    +0.000 A 
ATOM      7  C   UNL     1      47.520   8.792  12.128  0.00  0.00    +0.000 A 
ATOM      8  C   UNL     1      48.117   7.525  12.081  0.00  0.00    +0.000 A 
ATOM      9  C   UNL     1      49.473   7.372  11.763  0.00  0.00    +0.000 A 
BRANCH   4  11
ATOM     10  N   UNL     1      52.072   7.054  10.731  0.00  0.00    +0.000 N 
ATOM     11  C   UNL     1      51.693   8.301  11.143  0.00  0.00    +0.000 C 
ATOM     12  O   UNL     1      52.496   9.223  11.186  0.00  0.00    +0.000 OA
ATOM     13  H   UNL     1      53.025   6.966  10.397  0.00  0.00    +0.000 HD
ATOM     14  H   UNL     1      51.408   6.354  10.438  0.00  0.00    +0.000 HD
ENDBRANCH   4  11
ENDBRANCH   2   7
ENDBRANCH   1   2
BRANCH   1  15
ATOM     15  C   UNL     1      44.631   7.182  11.355  0.00  0.00    +0.000 C 
BRANCH  15  16
ATOM     16  C   UNL     1      44.270   5.721  11.481  0.00  0.00    +0.000 A 
ATOM     17  C   UNL     1      43.587   5.247  12.606  0.00  0.00    +0.000 A 
ATOM     18  C   UNL     1      43.200   3.907  12.681  0.00  0.00    +0.000 A 
ATOM     19  C   UNL     1      43.487   3.027  11.633  0.00  0.00    +0.000 A 
ATOM     20  C   UNL     1      44.148   3.488  10.493  0.00  0.00    +0.000 A 
ATOM     21  C   UNL     1      44.536   4.832  10.428  0.00  0.00    +0.000 A 
BRANCH  19  22
ATOM     22  O   UNL     1      43.088   1.725  11.746  0.00  0.00    +0.000 OA
ATOM     23  H   UNL     1      43.875   1.158  11.766  0.00  0.00    +0.000 HD
ENDBRANCH  19  22
BRANCH  20  24
ATOM     24  O   UNL     1      44.434   2.778   9.352  0.00  0.00    +0.000 OA
BRANCH  24  25
ATOM     25  C   UNL     1      45.755   2.828   8.772  0.00  0.00    +0.000 C 
ATOM     26  C   UNL     1      45.886   3.472   7.373  0.00  0.00    +0.000 C 
ATOM     27  C   UNL     1      46.646   2.233   6.883  0.00  0.00    +0.000 C 
ATOM     28  C   UNL     1      46.202   1.486   8.144  0.00  0.00    +0.000 C 
ENDBRANCH  24  25
ENDBRANCH  20  24
ENDBRANCH  15  16
ENDBRANCH   1  15
TORSDOF 8
ENDMDL
MODEL 7
REMARK VINA RESULT:    -6.544      4.063      8.222
REMARK INTER + INTRA:         -10.470
REMARK INTER:                  -9.972
REMARK INTRA:                  -0.497
REMARK UNBOUND:                -1.057
REMARK  Name = 
REMARK  8 active torsions:
REMARK  status: ('A' for Active; 'I' for Inactive)
REMARK    1  A    between atoms: C_2  and  C_4
REMARK    2  A    between atoms: C_7  and  N_8
REMARK    3  A    between atoms: N_8  and  C_9
REMARK    4  A    between atoms: C_9  and  C_10
REMARK    5  A    between atoms: C_10  and  C_11
REMARK    6  A    between atoms: C_14  and  O_15
REMARK    7  A    between atoms: C_16  and  O_17
REMARK    8  A    between atoms: O_17  and  C_18
REMARK                            x       y       z     vdW  Elec       q    Type
REMARK                         _______ _______ _______ _____ _____    ______ ____
ROOT
ATOM      1  C   UNL     1      47.190   4.635  15.128  0.00  0.00    +0.000 C 
ENDROOT
BRANCH   1   2
ATOM      2  N   UNL     1      47.406   3.935  16.392  0.00  0.00    +0.000 N 
ATOM      3  H   UNL     1      46.879   4.296  17.185  0.00  0.00    +0.000 HD
BRANCH   2   7
ATOM      4  C   UNL     1      51.285   2.839  17.668  0.00  0.00    +0.000 A 
ATOM      5  C   UNL     1      50.461   1.882  17.077  0.00  0.00    +0.000 A 
ATOM      6  C   UNL     1      49.183   2.239  16.633  0.00  0.00    +0.000 A 
ATOM      7  C   UNL     1      48.706   3.553  16.741  0.00  0.00    +0.000 A 
ATOM      8  C   UNL     1      49.541   4.496  17.357  0.00  0.00    +0.000 A 
ATOM      9  C   UNL     1      50.816   4.146  17.821  0.00  0.00    +0.000 A 
BRANCH   4  11
ATOM     10  N   UNL     1      53.497   3.525  18.420  0.00  0.00    +0.000 N 
ATOM     11  C   UNL     1      52.633   2.492  18.184  0.00  0.00    +0.000 C 
ATOM     12  O   UNL     1      52.953   1.335  18.422  0.00  0.00    +0.000 OA
ATOM     13  H   UNL     1      54.372   3.280  18.868  0.00  0.00    +0.000 HD
ATOM     14  H   UNL     1      53.190   4.484  18.484  0.00  0.00    +0.000 HD
ENDBRANCH   4  11
ENDBRANCH   2   7
ENDBRANCH   1   2
BRANCH   1  15
ATOM     15  C   UNL     1      46.963   3.660  13.972  0.00  0.00    +0.000 C 
BRANCH  15  16
ATOM     16  C   UNL     1      45.862   4.168  13.070  0.00  0.00    +0.000 A 
ATOM     17  C   UNL     1      45.486   5.515  13.090  0.00  0.00    +0.000 A 
ATOM     18  C   UNL     1      44.514   5.988  12.205  0.00  0.00    +0.000 A 
ATOM     19  C   UNL     1      43.910   5.122  11.289  0.00  0.00    +0.000 A 
ATOM     20  C   UNL     1      44.289   3.779  11.240  0.00  0.00    +0.000 A 
ATOM     21  C   UNL     1      45.262   3.314  12.134  0.00  0.00    +0.000 A 
BRANCH  19  22
ATOM     22  O   UNL     1      42.966   5.626  10.440  0.00  0.00    +0.000 OA
ATOM     23  H   UNL     1      42.813   4.986   9.726  0.00  0.00    +0.000 HD
ENDBRANCH  19  22
BRANCH  20  24
ATOM     24  O   UNL     1      43.853   2.822  10.355  0.00  0.00    +0.000 OA
BRANCH  24  25
ATOM     25  C   UNL     1      44.346   2.803   8.999  0.00  0.00    +0.000 C 
ATOM     26  C   UNL     1      45.431   1.756   8.659  0.00  0.00    +0.000 C 
ATOM     27  C   UNL     1      46.301   2.865   8.055  0.00  0.00    +0.000 C 
ATOM     28  C   UNL     1      45.389   3.908   8.707  0.00  0.00    +0.000 C 
ENDBRANCH  24  25
ENDBRANCH  20  24
ENDBRANCH  15  16
ENDBRANCH   1  15
TORSDOF 8
ENDMDL
MODEL 8
REMARK VINA RESULT:    -6.231      3.319      7.521
REMARK INTER + INTRA:         -10.020
REMARK INTER:                  -9.054
REMARK INTRA:                  -0.966
REMARK UNBOUND:                -1.057
REMARK  Name = 
REMARK  8 active torsions:
REMARK  status: ('A' for Active; 'I' for Inactive)
REMARK    1  A    between atoms: C_2  and  C_4
REMARK    2  A    between atoms: C_7  and  N_8
REMARK    3  A    between atoms: N_8  and  C_9
REMARK    4  A    between atoms: C_9  and  C_10
REMARK    5  A    between atoms: C_10  and  C_11
REMARK    6  A    between atoms: C_14  and  O_15
REMARK    7  A    between atoms: C_16  and  O_17
REMARK    8  A    between atoms: O_17  and  C_18
REMARK                            x       y       z     vdW  Elec       q    Type
REMARK                         _______ _______ _______ _____ _____    ______ ____
ROOT
ATOM      1  C   UNL     1      49.018   7.051  12.557  0.00  0.00    +0.000 C 
ENDROOT
BRANCH   1   2
ATOM      2  N   UNL     1      49.223   7.405  13.959  0.00  0.00    +0.000 N 
ATOM      3  H   UNL     1      50.126   7.823  14.175  0.00  0.00    +0.000 HD
BRANCH   2   7
ATOM      4  C   UNL     1      47.960   4.554  16.814  0.00  0.00    +0.000 A 
ATOM      5  C   UNL     1      49.020   5.407  17.119  0.00  0.00    +0.000 A 
ATOM      6  C   UNL     1      49.433   6.367  16.188  0.00  0.00    +0.000 A 
ATOM      7  C   UNL     1      48.789   6.520  14.953  0.00  0.00    +0.000 A 
ATOM      8  C   UNL     1      47.739   5.639  14.656  0.00  0.00    +0.000 A 
ATOM      9  C   UNL     1      47.329   4.662  15.572  0.00  0.00    +0.000 A 
BRANCH   4  11
ATOM     10  N   UNL     1      48.137   3.447  18.976  0.00  0.00    +0.000 N 
ATOM     11  C   UNL     1      47.515   3.498  17.759  0.00  0.00    +0.000 C 
ATOM     12  O   UNL     1      46.608   2.725  17.481  0.00  0.00    +0.000 OA
ATOM     13  H   UNL     1      47.752   2.791  19.645  0.00  0.00    +0.000 HD
ATOM     14  H   UNL     1      48.690   4.211  19.333  0.00  0.00    +0.000 HD
ENDBRANCH   4  11
ENDBRANCH   2   7
ENDBRANCH   1   2
BRANCH   1  15
ATOM     15  C   UNL     1      48.223   8.125  11.812  0.00  0.00    +0.000 C 
BRANCH  15  16
ATOM     16  C   UNL     1      46.773   7.717  11.702  0.00  0.00    +0.000 A 
ATOM     17  C   UNL     1      45.753   8.672  11.769  0.00  0.00    +0.000 A 
ATOM     18  C   UNL     1      44.420   8.292  11.600  0.00  0.00    +0.000 A 
ATOM     19  C   UNL     1      44.091   6.955  11.358  0.00  0.00    +0.000 A 
ATOM     20  C   UNL     1      45.096   5.992  11.264  0.00  0.00    +0.000 A 
ATOM     21  C   UNL     1      46.430   6.382  11.440  0.00  0.00    +0.000 A 
BRANCH  19  22
ATOM     22  O   UNL     1      42.774   6.627  11.195  0.00  0.00    +0.000 OA
ATOM     23  H   UNL     1      42.359   6.559  12.070  0.00  0.00    +0.000 HD
ENDBRANCH  19  22
BRANCH  20  24
ATOM     24  O   UNL     1      44.949   4.661  10.957  0.00  0.00    +0.000 OA
BRANCH  24  25
ATOM     25  C   UNL     1      44.531   4.258   9.636  0.00  0.00    +0.000 C 
ATOM     26  C   UNL     1      44.631   2.753   9.294  0.00  0.00    +0.000 C 
ATOM     27  C   UNL     1      45.402   3.103   8.015  0.00  0.00    +0.000 C 
ATOM     28  C   UNL     1      45.595   4.527   8.545  0.00  0.00    +0.000 C 
ENDBRANCH  24  25
ENDBRANCH  20  24
ENDBRANCH  15  16
ENDBRANCH   1  15
TORSDOF 8
ENDMDL
MODEL 9
REMARK VINA RESULT:    -6.122      3.060      5.452
REMARK INTER + INTRA:          -9.863
REMARK INTER:                  -9.095
REMARK INTRA:                  -0.768
REMARK UNBOUND:                -1.057
REMARK  Name = 
REMARK  8 active torsions:
REMARK  status: ('A' for Active; 'I' for Inactive)
REMARK    1  A    between atoms: C_2  and  C_4
REMARK    2  A    between atoms: C_7  and  N_8
REMARK    3  A    between atoms: N_8  and  C_9
REMARK    4  A    between atoms: C_9  and  C_10
REMARK    5  A    between atoms: C_10  and  C_11
REMARK    6  A    between atoms: C_14  and  O_15
REMARK    7  A    between atoms: C_16  and  O_17
REMARK    8  A    between atoms: O_17  and  C_18
REMARK                            x       y       z     vdW  Elec       q    Type
REMARK                         _______ _______ _______ _____ _____    ______ ____
ROOT
ATOM      1  C   UNL     1      48.533   6.366  14.765  0.00  0.00    +0.000 C 
ENDROOT
BRANCH   1   2
ATOM      2  N   UNL     1      47.336   6.816  14.059  0.00  0.00    +0.000 N 
ATOM      3  H   UNL     1      46.695   7.386  14.609  0.00  0.00    +0.000 HD
BRANCH   2   7
ATOM      4  C   UNL     1      45.150   4.094  11.674  0.00  0.00    +0.000 A 
ATOM      5  C   UNL     1      45.449   5.360  11.172  0.00  0.00    +0.000 A 
ATOM      6  C   UNL     1      46.188   6.262  11.946  0.00  0.00    +0.000 A 
ATOM      7  C   UNL     1      46.668   5.919  13.217  0.00  0.00    +0.000 A 
ATOM      8  C   UNL     1      46.340   4.650  13.713  0.00  0.00    +0.000 A 
ATOM      9  C   UNL     1      45.585   3.745  12.955  0.00  0.00    +0.000 A 
BRANCH   4  11
ATOM     10  N   UNL     1      44.965   2.446   9.891  0.00  0.00    +0.000 N 
ATOM     11  C   UNL     1      44.336   3.123  10.899  0.00  0.00    +0.000 C 
ATOM     12  O   UNL     1      43.162   2.908  11.167  0.00  0.00    +0.000 OA
ATOM     13  H   UNL     1      44.426   1.715   9.442  0.00  0.00    +0.000 HD
ATOM     14  H   UNL     1      45.969   2.403   9.812  0.00  0.00    +0.000 HD
ENDBRANCH   4  11
ENDBRANCH   2   7
ENDBRANCH   1   2
BRANCH   1  15
ATOM     15  C   UNL     1      48.762   7.159  16.054  0.00  0.00    +0.000 C 
BRANCH  15  16
ATOM     16  C   UNL     1      48.715   6.235  17.248  0.00  0.00    +0.000 A 
ATOM     17  C   UNL     1      48.075   6.624  18.429  0.00  0.00    +0.000 A 
ATOM     18  C   UNL     1      47.980   5.737  19.504  0.00  0.00    +0.000 A 
ATOM     19  C   UNL     1      48.520   4.450  19.409  0.00  0.00    +0.000 A 
ATOM     20  C   UNL     1      49.142   4.037  18.230  0.00  0.00    +0.000 A 
ATOM     21  C   UNL     1      49.236   4.935  17.159  0.00  0.00    +0.000 A 
BRANCH  19  22
ATOM     22  O   UNL     1      48.403   3.613  20.482  0.00  0.00    +0.000 OA
ATOM     23  H   UNL     1      49.268   3.213  20.663  0.00  0.00    +0.000 HD
ENDBRANCH  19  22
BRANCH  20  24
ATOM     24  O   UNL     1      49.650   2.792  17.948  0.00  0.00    +0.000 OA
BRANCH  24  25
ATOM     25  C   UNL     1      50.960   2.654  17.357  0.00  0.00    +0.000 C 
ATOM     26  C   UNL     1      51.605   1.250  17.394  0.00  0.00    +0.000 C 
ATOM     27  C   UNL     1      52.877   1.858  17.997  0.00  0.00    +0.000 C 
ATOM     28  C   UNL     1      52.104   3.151  18.274  0.00  0.00    +0.000 C 
ENDBRANCH  24  25
ENDBRANCH  20  24
ENDBRANCH  15  16
ENDBRANCH   1  15
TORSDOF 8
ENDMDL
