MODEL 1
REMARK VINA RESULT:    -7.629      0.000      0.000
REMARK INTER + INTRA:         -11.158
REMARK INTER:                 -10.527
REMARK INTRA:                  -0.631
REMARK UNBOUND:                -0.631
REMARK  Name = 
REMARK  7 active torsions:
REMARK  status: ('A' for Active; 'I' for Inactive)
REMARK    1  A    between atoms: N_1  and  C_2
REMARK    2  A    between atoms: C_2  and  C_3
REMARK    3  A    between atoms: C_7  and  O_8
REMARK    4  A    between atoms: O_8  and  C_9
REMARK    5  A    between atoms: C_9  and  C_10
REMARK    6  A    between atoms: C_10  and  C_11
REMARK    7  A    between atoms: C_15  and  C_16
REMARK                            x       y       z     vdW  Elec       q    Type
REMARK                         _______ _______ _______ _____ _____    ______ ____
ROOT
ATOM      1  C   UNL     1      43.636   4.348  10.260  0.00  0.00    +0.000 C 
ENDROOT
BRANCH   1   2
ATOM      2  O   UNL     1      44.457   4.578   9.108  0.00  0.00    +0.000 OA
BRANCH   2   7
ATOM      3  C   UNL     1      46.564   2.617   6.841  0.00  0.00    +0.000 A 
ATOM      4  C   UNL     1      46.529   1.357   7.452  0.00  0.00    +0.000 A 
ATOM      5  C   UNL     1      45.773   1.143   8.602  0.00  0.00    +0.000 A 
ATOM      6  C   UNL     1      45.058   2.194   9.174  0.00  0.00    +0.000 A 
ATOM      7  C   UNL     1      45.097   3.470   8.607  0.00  0.00    +0.000 A 
ATOM      8  C   UNL     1      45.848   3.672   7.441  0.00  0.00    +0.000 A 
BRANCH   3   9
ATOM      9  C   UNL     1      47.417   2.878   5.622  0.00  0.00    +0.000 C 
BRANCH   9  10
ATOM     10  N   UNL     1      48.498   1.906   5.455  0.00  0.00    +0.000 NA
ATOM     11  H   UNL     1      48.227   1.223   4.751  0.00  0.00    +0.000 HD
ATOM     12  H   UNL     1      48.613   1.394   6.328  0.00  0.00    +0.000 HD
ENDBRANCH   9  10
ENDBRANCH   3   9
ENDBRANCH   2   7
ENDBRANCH   1   2
BRANCH   1  13
ATOM     13  C   UNL     1      43.678   5.563  11.187  0.00  0.00    +0.000 C 
BRANCH  13  14
ATOM     14  C   UNL     1      45.030   5.709  11.850  0.00  0.00    +0.000 A 
ATOM     15  C   UNL     1      45.949   6.660  11.383  0.00  0.00    +0.000 A 
ATOM     16  C   UNL     1      47.208   6.782  11.974  0.00  0.00    +0.000 A 
ATOM     17  C   UNL     1      47.562   5.955  13.040  0.00  0.00    +0.000 A 
ATOM     18  C   UNL     1      46.657   5.003  13.522  0.00  0.00    +0.000 A 
ATOM     19  C   UNL     1      45.399   4.869  12.912  0.00  0.00    +0.000 A 
BRANCH  18  20
ATOM     20  C   UNL     1      47.081   4.153  14.666  0.00  0.00    +0.000 C 
ATOM     21  N   UNL     1      47.057   4.718  15.914  0.00  0.00    +0.000 N 
ATOM     22  O   UNL     1      47.480   3.009  14.507  0.00  0.00    +0.000 OA
ATOM     23  H   UNL     1      46.986   5.714  16.056  0.00  0.00    +0.000 HD
ATOM     24  H   UNL     1      47.475   4.169  16.655  0.00  0.00    +0.000 HD
ENDBRANCH  18  20
ENDBRANCH  13  14
ENDBRANCH   1  13
TORSDOF 7
ENDMDL
MODEL 2
REMARK VINA RESULT:    -7.473      2.178      3.119
REMARK INTER + INTRA:         -10.943
REMARK INTER:                 -10.079
REMARK INTRA:                  -0.864
REMARK UNBOUND:                -0.631
REMARK  Name = 
REMARK  7 active torsions:
REMARK  status: ('A' for Active; 'I' for Inactive)
REMARK    1  A    between atoms: N_1  and  C_2
REMARK    2  A    between atoms: C_2  and  C_3
REMARK    3  A    between atoms: C_7  and  O_8
REMARK    4  A    between atoms: O_8  and  C_9
REMARK    5  A    between atoms: C_9  and  C_10
REMARK    6  A    between atoms: C_10  and  C_11
REMARK    7  A    between atoms: C_15  and  C_16
REMARK                            x       y       z     vdW  Elec       q    Type
REMARK                         _______ _______ _______ _____ _____    ______ ____
ROOT
ATOM      1  C   UNL     1      43.286   3.683  11.523  0.00  0.00    +0.000 C 
ENDROOT
BRANCH   1   2
ATOM      2  O   UNL     1      43.600   2.660  10.569  0.00  0.00    +0.000 OA
BRANCH   2   7
ATOM      3  C   UNL     1      46.209   2.175   8.043  0.00  0.00    +0.000 A 
ATOM      4  C   UNL     1      46.410   3.488   7.597  0.00  0.00    +0.000 A 
ATOM      5  C   UNL     1      45.704   4.548   8.163  0.00  0.00    +0.000 A 
ATOM      6  C   UNL     1      44.768   4.309   9.167  0.00  0.00    +0.000 A 
ATOM      7  C   UNL     1      44.522   3.008   9.611  0.00  0.00    +0.000 A 
ATOM      8  C   UNL     1      45.248   1.949   9.048  0.00  0.00    +0.000 A 
BRANCH   3   9
ATOM      9  C   UNL     1      46.929   1.010   7.407  0.00  0.00    +0.000 C 
BRANCH   9  10
ATOM     10  N   UNL     1      48.101   1.410   6.627  0.00  0.00    +0.000 NA
ATOM     11  H   UNL     1      47.798   1.725   5.708  0.00  0.00    +0.000 HD
ATOM     12  H   UNL     1      48.685   0.589   6.475  0.00  0.00    +0.000 HD
ENDBRANCH   9  10
ENDBRANCH   3   9
ENDBRANCH   2   7
ENDBRANCH   1   2
BRANCH   1  13
ATOM     13  C   UNL     1      44.213   3.577  12.733  0.00  0.00    +0.000 C 
BRANCH  13  14
ATOM     14  C   UNL     1      45.149   4.761  12.821  0.00  0.00    +0.000 A 
ATOM     15  C   UNL     1      46.447   4.602  13.328  0.00  0.00    +0.000 A 
ATOM     16  C   UNL     1      47.307   5.696  13.437  0.00  0.00    +0.000 A 
ATOM     17  C   UNL     1      46.881   6.963  13.036  0.00  0.00    +0.000 A 
ATOM     18  C   UNL     1      45.591   7.140  12.524  0.00  0.00    +0.000 A 
ATOM     19  C   UNL     1      44.721   6.042  12.436  0.00  0.00    +0.000 A 
BRANCH  18  20
ATOM     20  C   UNL     1      45.189   8.509  12.103  0.00  0.00    +0.000 C 
ATOM     21  N   UNL     1      45.603   9.556  12.883  0.00  0.00    +0.000 N 
ATOM     22  O   UNL     1      44.479   8.701  11.126  0.00  0.00    +0.000 OA
ATOM     23  H   UNL     1      45.960   9.426  13.818  0.00  0.00    +0.000 HD
ATOM     24  H   UNL     1      45.208  10.459  12.656  0.00  0.00    +0.000 HD
ENDBRANCH  18  20
ENDBRANCH  13  14
ENDBRANCH   1  13
TORSDOF 7
ENDMDL
MODEL 3
REMARK VINA RESULT:    -7.468      2.243      6.426
REMARK INTER + INTRA:         -10.936
REMARK INTER:                 -10.052
REMARK INTRA:                  -0.884
REMARK UNBOUND:                -0.631
REMARK  Name = 
REMARK  7 active torsions:
REMARK  status: ('A' for Active; 'I' for Inactive)
REMARK    1  A    between atoms: N_1  and  C_2
REMARK    2  A    between atoms: C_2  and  C_3
REMARK    3  A    between atoms: C_7  and  O_8
REMARK    4  A    between atoms: O_8  and  C_9
REMARK    5  A    between atoms: C_9  and  C_10
REMARK    6  A    between atoms: C_10  and  C_11
REMARK    7  A    between atoms: C_15  and  C_16
REMARK                            x       y       z     vdW  Elec       q    Type
REMARK                         _______ _______ _______ _____ _____    ______ ____
ROOT
ATOM      1  C   UNL     1      43.328   3.815  11.776  0.00  0.00    +0.000 C 
ENDROOT
BRANCH   1   2
ATOM      2  O   UNL     1      44.127   3.879  12.964  0.00  0.00    +0.000 OA
BRANCH   2   7
ATOM      3  C   UNL     1      45.680   7.148  12.395  0.00  0.00    +0.000 A 
ATOM      4  C   UNL     1      46.965   6.938  12.913  0.00  0.00    +0.000 A 
ATOM      5  C   UNL     1      47.333   5.695  13.421  0.00  0.00    +0.000 A 
ATOM      6  C   UNL     1      46.415   4.647  13.441  0.00  0.00    +0.000 A 
ATOM      7  C   UNL     1      45.116   4.833  12.961  0.00  0.00    +0.000 A 
ATOM      8  C   UNL     1      44.758   6.083  12.437  0.00  0.00    +0.000 A 
BRANCH   3   9
ATOM      9  C   UNL     1      45.248   8.503  11.886  0.00  0.00    +0.000 C 
BRANCH   9  10
ATOM     10  N   UNL     1      44.838   9.418  12.951  0.00  0.00    +0.000 NA
ATOM     11  H   UNL     1      45.404   9.242  13.779  0.00  0.00    +0.000 HD
ATOM     12  H   UNL     1      43.875   9.207  13.208  0.00  0.00    +0.000 HD
ENDBRANCH   9  10
ENDBRANCH   3   9
ENDBRANCH   2   7
ENDBRANCH   1   2
BRANCH   1  13
ATOM     13  C   UNL     1      43.684   2.566  10.970  0.00  0.00    +0.000 C 
BRANCH  13  14
ATOM     14  C   UNL     1      44.606   2.895   9.816  0.00  0.00    +0.000 A 
ATOM     15  C   UNL     1      44.688   4.206   9.326  0.00  0.00    +0.000 A 
ATOM     16  C   UNL     1      45.517   4.510   8.244  0.00  0.00    +0.000 A 
ATOM     17  C   UNL     1      46.277   3.506   7.643  0.00  0.00    +0.000 A 
ATOM     18  C   UNL     1      46.211   2.193   8.121  0.00  0.00    +0.000 A 
ATOM     19  C   UNL     1      45.360   1.886   9.195  0.00  0.00    +0.000 A 
BRANCH  18  20
ATOM     20  C   UNL     1      47.048   1.163   7.449  0.00  0.00    +0.000 C 
ATOM     21  N   UNL     1      48.031   1.602   6.603  0.00  0.00    +0.000 N 
ATOM     22  O   UNL     1      46.846  -0.033   7.604  0.00  0.00    +0.000 OA
ATOM     23  H   UNL     1      48.061   2.548   6.254  0.00  0.00    +0.000 HD
ATOM     24  H   UNL     1      48.496   0.888   6.058  0.00  0.00    +0.000 HD
ENDBRANCH  18  20
ENDBRANCH  13  14
ENDBRANCH   1  13
TORSDOF 7
ENDMDL
MODEL 4
REMARK VINA RESULT:    -7.405      1.554      2.087
REMARK INTER + INTRA:         -10.849
REMARK INTER:                 -10.037
REMARK INTRA:                  -0.813
REMARK UNBOUND:                -0.631
REMARK  Name = 
REMARK  7 active torsions:
REMARK  status: ('A' for Active; 'I' for Inactive)
REMARK    1  A    between atoms: N_1  and  C_2
REMARK    2  A    between atoms: C_2  and  C_3
REMARK    3  A    between atoms: C_7  and  O_8
REMARK    4  A    between atoms: O_8  and  C_9
REMARK    5  A    between atoms: C_9  and  C_10
REMARK    6  A    between atoms: C_10  and  C_11
REMARK    7  A    between atoms: C_15  and  C_16
REMARK                            x       y       z     vdW  Elec       q    Type
REMARK                         _______ _______ _______ _____ _____    ______ ____
ROOT
ATOM      1  C   UNL     1      43.991   2.943  11.808  0.00  0.00    +0.000 C 
ENDROOT
BRANCH   1   2
ATOM      2  O   UNL     1      43.581   2.828  10.439  0.00  0.00    +0.000 OA
BRANCH   2   7
ATOM      3  C   UNL     1      46.248   2.145   8.023  0.00  0.00    +0.000 A 
ATOM      4  C   UNL     1      46.530   3.433   7.550  0.00  0.00    +0.000 A 
ATOM      5  C   UNL     1      45.859   4.542   8.061  0.00  0.00    +0.000 A 
ATOM      6  C   UNL     1      44.877   4.378   9.036  0.00  0.00    +0.000 A 
ATOM      7  C   UNL     1      44.551   3.103   9.506  0.00  0.00    +0.000 A 
ATOM      8  C   UNL     1      45.242   1.994   8.998  0.00  0.00    +0.000 A 
BRANCH   3   9
ATOM      9  C   UNL     1      46.931   0.928   7.445  0.00  0.00    +0.000 C 
BRANCH   9  10
ATOM     10  N   UNL     1      48.039   1.258   6.548  0.00  0.00    +0.000 NA
ATOM     11  H   UNL     1      47.731   1.964   5.883  0.00  0.00    +0.000 HD
ATOM     12  H   UNL     1      48.274   0.429   6.003  0.00  0.00    +0.000 HD
ENDBRANCH   9  10
ENDBRANCH   3   9
ENDBRANCH   2   7
ENDBRANCH   1   2
BRANCH   1  13
ATOM     13  C   UNL     1      43.404   4.210  12.429  0.00  0.00    +0.000 C 
BRANCH  13  14
ATOM     14  C   UNL     1      44.428   5.321  12.496  0.00  0.00    +0.000 A 
ATOM     15  C   UNL     1      44.228   6.512  11.784  0.00  0.00    +0.000 A 
ATOM     16  C   UNL     1      45.182   7.531  11.820  0.00  0.00    +0.000 A 
ATOM     17  C   UNL     1      46.346   7.371  12.573  0.00  0.00    +0.000 A 
ATOM     18  C   UNL     1      46.560   6.192  13.294  0.00  0.00    +0.000 A 
ATOM     19  C   UNL     1      45.609   5.160  13.238  0.00  0.00    +0.000 A 
BRANCH  18  20
ATOM     20  C   UNL     1      47.813   6.076  14.087  0.00  0.00    +0.000 C 
ATOM     21  N   UNL     1      47.713   5.561  15.352  0.00  0.00    +0.000 N 
ATOM     22  O   UNL     1      48.889   6.463  13.654  0.00  0.00    +0.000 OA
ATOM     23  H   UNL     1      46.830   5.474  15.833  0.00  0.00    +0.000 HD
ATOM     24  H   UNL     1      48.550   5.617  15.919  0.00  0.00    +0.000 HD
ENDBRANCH  18  20
ENDBRANCH  13  14
ENDBRANCH   1  13
TORSDOF 7
ENDMDL
MODEL 5
REMARK VINA RESULT:    -6.969      1.438      1.907
REMARK INTER + INTRA:         -10.248
REMARK INTER:                  -9.492
REMARK INTRA:                  -0.757
REMARK UNBOUND:                -0.631
REMARK  Name = 
REMARK  7 active torsions:
REMARK  status: ('A' for Active; 'I' for Inactive)
REMARK    1  A    between atoms: N_1  and  C_2
REMARK    2  A    between atoms: C_2  and  C_3
REMARK    3  A    between atoms: C_7  and  O_8
REMARK    4  A    between atoms: O_8  and  C_9
REMARK    5  A    between atoms: C_9  and  C_10
REMARK    6  A    between atoms: C_10  and  C_11
REMARK    7  A    between atoms: C_15  and  C_16
REMARK                            x       y       z     vdW  Elec       q    Type
REMARK                         _______ _______ _______ _____ _____    ______ ____
ROOT
ATOM      1  C   UNL     1      44.075   4.826  10.171  0.00  0.00    +0.000 C 
ENDROOT
BRANCH   1   2
ATOM      2  O   UNL     1      44.046   4.464   8.784  0.00  0.00    +0.000 OA
BRANCH   2   7
ATOM      3  C   UNL     1      46.619   2.643   6.918  0.00  0.00    +0.000 A 
ATOM      4  C   UNL     1      46.627   1.412   7.587  0.00  0.00    +0.000 A 
ATOM      5  C   UNL     1      45.748   1.168   8.639  0.00  0.00    +0.000 A 
ATOM      6  C   UNL     1      44.863   2.161   9.057  0.00  0.00    +0.000 A 
ATOM      7  C   UNL     1      44.853   3.409   8.431  0.00  0.00    +0.000 A 
ATOM      8  C   UNL     1      45.729   3.641   7.362  0.00  0.00    +0.000 A 
BRANCH   3   9
ATOM      9  C   UNL     1      47.599   2.941   5.808  0.00  0.00    +0.000 C 
BRANCH   9  10
ATOM     10  N   UNL     1      48.528   1.842   5.545  0.00  0.00    +0.000 NA
ATOM     11  H   UNL     1      49.249   1.836   6.262  0.00  0.00    +0.000 HD
ATOM     12  H   UNL     1      49.000   2.020   4.660  0.00  0.00    +0.000 HD
ENDBRANCH   9  10
ENDBRANCH   3   9
ENDBRANCH   2   7
ENDBRANCH   1   2
BRANCH   1  13
ATOM     13  C   UNL     1      45.284   5.717  10.457  0.00  0.00    +0.000 C 
BRANCH  13  14
ATOM     14  C   UNL     1      45.942   5.354  11.769  0.00  0.00    +0.000 A 
ATOM     15  C   UNL     1      45.712   4.101  12.355  0.00  0.00    +0.000 A 
ATOM     16  C   UNL     1      46.295   3.770  13.579  0.00  0.00    +0.000 A 
ATOM     17  C   UNL     1      47.120   4.687  14.231  0.00  0.00    +0.000 A 
ATOM     18  C   UNL     1      47.365   5.940  13.661  0.00  0.00    +0.000 A 
ATOM     19  C   UNL     1      46.759   6.278  12.439  0.00  0.00    +0.000 A 
BRANCH  18  20
ATOM     20  C   UNL     1      48.258   6.878  14.392  0.00  0.00    +0.000 C 
ATOM     21  N   UNL     1      47.750   8.108  14.718  0.00  0.00    +0.000 N 
ATOM     22  O   UNL     1      49.416   6.591  14.657  0.00  0.00    +0.000 OA
ATOM     23  H   UNL     1      46.908   8.473  14.300  0.00  0.00    +0.000 HD
ATOM     24  H   UNL     1      48.413   8.774  15.093  0.00  0.00    +0.000 HD
ENDBRANCH  18  20
ENDBRANCH  13  14
ENDBRANCH   1  13
TORSDOF 7
ENDMDL
MODEL 6
REMARK VINA RESULT:    -6.687      2.088      6.395
REMARK INTER + INTRA:          -9.859
REMARK INTER:                  -9.476
REMARK INTRA:                  -0.383
REMARK UNBOUND:                -0.631
REMARK  Name = 
REMARK  7 active torsions:
REMARK  status: ('A' for Active; 'I' for Inactive)
REMARK    1  A    between atoms: N_1  and  C_2
REMARK    2  A    between atoms: C_2  and  C_3
REMARK    3  A    between atoms: C_7  and  O_8
REMARK    4  A    between atoms: O_8  and  C_9
REMARK    5  A    between atoms: C_9  and  C_10
REMARK    6  A    between atoms: C_10  and  C_11
REMARK    7  A    between atoms: C_15  and  C_16
REMARK                            x       y       z     vdW  Elec       q    Type
REMARK                         _______ _______ _______ _____ _____    ______ ____
ROOT
ATOM      1  C   UNL     1      44.065   3.610  12.180  0.00  0.00    +0.000 C 
ENDROOT
BRANCH   1   2
ATOM      2  O   UNL     1      45.425   4.036  12.018  0.00  0.00    +0.000 OA
BRANCH   2   7
ATOM      3  C   UNL     1      47.336   6.900  13.270  0.00  0.00    +0.000 A 
ATOM      4  C   UNL     1      46.428   7.948  13.068  0.00  0.00    +0.000 A 
ATOM      5  C   UNL     1      45.160   7.701  12.548  0.00  0.00    +0.000 A 
ATOM      6  C   UNL     1      44.786   6.405  12.199  0.00  0.00    +0.000 A 
ATOM      7  C   UNL     1      45.680   5.343  12.359  0.00  0.00    +0.000 A 
ATOM      8  C   UNL     1      46.948   5.597  12.898  0.00  0.00    +0.000 A 
BRANCH   3   9
ATOM      9  C   UNL     1      48.732   7.157  13.787  0.00  0.00    +0.000 C 
BRANCH   9  10
ATOM     10  N   UNL     1      49.777   6.823  12.819  0.00  0.00    +0.000 NA
ATOM     11  H   UNL     1      50.448   7.587  12.776  0.00  0.00    +0.000 HD
ATOM     12  H   UNL     1      49.355   6.755  11.895  0.00  0.00    +0.000 HD
ENDBRANCH   9  10
ENDBRANCH   3   9
ENDBRANCH   2   7
ENDBRANCH   1   2
BRANCH   1  13
ATOM     13  C   UNL     1      43.627   2.782  10.972  0.00  0.00    +0.000 C 
BRANCH  13  14
ATOM     14  C   UNL     1      44.542   2.998   9.788  0.00  0.00    +0.000 A 
ATOM     15  C   UNL     1      44.611   4.253   9.166  0.00  0.00    +0.000 A 
ATOM     16  C   UNL     1      45.433   4.452   8.056  0.00  0.00    +0.000 A 
ATOM     17  C   UNL     1      46.200   3.399   7.556  0.00  0.00    +0.000 A 
ATOM     18  C   UNL     1      46.148   2.141   8.166  0.00  0.00    +0.000 A 
ATOM     19  C   UNL     1      45.303   1.939   9.270  0.00  0.00    +0.000 A 
BRANCH  18  20
ATOM     20  C   UNL     1      46.992   1.055   7.601  0.00  0.00    +0.000 C 
ATOM     21  N   UNL     1      48.028   1.422   6.784  0.00  0.00    +0.000 N 
ATOM     22  O   UNL     1      46.752  -0.125   7.813  0.00  0.00    +0.000 OA
ATOM     23  H   UNL     1      48.100   2.345   6.383  0.00  0.00    +0.000 HD
ATOM     24  H   UNL     1      48.502   0.667   6.305  0.00  0.00    +0.000 HD
ENDBRANCH  18  20
ENDBRANCH  13  14
ENDBRANCH   1  13
TORSDOF 7
ENDMDL
MODEL 7
REMARK VINA RESULT:    -6.490      4.040      6.514
REMARK INTER + INTRA:          -9.587
REMARK INTER:                  -9.195
REMARK INTRA:                  -0.392
REMARK UNBOUND:                -0.631
REMARK  Name = 
REMARK  7 active torsions:
REMARK  status: ('A' for Active; 'I' for Inactive)
REMARK    1  A    between atoms: N_1  and  C_2
REMARK    2  A    between atoms: C_2  and  C_3
REMARK    3  A    between atoms: C_7  and  O_8
REMARK    4  A    between atoms: O_8  and  C_9
REMARK    5  A    between atoms: C_9  and  C_10
REMARK    6  A    between atoms: C_10  and  C_11
REMARK    7  A    between atoms: C_15  and  C_16
REMARK                            x       y       z     vdW  Elec       q    Type
REMARK                         _______ _______ _______ _____ _____    ______ ____
ROOT
ATOM      1  C   UNL     1      47.258   4.143  15.659  0.00  0.00    +0.000 C 
ENDROOT
BRANCH   1   2
ATOM      2  O   UNL     1      47.129   3.419  14.428  0.00  0.00    +0.000 OA
BRANCH   2   7
ATOM      3  C   UNL     1      44.887   4.073  11.606  0.00  0.00    +0.000 A 
ATOM      4  C   UNL     1      45.248   5.383  11.263  0.00  0.00    +0.000 A 
ATOM      5  C   UNL     1      46.267   6.042  11.946  0.00  0.00    +0.000 A 
ATOM      6  C   UNL     1      46.926   5.411  13.001  0.00  0.00    +0.000 A 
ATOM      7  C   UNL     1      46.567   4.117  13.387  0.00  0.00    +0.000 A 
ATOM      8  C   UNL     1      45.552   3.455  12.683  0.00  0.00    +0.000 A 
BRANCH   3   9
ATOM      9  C   UNL     1      43.752   3.362  10.908  0.00  0.00    +0.000 C 
BRANCH   9  10
ATOM     10  N   UNL     1      43.247   2.208  11.652  0.00  0.00    +0.000 NA
ATOM     11  H   UNL     1      42.712   1.613  11.023  0.00  0.00    +0.000 HD
ATOM     12  H   UNL     1      42.597   2.539  12.363  0.00  0.00    +0.000 HD
ENDBRANCH   9  10
ENDBRANCH   3   9
ENDBRANCH   2   7
ENDBRANCH   1   2
BRANCH   1  13
ATOM     13  C   UNL     1      47.682   3.199  16.783  0.00  0.00    +0.000 C 
BRANCH  13  14
ATOM     14  C   UNL     1      49.139   3.384  17.144  0.00  0.00    +0.000 A 
ATOM     15  C   UNL     1      49.666   4.672  17.322  0.00  0.00    +0.000 A 
ATOM     16  C   UNL     1      51.016   4.851  17.628  0.00  0.00    +0.000 A 
ATOM     17  C   UNL     1      51.855   3.744  17.765  0.00  0.00    +0.000 A 
ATOM     18  C   UNL     1      51.346   2.452  17.595  0.00  0.00    +0.000 A 
ATOM     19  C   UNL     1      49.992   2.276  17.265  0.00  0.00    +0.000 A 
BRANCH  18  20
ATOM     20  C   UNL     1      52.280   1.307  17.759  0.00  0.00    +0.000 C 
ATOM     21  N   UNL     1      51.745   0.107  18.148  0.00  0.00    +0.000 N 
ATOM     22  O   UNL     1      53.486   1.430  17.601  0.00  0.00    +0.000 OA
ATOM     23  H   UNL     1      50.816   0.029  18.533  0.00  0.00    +0.000 HD
ATOM     24  H   UNL     1      52.410  -0.618  18.383  0.00  0.00    +0.000 HD
ENDBRANCH  18  20
ENDBRANCH  13  14
ENDBRANCH   1  13
TORSDOF 7
ENDMDL
MODEL 8
REMARK VINA RESULT:    -5.982      2.409      7.608
REMARK INTER + INTRA:          -8.885
REMARK INTER:                  -8.245
REMARK INTRA:                  -0.641
REMARK UNBOUND:                -0.631
REMARK  Name = 
REMARK  7 active torsions:
REMARK  status: ('A' for Active; 'I' for Inactive)
REMARK    1  A    between atoms: N_1  and  C_2
REMARK    2  A    between atoms: C_2  and  C_3
REMARK    3  A    between atoms: C_7  and  O_8
REMARK    4  A    between atoms: O_8  and  C_9
REMARK    5  A    between atoms: C_9  and  C_10
REMARK    6  A    between atoms: C_10  and  C_11
REMARK    7  A    between atoms: C_15  and  C_16
REMARK                            x       y       z     vdW  Elec       q    Type
REMARK                         _______ _______ _______ _____ _____    ______ ____
ROOT
ATOM      1  C   UNL     1      47.042   6.682  12.809  0.00  0.00    +0.000 C 
ENDROOT
BRANCH   1   2
ATOM      2  O   UNL     1      47.663   5.567  13.461  0.00  0.00    +0.000 OA
BRANCH   2   7
ATOM      3  C   UNL     1      48.059   4.905  17.042  0.00  0.00    +0.000 A 
ATOM      4  C   UNL     1      48.822   6.008  17.445  0.00  0.00    +0.000 A 
ATOM      5  C   UNL     1      49.178   6.999  16.533  0.00  0.00    +0.000 A 
ATOM      6  C   UNL     1      48.797   6.890  15.197  0.00  0.00    +0.000 A 
ATOM      7  C   UNL     1      48.062   5.786  14.758  0.00  0.00    +0.000 A 
ATOM      8  C   UNL     1      47.694   4.802  15.686  0.00  0.00    +0.000 A 
BRANCH   3   9
ATOM      9  C   UNL     1      47.706   3.798  18.008  0.00  0.00    +0.000 C 
BRANCH   9  10
ATOM     10  N   UNL     1      46.575   2.982  17.564  0.00  0.00    +0.000 NA
ATOM     11  H   UNL     1      46.044   2.677  18.376  0.00  0.00    +0.000 HD
ATOM     12  H   UNL     1      46.937   2.139  17.121  0.00  0.00    +0.000 HD
ENDBRANCH   9  10
ENDBRANCH   3   9
ENDBRANCH   2   7
ENDBRANCH   1   2
BRANCH   1  13
ATOM     13  C   UNL     1      45.522   6.577  12.920  0.00  0.00    +0.000 C 
BRANCH  13  14
ATOM     14  C   UNL     1      44.981   5.444  12.075  0.00  0.00    +0.000 A 
ATOM     15  C   UNL     1      44.163   4.460  12.650  0.00  0.00    +0.000 A 
ATOM     16  C   UNL     1      43.683   3.398  11.882  0.00  0.00    +0.000 A 
ATOM     17  C   UNL     1      44.011   3.308  10.529  0.00  0.00    +0.000 A 
ATOM     18  C   UNL     1      44.822   4.283   9.938  0.00  0.00    +0.000 A 
ATOM     19  C   UNL     1      45.322   5.339  10.718  0.00  0.00    +0.000 A 
BRANCH  18  20
ATOM     20  C   UNL     1      45.136   4.146   8.490  0.00  0.00    +0.000 C 
ATOM     21  N   UNL     1      44.356   3.294   7.754  0.00  0.00    +0.000 N 
ATOM     22  O   UNL     1      46.078   4.731   7.976  0.00  0.00    +0.000 OA
ATOM     23  H   UNL     1      43.749   2.611   8.181  0.00  0.00    +0.000 HD
ATOM     24  H   UNL     1      44.669   3.115   6.809  0.00  0.00    +0.000 HD
ENDBRANCH  18  20
ENDBRANCH  13  14
ENDBRANCH   1  13
TORSDOF 7
ENDMDL
MODEL 9
REMARK VINA RESULT:    -5.906      2.528      4.202
REMARK INTER + INTRA:          -8.781
REMARK INTER:                  -8.120
REMARK INTRA:                  -0.661
REMARK UNBOUND:                -0.631
REMARK  Name = 
REMARK  7 active torsions:
REMARK  status: ('A' for Active; 'I' for Inactive)
REMARK    1  A    between atoms: N_1  and  C_2
REMARK    2  A    between atoms: C_2  and  C_3
REMARK    3  A    between atoms: C_7  and  O_8
REMARK    4  A    between atoms: O_8  and  C_9
REMARK    5  A    between atoms: C_9  and  C_10
REMARK    6  A    between atoms: C_10  and  C_11
REMARK    7  A    between atoms: C_15  and  C_16
REMARK                            x       y       z     vdW  Elec       q    Type
REMARK                         _______ _______ _______ _____ _____    ______ ____
ROOT
ATOM      1  C   UNL     1      46.322   7.228  12.735  0.00  0.00    +0.000 C 
ENDROOT
BRANCH   1   2
ATOM      2  O   UNL     1      45.443   6.908  11.649  0.00  0.00    +0.000 OA
BRANCH   2   7
ATOM      3  C   UNL     1      44.228   3.610  10.614  0.00  0.00    +0.000 A 
ATOM      4  C   UNL     1      43.569   3.182  11.774  0.00  0.00    +0.000 A 
ATOM      5  C   UNL     1      43.493   4.005  12.895  0.00  0.00    +0.000 A 
ATOM      6  C   UNL     1      44.097   5.261  12.884  0.00  0.00    +0.000 A 
ATOM      7  C   UNL     1      44.788   5.704  11.754  0.00  0.00    +0.000 A 
ATOM      8  C   UNL     1      44.845   4.877  10.624  0.00  0.00    +0.000 A 
BRANCH   3   9
ATOM      9  C   UNL     1      44.361   2.712   9.407  0.00  0.00    +0.000 C 
BRANCH   9  10
ATOM     10  N   UNL     1      44.365   3.442   8.140  0.00  0.00    +0.000 NA
ATOM     11  H   UNL     1      43.851   4.313   8.255  0.00  0.00    +0.000 HD
ATOM     12  H   UNL     1      43.857   2.895   7.447  0.00  0.00    +0.000 HD
ENDBRANCH   9  10
ENDBRANCH   3   9
ENDBRANCH   2   7
ENDBRANCH   1   2
BRANCH   1  13
ATOM     13  C   UNL     1      47.424   6.175  12.848  0.00  0.00    +0.000 C 
BRANCH  13  14
ATOM     14  C   UNL     1      47.936   6.057  14.266  0.00  0.00    +0.000 A 
ATOM     15  C   UNL     1      48.994   6.864  14.707  0.00  0.00    +0.000 A 
ATOM     16  C   UNL     1      49.488   6.741  16.007  0.00  0.00    +0.000 A 
ATOM     17  C   UNL     1      48.929   5.810  16.882  0.00  0.00    +0.000 A 
ATOM     18  C   UNL     1      47.870   4.997  16.461  0.00  0.00    +0.000 A 
ATOM     19  C   UNL     1      47.389   5.109  15.146  0.00  0.00    +0.000 A 
BRANCH  18  20
ATOM     20  C   UNL     1      47.304   4.027  17.435  0.00  0.00    +0.000 C 
ATOM     21  N   UNL     1      47.732   4.114  18.733  0.00  0.00    +0.000 N 
ATOM     22  O   UNL     1      46.520   3.153  17.094  0.00  0.00    +0.000 OA
ATOM     23  H   UNL     1      48.552   4.638  18.999  0.00  0.00    +0.000 HD
ATOM     24  H   UNL     1      47.438   3.365  19.346  0.00  0.00    +0.000 HD
ENDBRANCH  18  20
ENDBRANCH  13  14
ENDBRANCH   1  13
TORSDOF 7
ENDMDL
