MODEL 1
REMARK VINA RESULT:    -8.916      0.000      0.000
REMARK INTER + INTRA:         -12.197
REMARK INTER:                 -11.522
REMARK INTRA:                  -0.675
REMARK UNBOUND:                -0.675
REMARK  Name = 
REMARK  5 active torsions:
REMARK  status: ('A' for Active; 'I' for Inactive)
REMARK    1  A    between atoms: C_2  and  C_4
REMARK    2  A    between atoms: C_9  and  C_10
REMARK    3  A    between atoms: C_10  and  N_11
REMARK    4  A    between atoms: N_11  and  C_12
REMARK    5  A    between atoms: C_16  and  C_17
REMARK                            x       y       z     vdW  Elec       q    Type
REMARK                         _______ _______ _______ _____ _____    ______ ____
ROOT
ATOM      1  N   UNL     1      43.312   6.089  10.751  0.00  0.00    +0.000 N 
ATOM      2  H   UNL     1      43.830   6.747  10.173  0.00  0.00    +0.000 HD
ENDROOT
BRANCH   1   3
ATOM      3  C   UNL     1      43.612   4.763  10.411  0.00  0.00    +0.000 A 
ATOM      4  C   UNL     1      43.162   3.715  11.219  0.00  0.00    +0.000 A 
ATOM      5  N   UNL     1      43.436   2.405  11.027  0.00  0.00    +0.000 NA
ATOM      6  C   UNL     1      44.257   2.113   9.993  0.00  0.00    +0.000 A 
ATOM      7  C   UNL     1      44.837   3.053   9.138  0.00  0.00    +0.000 A 
ATOM      8  C   UNL     1      44.484   4.399   9.378  0.00  0.00    +0.000 A 
BRANCH   7   9
ATOM      9  C   UNL     1      45.794   2.661   8.078  0.00  0.00    +0.000 A 
ATOM     10  C   UNL     1      46.415   1.398   8.071  0.00  0.00    +0.000 A 
ATOM     11  C   UNL     1      47.290   1.019   7.046  0.00  0.00    +0.000 A 
ATOM     12  C   UNL     1      47.576   1.901   6.009  0.00  0.00    +0.000 A 
ATOM     13  C   UNL     1      46.989   3.161   5.996  0.00  0.00    +0.000 A 
ATOM     14  C   UNL     1      46.106   3.533   7.016  0.00  0.00    +0.000 A 
ENDBRANCH   7   9
ENDBRANCH   1   3
BRANCH   1  15
ATOM     15  C   UNL     1      43.335   6.491  12.157  0.00  0.00    +0.000 C 
BRANCH  15  21
ATOM     16  C   UNL     1      46.576   5.392  13.852  0.00  0.00    +0.000 A 
ATOM     17  C   UNL     1      47.441   6.452  13.570  0.00  0.00    +0.000 A 
ATOM     18  C   UNL     1      46.978   7.546  12.835  0.00  0.00    +0.000 A 
ATOM     19  C   UNL     1      45.655   7.588  12.375  0.00  0.00    +0.000 A 
ATOM     20 CL   UNL     1      45.181   8.988  11.483  0.00  0.00    +0.000 Cl
ATOM     21  C   UNL     1      44.773   6.528  12.638  0.00  0.00    +0.000 A 
ATOM     22  C   UNL     1      45.260   5.425  13.376  0.00  0.00    +0.000 A 
BRANCH  16  24
ATOM     23  N   UNL     1      46.961   4.297  15.992  0.00  0.00    +0.000 N 
ATOM     24  C   UNL     1      47.023   4.207  14.629  0.00  0.00    +0.000 C 
ATOM     25  O   UNL     1      47.395   3.180  14.078  0.00  0.00    +0.000 OA
ATOM     26  H   UNL     1      47.155   3.443  16.502  0.00  0.00    +0.000 HD
ATOM     27  H   UNL     1      46.429   5.012  16.466  0.00  0.00    +0.000 HD
ENDBRANCH  16  24
ENDBRANCH  15  21
ENDBRANCH   1  15
TORSDOF 5
ENDMDL
MODEL 2
REMARK VINA RESULT:    -8.573      2.492      3.077
REMARK INTER + INTRA:         -11.754
REMARK INTER:                 -10.767
REMARK INTRA:                  -0.987
REMARK UNBOUND:                -0.675
REMARK  Name = 
REMARK  5 active torsions:
REMARK  status: ('A' for Active; 'I' for Inactive)
REMARK    1  A    between atoms: C_2  and  C_4
REMARK    2  A    between atoms: C_9  and  C_10
REMARK    3  A    between atoms: C_10  and  N_11
REMARK    4  A    between atoms: N_11  and  C_12
REMARK    5  A    between atoms: C_16  and  C_17
REMARK                            x       y       z     vdW  Elec       q    Type
REMARK                         _______ _______ _______ _____ _____    ______ ____
ROOT
ATOM      1  N   UNL     1      43.858   6.379  11.187  0.00  0.00    +0.000 N 
ATOM      2  H   UNL     1      44.275   7.019  10.514  0.00  0.00    +0.000 HD
ENDROOT
BRANCH   1   3
ATOM      3  C   UNL     1      43.922   5.052  10.741  0.00  0.00    +0.000 A 
ATOM      4  C   UNL     1      43.275   4.042  11.456  0.00  0.00    +0.000 A 
ATOM      5  N   UNL     1      43.314   2.723  11.158  0.00  0.00    +0.000 NA
ATOM      6  C   UNL     1      44.091   2.372  10.109  0.00  0.00    +0.000 A 
ATOM      7  C   UNL     1      44.849   3.256   9.339  0.00  0.00    +0.000 A 
ATOM      8  C   UNL     1      44.737   4.620   9.687  0.00  0.00    +0.000 A 
BRANCH   7   9
ATOM      9  C   UNL     1      45.742   2.785   8.256  0.00  0.00    +0.000 A 
ATOM     10  C   UNL     1      46.239   1.468   8.228  0.00  0.00    +0.000 A 
ATOM     11  C   UNL     1      47.054   1.017   7.182  0.00  0.00    +0.000 A 
ATOM     12  C   UNL     1      47.402   1.877   6.146  0.00  0.00    +0.000 A 
ATOM     13  C   UNL     1      46.938   3.187   6.154  0.00  0.00    +0.000 A 
ATOM     14  C   UNL     1      46.115   3.632   7.194  0.00  0.00    +0.000 A 
ENDBRANCH   7   9
ENDBRANCH   1   3
BRANCH   1  15
ATOM     15  C   UNL     1      44.285   6.698  12.550  0.00  0.00    +0.000 C 
BRANCH  15  21
ATOM     16  C   UNL     1      47.539   8.668  12.213  0.00  0.00    +0.000 A 
ATOM     17  C   UNL     1      48.507   7.712  12.532  0.00  0.00    +0.000 A 
ATOM     18  C   UNL     1      48.115   6.409  12.849  0.00  0.00    +0.000 A 
ATOM     19  C   UNL     1      46.760   6.053  12.853  0.00  0.00    +0.000 A 
ATOM     20 CL   UNL     1      46.382   4.416  13.251  0.00  0.00    +0.000 Cl
ATOM     21  C   UNL     1      45.770   7.000  12.546  0.00  0.00    +0.000 A 
ATOM     22  C   UNL     1      46.183   8.317  12.236  0.00  0.00    +0.000 A 
BRANCH  16  24
ATOM     23  N   UNL     1      47.260  11.063  12.545  0.00  0.00    +0.000 N 
ATOM     24  C   UNL     1      47.907  10.066  11.870  0.00  0.00    +0.000 C 
ATOM     25  O   UNL     1      48.778  10.317  11.049  0.00  0.00    +0.000 OA
ATOM     26  H   UNL     1      47.605  12.002  12.386  0.00  0.00    +0.000 HD
ATOM     27  H   UNL     1      46.737  10.897  13.391  0.00  0.00    +0.000 HD
ENDBRANCH  16  24
ENDBRANCH  15  21
ENDBRANCH   1  15
TORSDOF 5
ENDMDL
MODEL 3
REMARK VINA RESULT:    -8.363      1.721      1.968
REMARK INTER + INTRA:         -11.483
REMARK INTER:                 -10.708
REMARK INTRA:                  -0.775
REMARK UNBOUND:                -0.675
REMARK  Name = 
REMARK  5 active torsions:
REMARK  status: ('A' for Active; 'I' for Inactive)
REMARK    1  A    between atoms: C_2  and  C_4
REMARK    2  A    between atoms: C_9  and  C_10
REMARK    3  A    between atoms: C_10  and  N_11
REMARK    4  A    between atoms: N_11  and  C_12
REMARK    5  A    between atoms: C_16  and  C_17
REMARK                            x       y       z     vdW  Elec       q    Type
REMARK                         _______ _______ _______ _____ _____    ______ ____
ROOT
ATOM      1  N   UNL     1      43.795   6.331  10.964  0.00  0.00    +0.000 N 
ATOM      2  H   UNL     1      44.245   6.966  10.309  0.00  0.00    +0.000 HD
ENDROOT
BRANCH   1   3
ATOM      3  C   UNL     1      43.918   4.997  10.552  0.00  0.00    +0.000 A 
ATOM      4  C   UNL     1      43.320   3.977  11.296  0.00  0.00    +0.000 A 
ATOM      5  N   UNL     1      43.417   2.654  11.032  0.00  0.00    +0.000 NA
ATOM      6  C   UNL     1      44.205   2.312   9.988  0.00  0.00    +0.000 A 
ATOM      7  C   UNL     1      44.919   3.210   9.192  0.00  0.00    +0.000 A 
ATOM      8  C   UNL     1      44.747   4.576   9.505  0.00  0.00    +0.000 A 
BRANCH   7   9
ATOM      9  C   UNL     1      45.829   2.752   8.116  0.00  0.00    +0.000 A 
ATOM     10  C   UNL     1      46.384   1.459   8.118  0.00  0.00    +0.000 A 
ATOM     11  C   UNL     1      47.214   1.018   7.080  0.00  0.00    +0.000 A 
ATOM     12  C   UNL     1      47.519   1.867   6.021  0.00  0.00    +0.000 A 
ATOM     13  C   UNL     1      46.996   3.154   5.999  0.00  0.00    +0.000 A 
ATOM     14  C   UNL     1      46.159   3.589   7.032  0.00  0.00    +0.000 A 
ENDBRANCH   7   9
ENDBRANCH   1   3
BRANCH   1  15
ATOM     15  C   UNL     1      44.117   6.686  12.347  0.00  0.00    +0.000 C 
BRANCH  15  21
ATOM     16  C   UNL     1      47.769   7.718  12.769  0.00  0.00    +0.000 A 
ATOM     17  C   UNL     1      47.749   9.064  12.396  0.00  0.00    +0.000 A 
ATOM     18  C   UNL     1      46.544   9.659  12.014  0.00  0.00    +0.000 A 
ATOM     19  C   UNL     1      45.356   8.917  11.998  0.00  0.00    +0.000 A 
ATOM     20 CL   UNL     1      43.921   9.747  11.517  0.00  0.00    +0.000 Cl
ATOM     21  C   UNL     1      45.355   7.559  12.359  0.00  0.00    +0.000 A 
ATOM     22  C   UNL     1      46.585   6.971  12.735  0.00  0.00    +0.000 A 
BRANCH  16  24
ATOM     23  N   UNL     1      50.038   6.994  12.265  0.00  0.00    +0.000 N 
ATOM     24  C   UNL     1      49.026   7.043  13.183  0.00  0.00    +0.000 C 
ATOM     25  O   UNL     1      49.168   6.583  14.307  0.00  0.00    +0.000 OA
ATOM     26  H   UNL     1      50.924   6.637  12.601  0.00  0.00    +0.000 HD
ATOM     27  H   UNL     1      50.052   7.574  11.439  0.00  0.00    +0.000 HD
ENDBRANCH  16  24
ENDBRANCH  15  21
ENDBRANCH   1  15
TORSDOF 5
ENDMDL
MODEL 4
REMARK VINA RESULT:    -8.343      2.890      3.841
REMARK INTER + INTRA:         -11.457
REMARK INTER:                 -10.804
REMARK INTRA:                  -0.653
REMARK UNBOUND:                -0.675
REMARK  Name = 
REMARK  5 active torsions:
REMARK  status: ('A' for Active; 'I' for Inactive)
REMARK    1  A    between atoms: C_2  and  C_4
REMARK    2  A    between atoms: C_9  and  C_10
REMARK    3  A    between atoms: C_10  and  N_11
REMARK    4  A    between atoms: N_11  and  C_12
REMARK    5  A    between atoms: C_16  and  C_17
REMARK                            x       y       z     vdW  Elec       q    Type
REMARK                         _______ _______ _______ _____ _____    ______ ____
ROOT
ATOM      1  N   UNL     1      44.062   6.416  11.294  0.00  0.00    +0.000 N 
ATOM      2  H   UNL     1      44.346   7.068  10.566  0.00  0.00    +0.000 HD
ENDROOT
BRANCH   1   3
ATOM      3  C   UNL     1      44.051   5.095  10.824  0.00  0.00    +0.000 A 
ATOM      4  C   UNL     1      43.363   4.107  11.532  0.00  0.00    +0.000 A 
ATOM      5  N   UNL     1      43.330   2.794  11.211  0.00  0.00    +0.000 NA
ATOM      6  C   UNL     1      44.073   2.422  10.145  0.00  0.00    +0.000 A 
ATOM      7  C   UNL     1      44.865   3.280   9.379  0.00  0.00    +0.000 A 
ATOM      8  C   UNL     1      44.828   4.641   9.751  0.00  0.00    +0.000 A 
BRANCH   7   9
ATOM      9  C   UNL     1      45.718   2.782   8.276  0.00  0.00    +0.000 A 
ATOM     10  C   UNL     1      46.086   3.607   7.195  0.00  0.00    +0.000 A 
ATOM     11  C   UNL     1      46.923   3.143   6.174  0.00  0.00    +0.000 A 
ATOM     12  C   UNL     1      47.402   1.837   6.202  0.00  0.00    +0.000 A 
ATOM     13  C   UNL     1      47.046   0.996   7.248  0.00  0.00    +0.000 A 
ATOM     14  C   UNL     1      46.218   1.465   8.274  0.00  0.00    +0.000 A 
ENDBRANCH   7   9
ENDBRANCH   1   3
BRANCH   1  15
ATOM     15  C   UNL     1      44.726   6.720  12.561  0.00  0.00    +0.000 C 
BRANCH  15  21
ATOM     16  C   UNL     1      46.011  10.248  11.862  0.00  0.00    +0.000 A 
ATOM     17  C   UNL     1      47.396  10.092  11.961  0.00  0.00    +0.000 A 
ATOM     18  C   UNL     1      47.932   8.833  12.244  0.00  0.00    +0.000 A 
ATOM     19  C   UNL     1      47.094   7.726  12.433  0.00  0.00    +0.000 A 
ATOM     20 CL   UNL     1      47.856   6.215  12.770  0.00  0.00    +0.000 Cl
ATOM     21  C   UNL     1      45.699   7.864  12.349  0.00  0.00    +0.000 A 
ATOM     22  C   UNL     1      45.172   9.146  12.070  0.00  0.00    +0.000 A 
BRANCH  16  24
ATOM     23  N   UNL     1      45.713  12.605  12.395  0.00  0.00    +0.000 N 
ATOM     24  C   UNL     1      45.395  11.567  11.564  0.00  0.00    +0.000 C 
ATOM     25  O   UNL     1      44.666  11.730  10.595  0.00  0.00    +0.000 OA
ATOM     26  H   UNL     1      45.381  13.518  12.110  0.00  0.00    +0.000 HD
ATOM     27  H   UNL     1      46.494  12.571  13.033  0.00  0.00    +0.000 HD
ENDBRANCH  16  24
ENDBRANCH  15  21
ENDBRANCH   1  15
TORSDOF 5
ENDMDL
MODEL 5
REMARK VINA RESULT:    -7.680      2.294      3.214
REMARK INTER + INTRA:         -10.600
REMARK INTER:                  -9.937
REMARK INTRA:                  -0.663
REMARK UNBOUND:                -0.675
REMARK  Name = 
REMARK  5 active torsions:
REMARK  status: ('A' for Active; 'I' for Inactive)
REMARK    1  A    between atoms: C_2  and  C_4
REMARK    2  A    between atoms: C_9  and  C_10
REMARK    3  A    between atoms: C_10  and  N_11
REMARK    4  A    between atoms: N_11  and  C_12
REMARK    5  A    between atoms: C_16  and  C_17
REMARK                            x       y       z     vdW  Elec       q    Type
REMARK                         _______ _______ _______ _____ _____    ______ ____
ROOT
ATOM      1  N   UNL     1      45.841   6.301  13.465  0.00  0.00    +0.000 N 
ATOM      2  H   UNL     1      45.424   7.194  13.717  0.00  0.00    +0.000 HD
ENDROOT
BRANCH   1   3
ATOM      3  C   UNL     1      45.074   5.630  12.502  0.00  0.00    +0.000 A 
ATOM      4  C   UNL     1      43.721   5.376  12.739  0.00  0.00    +0.000 A 
ATOM      5  N   UNL     1      42.897   4.690  11.915  0.00  0.00    +0.000 NA
ATOM      6  C   UNL     1      43.464   4.172  10.802  0.00  0.00    +0.000 A 
ATOM      7  C   UNL     1      44.813   4.284  10.462  0.00  0.00    +0.000 A 
ATOM      8  C   UNL     1      45.608   5.039  11.351  0.00  0.00    +0.000 A 
BRANCH   7   9
ATOM      9  C   UNL     1      45.377   3.616   9.266  0.00  0.00    +0.000 A 
ATOM     10  C   UNL     1      45.890   4.352   8.181  0.00  0.00    +0.000 A 
ATOM     11  C   UNL     1      46.456   3.717   7.069  0.00  0.00    +0.000 A 
ATOM     12  C   UNL     1      46.510   2.328   7.010  0.00  0.00    +0.000 A 
ATOM     13  C   UNL     1      45.999   1.574   8.060  0.00  0.00    +0.000 A 
ATOM     14  C   UNL     1      45.444   2.212   9.175  0.00  0.00    +0.000 A 
ENDBRANCH   7   9
ENDBRANCH   1   3
BRANCH   1  15
ATOM     15  C   UNL     1      47.284   6.432  13.266  0.00  0.00    +0.000 C 
BRANCH  15  21
ATOM     16  C   UNL     1      48.055   4.878  16.669  0.00  0.00    +0.000 A 
ATOM     17  C   UNL     1      49.225   5.540  17.046  0.00  0.00    +0.000 A 
ATOM     18  C   UNL     1      49.774   6.511  16.205  0.00  0.00    +0.000 A 
ATOM     19  C   UNL     1      49.163   6.825  14.984  0.00  0.00    +0.000 A 
ATOM     20 CL   UNL     1      49.917   8.043  14.021  0.00  0.00    +0.000 Cl
ATOM     21  C   UNL     1      47.992   6.164  14.580  0.00  0.00    +0.000 A 
ATOM     22  C   UNL     1      47.454   5.178  15.440  0.00  0.00    +0.000 A 
BRANCH  16  24
ATOM     23  N   UNL     1      47.921   3.712  18.802  0.00  0.00    +0.000 N 
ATOM     24  C   UNL     1      47.434   3.839  17.530  0.00  0.00    +0.000 C 
ATOM     25  O   UNL     1      46.503   3.150  17.137  0.00  0.00    +0.000 OA
ATOM     26  H   UNL     1      47.411   3.084  19.411  0.00  0.00    +0.000 HD
ATOM     27  H   UNL     1      48.496   4.418  19.237  0.00  0.00    +0.000 HD
ENDBRANCH  16  24
ENDBRANCH  15  21
ENDBRANCH   1  15
TORSDOF 5
ENDMDL
MODEL 6
REMARK VINA RESULT:    -7.593      2.563      6.269
REMARK INTER + INTRA:         -10.487
REMARK INTER:                  -9.977
REMARK INTRA:                  -0.511
REMARK UNBOUND:                -0.675
REMARK  Name = 
REMARK  5 active torsions:
REMARK  status: ('A' for Active; 'I' for Inactive)
REMARK    1  A    between atoms: C_2  and  C_4
REMARK    2  A    between atoms: C_9  and  C_10
REMARK    3  A    between atoms: C_10  and  N_11
REMARK    4  A    between atoms: N_11  and  C_12
REMARK    5  A    between atoms: C_16  and  C_17
REMARK                            x       y       z     vdW  Elec       q    Type
REMARK                         _______ _______ _______ _____ _____    ______ ____
ROOT
ATOM      1  N   UNL     1      44.464   2.484  12.055  0.00  0.00    +0.000 N 
ATOM      2  H   UNL     1      45.328   1.948  12.074  0.00  0.00    +0.000 HD
ENDROOT
BRANCH   1   3
ATOM      3  C   UNL     1      44.664   3.795  12.512  0.00  0.00    +0.000 A 
ATOM      4  C   UNL     1      43.570   4.586  12.869  0.00  0.00    +0.000 A 
ATOM      5  N   UNL     1      43.633   5.877  13.266  0.00  0.00    +0.000 NA
ATOM      6  C   UNL     1      44.861   6.443  13.258  0.00  0.00    +0.000 A 
ATOM      7  C   UNL     1      46.038   5.803  12.864  0.00  0.00    +0.000 A 
ATOM      8  C   UNL     1      45.903   4.448  12.492  0.00  0.00    +0.000 A 
BRANCH   7   9
ATOM      9  C   UNL     1      47.335   6.517  12.803  0.00  0.00    +0.000 A 
ATOM     10  C   UNL     1      48.201   6.572  13.911  0.00  0.00    +0.000 A 
ATOM     11  C   UNL     1      49.442   7.216  13.836  0.00  0.00    +0.000 A 
ATOM     12  C   UNL     1      49.841   7.831  12.654  0.00  0.00    +0.000 A 
ATOM     13  C   UNL     1      49.000   7.805  11.547  0.00  0.00    +0.000 A 
ATOM     14  C   UNL     1      47.765   7.151  11.621  0.00  0.00    +0.000 A 
ENDBRANCH   7   9
ENDBRANCH   1   3
BRANCH   1  15
ATOM     15  C   UNL     1      43.734   2.265  10.807  0.00  0.00    +0.000 C 
BRANCH  15  21
ATOM     16  C   UNL     1      46.244   2.064   7.935  0.00  0.00    +0.000 A 
ATOM     17  C   UNL     1      46.245   3.370   7.441  0.00  0.00    +0.000 A 
ATOM     18  C   UNL     1      45.439   4.339   8.044  0.00  0.00    +0.000 A 
ATOM     19  C   UNL     1      44.626   4.012   9.137  0.00  0.00    +0.000 A 
ATOM     20 CL   UNL     1      43.674   5.283   9.813  0.00  0.00    +0.000 Cl
ATOM     21  C   UNL     1      44.601   2.702   9.643  0.00  0.00    +0.000 A 
ATOM     22  C   UNL     1      45.417   1.731   9.016  0.00  0.00    +0.000 A 
BRANCH  16  24
ATOM     23  N   UNL     1      46.761  -0.295   7.626  0.00  0.00    +0.000 N 
ATOM     24  C   UNL     1      47.084   1.000   7.327  0.00  0.00    +0.000 C 
ATOM     25  O   UNL     1      48.001   1.264   6.562  0.00  0.00    +0.000 OA
ATOM     26  H   UNL     1      47.265  -1.008   7.112  0.00  0.00    +0.000 HD
ATOM     27  H   UNL     1      45.875  -0.554   8.034  0.00  0.00    +0.000 HD
ENDBRANCH  16  24
ENDBRANCH  15  21
ENDBRANCH   1  15
TORSDOF 5
ENDMDL
MODEL 7
REMARK VINA RESULT:    -7.575      2.423      6.643
REMARK INTER + INTRA:         -10.464
REMARK INTER:                  -9.604
REMARK INTRA:                  -0.860
REMARK UNBOUND:                -0.675
REMARK  Name = 
REMARK  5 active torsions:
REMARK  status: ('A' for Active; 'I' for Inactive)
REMARK    1  A    between atoms: C_2  and  C_4
REMARK    2  A    between atoms: C_9  and  C_10
REMARK    3  A    between atoms: C_10  and  N_11
REMARK    4  A    between atoms: N_11  and  C_12
REMARK    5  A    between atoms: C_16  and  C_17
REMARK                            x       y       z     vdW  Elec       q    Type
REMARK                         _______ _______ _______ _____ _____    ______ ____
ROOT
ATOM      1  N   UNL     1      45.755   2.885  12.870  0.00  0.00    +0.000 N 
ATOM      2  H   UNL     1      46.343   2.279  12.302  0.00  0.00    +0.000 HD
ENDROOT
BRANCH   1   3
ATOM      3  C   UNL     1      46.463   4.006  13.326  0.00  0.00    +0.000 A 
ATOM      4  C   UNL     1      47.276   3.906  14.457  0.00  0.00    +0.000 A 
ATOM      5  N   UNL     1      47.959   4.928  15.023  0.00  0.00    +0.000 NA
ATOM      6  C   UNL     1      47.783   6.145  14.462  0.00  0.00    +0.000 A 
ATOM      7  C   UNL     1      46.953   6.415  13.372  0.00  0.00    +0.000 A 
ATOM      8  C   UNL     1      46.295   5.298  12.812  0.00  0.00    +0.000 A 
BRANCH   7   9
ATOM      9  C   UNL     1      46.747   7.791  12.866  0.00  0.00    +0.000 A 
ATOM     10  C   UNL     1      47.830   8.634  12.553  0.00  0.00    +0.000 A 
ATOM     11  C   UNL     1      47.630   9.922  12.040  0.00  0.00    +0.000 A 
ATOM     12  C   UNL     1      46.340  10.401  11.840  0.00  0.00    +0.000 A 
ATOM     13  C   UNL     1      45.250   9.597  12.153  0.00  0.00    +0.000 A 
ATOM     14  C   UNL     1      45.453   8.307  12.655  0.00  0.00    +0.000 A 
ENDBRANCH   7   9
ENDBRANCH   1   3
BRANCH   1  15
ATOM     15  C   UNL     1      44.441   3.070  12.255  0.00  0.00    +0.000 C 
BRANCH  15  21
ATOM     16  C   UNL     1      45.604   2.528   8.658  0.00  0.00    +0.000 A 
ATOM     17  C   UNL     1      45.005   3.593   7.982  0.00  0.00    +0.000 A 
ATOM     18  C   UNL     1      44.224   4.511   8.689  0.00  0.00    +0.000 A 
ATOM     19  C   UNL     1      44.033   4.371  10.070  0.00  0.00    +0.000 A 
ATOM     20 CL   UNL     1      43.057   5.562  10.850  0.00  0.00    +0.000 Cl
ATOM     21  C   UNL     1      44.617   3.301  10.767  0.00  0.00    +0.000 A 
ATOM     22  C   UNL     1      45.398   2.377  10.035  0.00  0.00    +0.000 A 
BRANCH  16  24
ATOM     23  N   UNL     1      47.438   2.008   7.143  0.00  0.00    +0.000 N 
ATOM     24  C   UNL     1      46.443   1.528   7.949  0.00  0.00    +0.000 C 
ATOM     25  O   UNL     1      46.280   0.326   8.107  0.00  0.00    +0.000 OA
ATOM     26  H   UNL     1      48.073   1.316   6.763  0.00  0.00    +0.000 HD
ATOM     27  H   UNL     1      47.762   2.962   7.189  0.00  0.00    +0.000 HD
ENDBRANCH  16  24
ENDBRANCH  15  21
ENDBRANCH   1  15
TORSDOF 5
ENDMDL
MODEL 8
REMARK VINA RESULT:    -7.298      2.907      3.835
REMARK INTER + INTRA:         -10.106
REMARK INTER:                  -9.307
REMARK INTRA:                  -0.800
REMARK UNBOUND:                -0.675
REMARK  Name = 
REMARK  5 active torsions:
REMARK  status: ('A' for Active; 'I' for Inactive)
REMARK    1  A    between atoms: C_2  and  C_4
REMARK    2  A    between atoms: C_9  and  C_10
REMARK    3  A    between atoms: C_10  and  N_11
REMARK    4  A    between atoms: N_11  and  C_12
REMARK    5  A    between atoms: C_16  and  C_17
REMARK                            x       y       z     vdW  Elec       q    Type
REMARK                         _______ _______ _______ _____ _____    ______ ____
ROOT
ATOM      1  N   UNL     1      45.498   5.403  13.854  0.00  0.00    +0.000 N 
ATOM      2  H   UNL     1      45.581   6.397  14.056  0.00  0.00    +0.000 HD
ENDROOT
BRANCH   1   3
ATOM      3  C   UNL     1      44.866   5.182  12.622  0.00  0.00    +0.000 A 
ATOM      4  C   UNL     1      43.499   5.433  12.483  0.00  0.00    +0.000 A 
ATOM      5  N   UNL     1      42.770   5.203  11.366  0.00  0.00    +0.000 NA
ATOM      6  C   UNL     1      43.430   4.636  10.331  0.00  0.00    +0.000 A 
ATOM      7  C   UNL     1      44.777   4.268  10.341  0.00  0.00    +0.000 A 
ATOM      8  C   UNL     1      45.483   4.565  11.527  0.00  0.00    +0.000 A 
BRANCH   7   9
ATOM      9  C   UNL     1      45.408   3.574   9.195  0.00  0.00    +0.000 A 
ATOM     10  C   UNL     1      45.933   4.284   8.099  0.00  0.00    +0.000 A 
ATOM     11  C   UNL     1      46.562   3.625   7.035  0.00  0.00    +0.000 A 
ATOM     12  C   UNL     1      46.669   2.238   7.038  0.00  0.00    +0.000 A 
ATOM     13  C   UNL     1      46.148   1.509   8.100  0.00  0.00    +0.000 A 
ATOM     14  C   UNL     1      45.529   2.171   9.167  0.00  0.00    +0.000 A 
ENDBRANCH   7   9
ENDBRANCH   1   3
BRANCH   1  15
ATOM     15  C   UNL     1      46.743   4.698  14.157  0.00  0.00    +0.000 C 
BRANCH  15  21
ATOM     16  C   UNL     1      49.332   7.316  13.146  0.00  0.00    +0.000 A 
ATOM     17  C   UNL     1      49.933   7.635  14.366  0.00  0.00    +0.000 A 
ATOM     18  C   UNL     1      49.513   6.993  15.533  0.00  0.00    +0.000 A 
ATOM     19  C   UNL     1      48.492   6.035  15.493  0.00  0.00    +0.000 A 
ATOM     20 CL   UNL     1      48.052   5.295  16.989  0.00  0.00    +0.000 Cl
ATOM     21  C   UNL     1      47.867   5.707  14.279  0.00  0.00    +0.000 A 
ATOM     22  C   UNL     1      48.299   6.372  13.108  0.00  0.00    +0.000 A 
BRANCH  16  24
ATOM     23  N   UNL     1      50.875   7.498  11.271  0.00  0.00    +0.000 N 
ATOM     24  C   UNL     1      49.745   7.972  11.879  0.00  0.00    +0.000 C 
ATOM     25  O   UNL     1      49.086   8.872  11.377  0.00  0.00    +0.000 OA
ATOM     26  H   UNL     1      51.075   7.874  10.352  0.00  0.00    +0.000 HD
ATOM     27  H   UNL     1      51.289   6.610  11.511  0.00  0.00    +0.000 HD
ENDBRANCH  16  24
ENDBRANCH  15  21
ENDBRANCH   1  15
TORSDOF 5
ENDMDL
MODEL 9
REMARK VINA RESULT:    -7.106      4.099      8.253
REMARK INTER + INTRA:          -9.859
REMARK INTER:                  -9.234
REMARK INTRA:                  -0.625
REMARK UNBOUND:                -0.675
REMARK  Name = 
REMARK  5 active torsions:
REMARK  status: ('A' for Active; 'I' for Inactive)
REMARK    1  A    between atoms: C_2  and  C_4
REMARK    2  A    between atoms: C_9  and  C_10
REMARK    3  A    between atoms: C_10  and  N_11
REMARK    4  A    between atoms: N_11  and  C_12
REMARK    5  A    between atoms: C_16  and  C_17
REMARK                            x       y       z     vdW  Elec       q    Type
REMARK                         _______ _______ _______ _____ _____    ______ ____
ROOT
ATOM      1  N   UNL     1      46.625   4.189  15.683  0.00  0.00    +0.000 N 
ATOM      2  H   UNL     1      45.717   3.826  15.964  0.00  0.00    +0.000 HD
ENDROOT
BRANCH   1   3
ATOM      3  C   UNL     1      47.525   4.208  16.757  0.00  0.00    +0.000 A 
ATOM      4  C   UNL     1      47.318   5.080  17.828  0.00  0.00    +0.000 A 
ATOM      5  N   UNL     1      48.145   5.230  18.888  0.00  0.00    +0.000 NA
ATOM      6  C   UNL     1      49.285   4.503  18.860  0.00  0.00    +0.000 A 
ATOM      7  C   UNL     1      49.663   3.641  17.830  0.00  0.00    +0.000 A 
ATOM      8  C   UNL     1      48.739   3.510  16.771  0.00  0.00    +0.000 A 
BRANCH   7   9
ATOM      9  C   UNL     1      50.970   2.942  17.833  0.00  0.00    +0.000 A 
ATOM     10  C   UNL     1      52.145   3.573  18.282  0.00  0.00    +0.000 A 
ATOM     11  C   UNL     1      53.370   2.897  18.318  0.00  0.00    +0.000 A 
ATOM     12  C   UNL     1      53.451   1.575  17.892  0.00  0.00    +0.000 A 
ATOM     13  C   UNL     1      52.310   0.930  17.429  0.00  0.00    +0.000 A 
ATOM     14  C   UNL     1      51.085   1.605  17.405  0.00  0.00    +0.000 A 
ENDBRANCH   7   9
ENDBRANCH   1   3
BRANCH   1  15
ATOM     15  C   UNL     1      47.047   3.617  14.404  0.00  0.00    +0.000 C 
BRANCH  15  21
ATOM     16  C   UNL     1      45.011   4.740  11.375  0.00  0.00    +0.000 A 
ATOM     17  C   UNL     1      45.483   6.036  11.155  0.00  0.00    +0.000 A 
ATOM     18  C   UNL     1      46.481   6.559  11.982  0.00  0.00    +0.000 A 
ATOM     19  C   UNL     1      47.010   5.796  13.032  0.00  0.00    +0.000 A 
ATOM     20 CL   UNL     1      48.243   6.532  13.989  0.00  0.00    +0.000 Cl
ATOM     21  C   UNL     1      46.541   4.495  13.277  0.00  0.00    +0.000 A 
ATOM     22  C   UNL     1      45.526   3.985  12.436  0.00  0.00    +0.000 A 
BRANCH  16  24
ATOM     23  N   UNL     1      43.935   4.503   9.204  0.00  0.00    +0.000 N 
ATOM     24  C   UNL     1      43.951   4.142  10.523  0.00  0.00    +0.000 C 
ATOM     25  O   UNL     1      43.150   3.332  10.968  0.00  0.00    +0.000 OA
ATOM     26  H   UNL     1      43.284   3.998   8.614  0.00  0.00    +0.000 HD
ATOM     27  H   UNL     1      44.717   4.955   8.754  0.00  0.00    +0.000 HD
ENDBRANCH  16  24
ENDBRANCH  15  21
ENDBRANCH   1  15
TORSDOF 5
ENDMDL
