MODEL 1
REMARK VINA RESULT:    -8.555      0.000      0.000
REMARK INTER + INTRA:         -12.153
REMARK INTER:                 -11.056
REMARK INTRA:                  -1.097
REMARK UNBOUND:                -1.097
REMARK  Name = 
REMARK  5 active torsions:
REMARK  status: ('A' for Active; 'I' for Inactive)
REMARK    1  A    between atoms: C_2  and  C_4
REMARK    2  A    between atoms: C_7  and  C_8
REMARK    3  A    between atoms: C_8  and  C_9
REMARK    4  A    between atoms: C_9  and  C_10
REMARK    5  A    between atoms: C_14  and  C_15
REMARK                            x       y       z     vdW  Elec       q    Type
REMARK                         _______ _______ _______ _____ _____    ______ ____
ROOT
ATOM      1  C   UNL     1      43.748   4.221  11.707  0.00  0.00    +0.000 C 
ENDROOT
BRANCH   1   2
ATOM      2  C   UNL     1      45.098   4.606  12.259  0.00  0.00    +0.000 A 
ATOM      3  C   UNL     1      45.789   3.770  13.134  0.00  0.00    +0.000 A 
ATOM      4  C   UNL     1      47.004   4.203  13.637  0.00  0.00    +0.000 A 
ATOM      5  N   UNL     1      47.560   5.399  13.342  0.00  0.00    +0.000 NA
ATOM      6  C   UNL     1      46.892   6.217  12.490  0.00  0.00    +0.000 A 
ATOM      7  C   UNL     1      45.665   5.846  11.938  0.00  0.00    +0.000 A 
BRANCH   6   8
ATOM      8  C   UNL     1      47.511   7.534  12.225  0.00  0.00    +0.000 A 
ATOM      9  C   UNL     1      48.851   7.661  11.811  0.00  0.00    +0.000 A 
ATOM     10  C   UNL     1      49.407   8.909  11.511  0.00  0.00    +0.000 A 
ATOM     11  C   UNL     1      48.636  10.061  11.629  0.00  0.00    +0.000 A 
ATOM     12  C   UNL     1      47.316   9.969  12.058  0.00  0.00    +0.000 A 
ATOM     13  C   UNL     1      46.763   8.719  12.357  0.00  0.00    +0.000 A 
ENDBRANCH   6   8
ENDBRANCH   1   2
BRANCH   1  14
ATOM     14  C   UNL     1      43.617   4.604  10.230  0.00  0.00    +0.000 C 
BRANCH  14  18
ATOM     15  C   UNL     1      46.387   2.427   7.726  0.00  0.00    +0.000 A 
ATOM     16  C   UNL     1      45.580   1.743   8.643  0.00  0.00    +0.000 A 
ATOM     17  C   UNL     1      44.685   2.450   9.452  0.00  0.00    +0.000 A 
ATOM     18  C   UNL     1      44.582   3.844   9.352  0.00  0.00    +0.000 A 
ATOM     19  C   UNL     1      45.404   4.524   8.442  0.00  0.00    +0.000 A 
ATOM     20  C   UNL     1      46.302   3.820   7.636  0.00  0.00    +0.000 A 
BRANCH  15  22
ATOM     21  N   UNL     1      48.472   2.410   6.465  0.00  0.00    +0.000 N 
ATOM     22  C   UNL     1      47.362   1.715   6.860  0.00  0.00    +0.000 C 
ATOM     23  O   UNL     1      47.203   0.545   6.536  0.00  0.00    +0.000 OA
ATOM     24  H   UNL     1      49.173   1.884   5.960  0.00  0.00    +0.000 HD
ATOM     25  H   UNL     1      48.763   3.263   6.919  0.00  0.00    +0.000 HD
ENDBRANCH  15  22
ENDBRANCH  14  18
ENDBRANCH   1  14
TORSDOF 5
ENDMDL
MODEL 2
REMARK VINA RESULT:    -8.131      1.038      1.361
REMARK INTER + INTRA:         -11.604
REMARK INTER:                 -10.511
REMARK INTRA:                  -1.094
REMARK UNBOUND:                -1.097
REMARK  Name = 
REMARK  5 active torsions:
REMARK  status: ('A' for Active; 'I' for Inactive)
REMARK    1  A    between atoms: C_2  and  C_4
REMARK    2  A    between atoms: C_7  and  C_8
REMARK    3  A    between atoms: C_8  and  C_9
REMARK    4  A    between atoms: C_9  and  C_10
REMARK    5  A    between atoms: C_14  and  C_15
REMARK                            x       y       z     vdW  Elec       q    Type
REMARK                         _______ _______ _______ _____ _____    ______ ____
ROOT
ATOM      1  C   UNL     1      44.088   3.823  11.832  0.00  0.00    +0.000 C 
ENDROOT
BRANCH   1   2
ATOM      2  C   UNL     1      45.165   4.747  12.345  0.00  0.00    +0.000 A 
ATOM      3  C   UNL     1      46.181   4.284  13.180  0.00  0.00    +0.000 A 
ATOM      4  C   UNL     1      47.113   5.194  13.649  0.00  0.00    +0.000 A 
ATOM      5  N   UNL     1      47.093   6.513  13.358  0.00  0.00    +0.000 NA
ATOM      6  C   UNL     1      46.107   6.969  12.545  0.00  0.00    +0.000 A 
ATOM      7  C   UNL     1      45.135   6.111  12.028  0.00  0.00    +0.000 A 
BRANCH   6   8
ATOM      8  C   UNL     1      46.094   8.425  12.283  0.00  0.00    +0.000 A 
ATOM      9  C   UNL     1      47.271   9.198  12.298  0.00  0.00    +0.000 A 
ATOM     10  C   UNL     1      47.250  10.564  11.995  0.00  0.00    +0.000 A 
ATOM     11  C   UNL     1      46.048  11.190  11.680  0.00  0.00    +0.000 A 
ATOM     12  C   UNL     1      44.866  10.456  11.680  0.00  0.00    +0.000 A 
ATOM     13  C   UNL     1      44.891   9.090  11.983  0.00  0.00    +0.000 A 
ENDBRANCH   6   8
ENDBRANCH   1   2
BRANCH   1  14
ATOM     14  C   UNL     1      43.706   4.156  10.387  0.00  0.00    +0.000 C 
BRANCH  14  18
ATOM     15  C   UNL     1      46.594   2.651   7.545  0.00  0.00    +0.000 A 
ATOM     16  C   UNL     1      45.881   1.764   8.362  0.00  0.00    +0.000 A 
ATOM     17  C   UNL     1      44.948   2.254   9.281  0.00  0.00    +0.000 A 
ATOM     18  C   UNL     1      44.712   3.631   9.392  0.00  0.00    +0.000 A 
ATOM     19  C   UNL     1      45.440   4.514   8.582  0.00  0.00    +0.000 A 
ATOM     20  C   UNL     1      46.377   4.028   7.667  0.00  0.00    +0.000 A 
BRANCH  15  22
ATOM     21  N   UNL     1      47.859   2.972   5.488  0.00  0.00    +0.000 N 
ATOM     22  C   UNL     1      47.606   2.173   6.569  0.00  0.00    +0.000 C 
ATOM     23  O   UNL     1      48.217   1.125   6.735  0.00  0.00    +0.000 OA
ATOM     24  H   UNL     1      48.619   2.681   4.885  0.00  0.00    +0.000 HD
ATOM     25  H   UNL     1      47.580   3.941   5.457  0.00  0.00    +0.000 HD
ENDBRANCH  15  22
ENDBRANCH  14  18
ENDBRANCH   1  14
TORSDOF 5
ENDMDL
MODEL 3
REMARK VINA RESULT:    -7.901      2.035      3.888
REMARK INTER + INTRA:         -11.308
REMARK INTER:                 -10.548
REMARK INTRA:                  -0.760
REMARK UNBOUND:                -1.097
REMARK  Name = 
REMARK  5 active torsions:
REMARK  status: ('A' for Active; 'I' for Inactive)
REMARK    1  A    between atoms: C_2  and  C_4
REMARK    2  A    between atoms: C_7  and  C_8
REMARK    3  A    between atoms: C_8  and  C_9
REMARK    4  A    between atoms: C_9  and  C_10
REMARK    5  A    between atoms: C_14  and  C_15
REMARK                            x       y       z     vdW  Elec       q    Type
REMARK                         _______ _______ _______ _____ _____    ______ ____
ROOT
ATOM      1  C   UNL     1      44.409   3.515  11.951  0.00  0.00    +0.000 C 
ENDROOT
BRANCH   1   2
ATOM      2  C   UNL     1      45.395   4.457  12.595  0.00  0.00    +0.000 A 
ATOM      3  C   UNL     1      45.780   5.642  11.971  0.00  0.00    +0.000 A 
ATOM      4  C   UNL     1      46.722   6.440  12.598  0.00  0.00    +0.000 A 
ATOM      5  N   UNL     1      47.305   6.135  13.779  0.00  0.00    +0.000 NA
ATOM      6  C   UNL     1      46.933   4.983  14.391  0.00  0.00    +0.000 A 
ATOM      7  C   UNL     1      45.985   4.130  13.822  0.00  0.00    +0.000 A 
BRANCH   6   8
ATOM      8  C   UNL     1      47.624   4.662  15.659  0.00  0.00    +0.000 A 
ATOM      9  C   UNL     1      48.453   5.592  16.315  0.00  0.00    +0.000 A 
ATOM     10  C   UNL     1      49.056   5.294  17.542  0.00  0.00    +0.000 A 
ATOM     11  C   UNL     1      48.851   4.053  18.136  0.00  0.00    +0.000 A 
ATOM     12  C   UNL     1      48.055   3.105  17.499  0.00  0.00    +0.000 A 
ATOM     13  C   UNL     1      47.453   3.407  16.273  0.00  0.00    +0.000 A 
ENDBRANCH   6   8
ENDBRANCH   1   2
BRANCH   1  14
ATOM     14  C   UNL     1      43.982   4.012  10.566  0.00  0.00    +0.000 C 
BRANCH  14  18
ATOM     15  C   UNL     1      46.663   2.702   7.440  0.00  0.00    +0.000 A 
ATOM     16  C   UNL     1      46.395   4.065   7.612  0.00  0.00    +0.000 A 
ATOM     17  C   UNL     1      45.526   4.486   8.624  0.00  0.00    +0.000 A 
ATOM     18  C   UNL     1      44.921   3.554   9.477  0.00  0.00    +0.000 A 
ATOM     19  C   UNL     1      45.182   2.189   9.290  0.00  0.00    +0.000 A 
ATOM     20  C   UNL     1      46.046   1.766   8.276  0.00  0.00    +0.000 A 
BRANCH  15  22
ATOM     21  N   UNL     1      47.727   3.015   5.270  0.00  0.00    +0.000 N 
ATOM     22  C   UNL     1      47.566   2.212   6.366  0.00  0.00    +0.000 C 
ATOM     23  O   UNL     1      48.169   1.152   6.466  0.00  0.00    +0.000 OA
ATOM     24  H   UNL     1      48.419   2.715   4.595  0.00  0.00    +0.000 HD
ATOM     25  H   UNL     1      47.466   3.990   5.274  0.00  0.00    +0.000 HD
ENDBRANCH  15  22
ENDBRANCH  14  18
ENDBRANCH   1  14
TORSDOF 5
ENDMDL
MODEL 4
REMARK VINA RESULT:    -7.836      3.201      7.135
REMARK INTER + INTRA:         -11.224
REMARK INTER:                 -10.501
REMARK INTRA:                  -0.723
REMARK UNBOUND:                -1.097
REMARK  Name = 
REMARK  5 active torsions:
REMARK  status: ('A' for Active; 'I' for Inactive)
REMARK    1  A    between atoms: C_2  and  C_4
REMARK    2  A    between atoms: C_7  and  C_8
REMARK    3  A    between atoms: C_8  and  C_9
REMARK    4  A    between atoms: C_9  and  C_10
REMARK    5  A    between atoms: C_14  and  C_15
REMARK                            x       y       z     vdW  Elec       q    Type
REMARK                         _______ _______ _______ _____ _____    ______ ____
ROOT
ATOM      1  C   UNL     1      45.991   7.334  11.746  0.00  0.00    +0.000 C 
ENDROOT
BRANCH   1   2
ATOM      2  C   UNL     1      45.206   6.243  11.061  0.00  0.00    +0.000 A 
ATOM      3  C   UNL     1      43.877   5.986  11.396  0.00  0.00    +0.000 A 
ATOM      4  C   UNL     1      43.229   4.942  10.759  0.00  0.00    +0.000 A 
ATOM      5  N   UNL     1      43.808   4.143   9.835  0.00  0.00    +0.000 NA
ATOM      6  C   UNL     1      45.101   4.390   9.504  0.00  0.00    +0.000 A 
ATOM      7  C   UNL     1      45.819   5.428  10.101  0.00  0.00    +0.000 A 
BRANCH   6   8
ATOM      8  C   UNL     1      45.713   3.469   8.523  0.00  0.00    +0.000 A 
ATOM      9  C   UNL     1      46.314   3.932   7.336  0.00  0.00    +0.000 A 
ATOM     10  C   UNL     1      46.938   3.053   6.443  0.00  0.00    +0.000 A 
ATOM     11  C   UNL     1      46.965   1.690   6.713  0.00  0.00    +0.000 A 
ATOM     12  C   UNL     1      46.360   1.200   7.866  0.00  0.00    +0.000 A 
ATOM     13  C   UNL     1      45.738   2.081   8.757  0.00  0.00    +0.000 A 
ENDBRANCH   6   8
ENDBRANCH   1   2
BRANCH   1  14
ATOM     14  C   UNL     1      47.409   6.871  12.091  0.00  0.00    +0.000 C 
BRANCH  14  18
ATOM     15  C   UNL     1      47.549   4.534  15.723  0.00  0.00    +0.000 A 
ATOM     16  C   UNL     1      48.178   5.783  15.665  0.00  0.00    +0.000 A 
ATOM     17  C   UNL     1      48.131   6.537  14.488  0.00  0.00    +0.000 A 
ATOM     18  C   UNL     1      47.454   6.056  13.360  0.00  0.00    +0.000 A 
ATOM     19  C   UNL     1      46.840   4.797  13.420  0.00  0.00    +0.000 A 
ATOM     20  C   UNL     1      46.889   4.040  14.593  0.00  0.00    +0.000 A 
BRANCH  15  22
ATOM     21  N   UNL     1      48.791   3.587  17.594  0.00  0.00    +0.000 N 
ATOM     22  C   UNL     1      47.589   3.694  16.948  0.00  0.00    +0.000 C 
ATOM     23  O   UNL     1      46.586   3.146  17.387  0.00  0.00    +0.000 OA
ATOM     24  H   UNL     1      48.780   3.095  18.478  0.00  0.00    +0.000 HD
ATOM     25  H   UNL     1      49.554   4.224  17.420  0.00  0.00    +0.000 HD
ENDBRANCH  15  22
ENDBRANCH  14  18
ENDBRANCH   1  14
TORSDOF 5
ENDMDL
MODEL 5
REMARK VINA RESULT:    -7.802      1.483      2.003
REMARK INTER + INTRA:         -11.179
REMARK INTER:                 -10.230
REMARK INTRA:                  -0.949
REMARK UNBOUND:                -1.097
REMARK  Name = 
REMARK  5 active torsions:
REMARK  status: ('A' for Active; 'I' for Inactive)
REMARK    1  A    between atoms: C_2  and  C_4
REMARK    2  A    between atoms: C_7  and  C_8
REMARK    3  A    between atoms: C_8  and  C_9
REMARK    4  A    between atoms: C_9  and  C_10
REMARK    5  A    between atoms: C_14  and  C_15
REMARK                            x       y       z     vdW  Elec       q    Type
REMARK                         _______ _______ _______ _____ _____    ______ ____
ROOT
ATOM      1  C   UNL     1      44.587   3.871  11.875  0.00  0.00    +0.000 C 
ENDROOT
BRANCH   1   2
ATOM      2  C   UNL     1      45.020   5.316  11.908  0.00  0.00    +0.000 A 
ATOM      3  C   UNL     1      44.140   6.345  11.575  0.00  0.00    +0.000 A 
ATOM      4  C   UNL     1      44.615   7.645  11.584  0.00  0.00    +0.000 A 
ATOM      5  N   UNL     1      45.889   7.982  11.885  0.00  0.00    +0.000 NA
ATOM      6  C   UNL     1      46.749   6.985  12.211  0.00  0.00    +0.000 A 
ATOM      7  C   UNL     1      46.341   5.650  12.228  0.00  0.00    +0.000 A 
BRANCH   6   8
ATOM      8  C   UNL     1      48.144   7.388  12.491  0.00  0.00    +0.000 A 
ATOM      9  C   UNL     1      49.053   7.703  11.463  0.00  0.00    +0.000 A 
ATOM     10  C   UNL     1      50.353   8.136  11.746  0.00  0.00    +0.000 A 
ATOM     11  C   UNL     1      50.776   8.254  13.065  0.00  0.00    +0.000 A 
ATOM     12  C   UNL     1      49.908   7.928  14.102  0.00  0.00    +0.000 A 
ATOM     13  C   UNL     1      48.608   7.496  13.816  0.00  0.00    +0.000 A 
ENDBRANCH   6   8
ENDBRANCH   1   2
BRANCH   1  14
ATOM     14  C   UNL     1      43.850   3.537  10.575  0.00  0.00    +0.000 C 
BRANCH  14  18
ATOM     15  C   UNL     1      46.571   2.611   7.347  0.00  0.00    +0.000 A 
ATOM     16  C   UNL     1      46.079   1.589   8.168  0.00  0.00    +0.000 A 
ATOM     17  C   UNL     1      45.199   1.892   9.213  0.00  0.00    +0.000 A 
ATOM     18  C   UNL     1      44.797   3.214   9.445  0.00  0.00    +0.000 A 
ATOM     19  C   UNL     1      45.305   4.234   8.629  0.00  0.00    +0.000 A 
ATOM     20  C   UNL     1      46.188   3.935   7.588  0.00  0.00    +0.000 A 
BRANCH  15  22
ATOM     21  N   UNL     1      47.341   3.029   5.074  0.00  0.00    +0.000 N 
ATOM     22  C   UNL     1      47.520   2.334   6.239  0.00  0.00    +0.000 C 
ATOM     23  O   UNL     1      48.446   1.544   6.366  0.00  0.00    +0.000 OA
ATOM     24  H   UNL     1      48.052   2.903   4.365  0.00  0.00    +0.000 HD
ATOM     25  H   UNL     1      46.772   3.861   5.025  0.00  0.00    +0.000 HD
ENDBRANCH  15  22
ENDBRANCH  14  18
ENDBRANCH   1  14
TORSDOF 5
ENDMDL
MODEL 6
REMARK VINA RESULT:    -7.710      2.910      6.864
REMARK INTER + INTRA:         -11.060
REMARK INTER:                 -10.118
REMARK INTRA:                  -0.942
REMARK UNBOUND:                -1.097
REMARK  Name = 
REMARK  5 active torsions:
REMARK  status: ('A' for Active; 'I' for Inactive)
REMARK    1  A    between atoms: C_2  and  C_4
REMARK    2  A    between atoms: C_7  and  C_8
REMARK    3  A    between atoms: C_8  and  C_9
REMARK    4  A    between atoms: C_9  and  C_10
REMARK    5  A    between atoms: C_14  and  C_15
REMARK                            x       y       z     vdW  Elec       q    Type
REMARK                         _______ _______ _______ _____ _____    ______ ____
ROOT
ATOM      1  C   UNL     1      44.452   6.578  11.415  0.00  0.00    +0.000 C 
ENDROOT
BRANCH   1   2
ATOM      2  C   UNL     1      44.323   5.145  10.960  0.00  0.00    +0.000 A 
ATOM      3  C   UNL     1      43.541   4.228  11.662  0.00  0.00    +0.000 A 
ATOM      4  C   UNL     1      43.502   2.919  11.214  0.00  0.00    +0.000 A 
ATOM      5  N   UNL     1      44.186   2.466  10.141  0.00  0.00    +0.000 NA
ATOM      6  C   UNL     1      44.948   3.354   9.453  0.00  0.00    +0.000 A 
ATOM      7  C   UNL     1      45.033   4.692   9.841  0.00  0.00    +0.000 A 
BRANCH   6   8
ATOM      8  C   UNL     1      45.715   2.813   8.310  0.00  0.00    +0.000 A 
ATOM      9  C   UNL     1      46.030   3.595   7.183  0.00  0.00    +0.000 A 
ATOM     10  C   UNL     1      46.804   3.086   6.134  0.00  0.00    +0.000 A 
ATOM     11  C   UNL     1      47.272   1.777   6.186  0.00  0.00    +0.000 A 
ATOM     12  C   UNL     1      46.957   0.973   7.277  0.00  0.00    +0.000 A 
ATOM     13  C   UNL     1      46.183   1.485   8.324  0.00  0.00    +0.000 A 
ENDBRANCH   6   8
ENDBRANCH   1   2
BRANCH   1  14
ATOM     14  C   UNL     1      45.193   6.676  12.751  0.00  0.00    +0.000 C 
BRANCH  14  18
ATOM     15  C   UNL     1      49.275   8.007  12.261  0.00  0.00    +0.000 A 
ATOM     16  C   UNL     1      48.214   8.886  12.015  0.00  0.00    +0.000 A 
ATOM     17  C   UNL     1      46.894   8.453  12.174  0.00  0.00    +0.000 A 
ATOM     18  C   UNL     1      46.619   7.142  12.584  0.00  0.00    +0.000 A 
ATOM     19  C   UNL     1      47.686   6.262  12.814  0.00  0.00    +0.000 A 
ATOM     20  C   UNL     1      49.006   6.691  12.652  0.00  0.00    +0.000 A 
BRANCH  15  22
ATOM     21  N   UNL     1      51.579   8.040  13.055  0.00  0.00    +0.000 N 
ATOM     22  C   UNL     1      50.691   8.423  12.088  0.00  0.00    +0.000 C 
ATOM     23  O   UNL     1      51.061   9.054  11.106  0.00  0.00    +0.000 OA
ATOM     24  H   UNL     1      52.553   8.245  12.874  0.00  0.00    +0.000 HD
ATOM     25  H   UNL     1      51.368   7.311  13.721  0.00  0.00    +0.000 HD
ENDBRANCH  15  22
ENDBRANCH  14  18
ENDBRANCH   1  14
TORSDOF 5
ENDMDL
MODEL 7
REMARK VINA RESULT:    -7.484      3.189      6.978
REMARK INTER + INTRA:         -10.768
REMARK INTER:                  -9.943
REMARK INTRA:                  -0.825
REMARK UNBOUND:                -1.097
REMARK  Name = 
REMARK  5 active torsions:
REMARK  status: ('A' for Active; 'I' for Inactive)
REMARK    1  A    between atoms: C_2  and  C_4
REMARK    2  A    between atoms: C_7  and  C_8
REMARK    3  A    between atoms: C_8  and  C_9
REMARK    4  A    between atoms: C_9  and  C_10
REMARK    5  A    between atoms: C_14  and  C_15
REMARK                            x       y       z     vdW  Elec       q    Type
REMARK                         _______ _______ _______ _____ _____    ______ ____
ROOT
ATOM      1  C   UNL     1      44.011   6.431  11.768  0.00  0.00    +0.000 C 
ENDROOT
BRANCH   1   2
ATOM      2  C   UNL     1      43.971   5.014  11.252  0.00  0.00    +0.000 A 
ATOM      3  C   UNL     1      43.234   4.025  11.902  0.00  0.00    +0.000 A 
ATOM      4  C   UNL     1      43.274   2.736  11.400  0.00  0.00    +0.000 A 
ATOM      5  N   UNL     1      43.998   2.369  10.319  0.00  0.00    +0.000 NA
ATOM      6  C   UNL     1      44.716   3.327   9.681  0.00  0.00    +0.000 A 
ATOM      7  C   UNL     1      44.720   4.650  10.126  0.00  0.00    +0.000 A 
BRANCH   6   8
ATOM      8  C   UNL     1      45.529   2.879   8.529  0.00  0.00    +0.000 A 
ATOM      9  C   UNL     1      45.880   3.748   7.479  0.00  0.00    +0.000 A 
ATOM     10  C   UNL     1      46.695   3.325   6.423  0.00  0.00    +0.000 A 
ATOM     11  C   UNL     1      47.168   2.017   6.390  0.00  0.00    +0.000 A 
ATOM     12  C   UNL     1      46.818   1.129   7.402  0.00  0.00    +0.000 A 
ATOM     13  C   UNL     1      46.004   1.556   8.456  0.00  0.00    +0.000 A 
ENDBRANCH   6   8
ENDBRANCH   1   2
BRANCH   1  14
ATOM     14  C   UNL     1      45.284   7.154  11.318  0.00  0.00    +0.000 C 
BRANCH  14  18
ATOM     15  C   UNL     1      48.408   6.975  14.299  0.00  0.00    +0.000 A 
ATOM     16  C   UNL     1      47.609   5.853  14.049  0.00  0.00    +0.000 A 
ATOM     17  C   UNL     1      46.598   5.914  13.084  0.00  0.00    +0.000 A 
ATOM     18  C   UNL     1      46.378   7.091  12.357  0.00  0.00    +0.000 A 
ATOM     19  C   UNL     1      47.172   8.215  12.623  0.00  0.00    +0.000 A 
ATOM     20  C   UNL     1      48.179   8.158  13.590  0.00  0.00    +0.000 A 
BRANCH  15  22
ATOM     21  N   UNL     1      50.742   7.299  14.922  0.00  0.00    +0.000 N 
ATOM     22  C   UNL     1      49.481   6.957  15.327  0.00  0.00    +0.000 C 
ATOM     23  O   UNL     1      49.247   6.680  16.497  0.00  0.00    +0.000 OA
ATOM     24  H   UNL     1      51.439   7.378  15.651  0.00  0.00    +0.000 HD
ATOM     25  H   UNL     1      50.916   7.780  14.052  0.00  0.00    +0.000 HD
ENDBRANCH  15  22
ENDBRANCH  14  18
ENDBRANCH   1  14
TORSDOF 5
ENDMDL
MODEL 8
REMARK VINA RESULT:    -7.088      3.307      6.986
REMARK INTER + INTRA:         -10.258
REMARK INTER:                  -9.365
REMARK INTRA:                  -0.892
REMARK UNBOUND:                -1.097
REMARK  Name = 
REMARK  5 active torsions:
REMARK  status: ('A' for Active; 'I' for Inactive)
REMARK    1  A    between atoms: C_2  and  C_4
REMARK    2  A    between atoms: C_7  and  C_8
REMARK    3  A    between atoms: C_8  and  C_9
REMARK    4  A    between atoms: C_9  and  C_10
REMARK    5  A    between atoms: C_14  and  C_15
REMARK                            x       y       z     vdW  Elec       q    Type
REMARK                         _______ _______ _______ _____ _____    ______ ____
ROOT
ATOM      1  C   UNL     1      45.065   7.153  11.491  0.00  0.00    +0.000 C 
ENDROOT
BRANCH   1   2
ATOM      2  C   UNL     1      44.641   5.783  11.021  0.00  0.00    +0.000 A 
ATOM      3  C   UNL     1      43.578   5.108  11.618  0.00  0.00    +0.000 A 
ATOM      4  C   UNL     1      43.268   3.837  11.166  0.00  0.00    +0.000 A 
ATOM      5  N   UNL     1      43.943   3.199  10.185  0.00  0.00    +0.000 NA
ATOM      6  C   UNL     1      44.978   3.851   9.599  0.00  0.00    +0.000 A 
ATOM      7  C   UNL     1      45.346   5.138   9.997  0.00  0.00    +0.000 A 
BRANCH   6   8
ATOM      8  C   UNL     1      45.720   3.105   8.559  0.00  0.00    +0.000 A 
ATOM      9  C   UNL     1      45.916   1.712   8.634  0.00  0.00    +0.000 A 
ATOM     10  C   UNL     1      46.571   1.012   7.616  0.00  0.00    +0.000 A 
ATOM     11  C   UNL     1      47.055   1.691   6.503  0.00  0.00    +0.000 A 
ATOM     12  C   UNL     1      46.897   3.070   6.412  0.00  0.00    +0.000 A 
ATOM     13  C   UNL     1      46.240   3.768   7.432  0.00  0.00    +0.000 A 
ENDBRANCH   6   8
ENDBRANCH   1   2
BRANCH   1  14
ATOM     14  C   UNL     1      45.697   7.095  12.885  0.00  0.00    +0.000 C 
BRANCH  14  18
ATOM     15  C   UNL     1      49.928   7.975  12.814  0.00  0.00    +0.000 A 
ATOM     16  C   UNL     1      49.342   7.428  13.962  0.00  0.00    +0.000 A 
ATOM     17  C   UNL     1      47.972   7.144  13.982  0.00  0.00    +0.000 A 
ATOM     18  C   UNL     1      47.175   7.399  12.858  0.00  0.00    +0.000 A 
ATOM     19  C   UNL     1      47.766   7.961  11.718  0.00  0.00    +0.000 A 
ATOM     20  C   UNL     1      49.133   8.249  11.697  0.00  0.00    +0.000 A 
BRANCH  15  22
ATOM     21  N   UNL     1      52.086   7.827  11.692  0.00  0.00    +0.000 N 
ATOM     22  C   UNL     1      51.375   8.306  12.758  0.00  0.00    +0.000 C 
ATOM     23  O   UNL     1      51.910   9.005  13.609  0.00  0.00    +0.000 OA
ATOM     24  H   UNL     1      53.044   8.142  11.616  0.00  0.00    +0.000 HD
ATOM     25  H   UNL     1      51.636   7.485  10.855  0.00  0.00    +0.000 HD
ENDBRANCH  15  22
ENDBRANCH  14  18
ENDBRANCH   1  14
TORSDOF 5
ENDMDL
MODEL 9
REMARK VINA RESULT:    -7.022      3.143      7.075
REMARK INTER + INTRA:         -10.172
REMARK INTER:                  -9.285
REMARK INTRA:                  -0.887
REMARK UNBOUND:                -1.097
REMARK  Name = 
REMARK  5 active torsions:
REMARK  status: ('A' for Active; 'I' for Inactive)
REMARK    1  A    between atoms: C_2  and  C_4
REMARK    2  A    between atoms: C_7  and  C_8
REMARK    3  A    between atoms: C_8  and  C_9
REMARK    4  A    between atoms: C_9  and  C_10
REMARK    5  A    between atoms: C_14  and  C_15
REMARK                            x       y       z     vdW  Elec       q    Type
REMARK                         _______ _______ _______ _____ _____    ______ ____
ROOT
ATOM      1  C   UNL     1      45.166   5.543  12.973  0.00  0.00    +0.000 C 
ENDROOT
BRANCH   1   2
ATOM      2  C   UNL     1      44.686   4.472  12.025  0.00  0.00    +0.000 A 
ATOM      3  C   UNL     1      43.584   3.674  12.329  0.00  0.00    +0.000 A 
ATOM      4  C   UNL     1      43.223   2.682  11.434  0.00  0.00    +0.000 A 
ATOM      5  N   UNL     1      43.882   2.427  10.282  0.00  0.00    +0.000 NA
ATOM      6  C   UNL     1      44.954   3.201   9.980  0.00  0.00    +0.000 A 
ATOM      7  C   UNL     1      45.375   4.225  10.831  0.00  0.00    +0.000 A 
BRANCH   6   8
ATOM      8  C   UNL     1      45.676   2.864   8.733  0.00  0.00    +0.000 A 
ATOM      9  C   UNL     1      46.084   1.550   8.437  0.00  0.00    +0.000 A 
ATOM     10  C   UNL     1      46.716   1.237   7.229  0.00  0.00    +0.000 A 
ATOM     11  C   UNL     1      46.965   2.236   6.294  0.00  0.00    +0.000 A 
ATOM     12  C   UNL     1      46.593   3.548   6.569  0.00  0.00    +0.000 A 
ATOM     13  C   UNL     1      45.961   3.857   7.778  0.00  0.00    +0.000 A 
ENDBRANCH   6   8
ENDBRANCH   1   2
BRANCH   1  14
ATOM     14  C   UNL     1      46.690   5.687  12.929  0.00  0.00    +0.000 C 
BRANCH  14  18
ATOM     15  C   UNL     1      47.929   9.669  11.794  0.00  0.00    +0.000 A 
ATOM     16  C   UNL     1      46.628   9.442  12.260  0.00  0.00    +0.000 A 
ATOM     17  C   UNL     1      46.230   8.153  12.627  0.00  0.00    +0.000 A 
ATOM     18  C   UNL     1      47.124   7.078  12.536  0.00  0.00    +0.000 A 
ATOM     19  C   UNL     1      48.420   7.309  12.054  0.00  0.00    +0.000 A 
ATOM     20  C   UNL     1      48.819   8.596  11.683  0.00  0.00    +0.000 A 
BRANCH  15  22
ATOM     21  N   UNL     1      47.988  12.079  12.149  0.00  0.00    +0.000 N 
ATOM     22  C   UNL     1      48.386  11.020  11.379  0.00  0.00    +0.000 C 
ATOM     23  O   UNL     1      49.115  11.184  10.409  0.00  0.00    +0.000 OA
ATOM     24  H   UNL     1      48.387  12.978  11.912  0.00  0.00    +0.000 HD
ATOM     25  H   UNL     1      47.622  11.959  13.081  0.00  0.00    +0.000 HD
ENDBRANCH  15  22
ENDBRANCH  14  18
ENDBRANCH   1  14
TORSDOF 5
ENDMDL
