MODEL 1
REMARK VINA RESULT:    -6.297      0.000      0.000
REMARK INTER + INTRA:         -10.192
REMARK INTER:                  -9.058
REMARK INTRA:                  -1.134
REMARK UNBOUND:                -1.134
REMARK  Name = 
REMARK  9 active torsions:
REMARK  status: ('A' for Active; 'I' for Inactive)
REMARK    1  A    between atoms: C_1  and  C_2
REMARK    2  A    between atoms: C_2  and  N_3
REMARK    3  A    between atoms: C_2  and  C_16
REMARK    4  A    between atoms: C_4  and  C_6
REMARK    5  A    between atoms: C_19  and  C_20
REMARK    6  A    between atoms: C_20  and  N_21
REMARK    7  A    between atoms: N_24  and  C_25
REMARK    8  A    between atoms: C_25  and  C_26
REMARK    9  A    between atoms: C_26  and  O_27
REMARK                            x       y       z     vdW  Elec       q    Type
REMARK                         _______ _______ _______ _____ _____    ______ ____
ROOT
ATOM      1  C   UNL     1      49.316   7.829  11.112  0.00  0.00    +0.000 C 
ATOM      2  C   UNL     1      48.068   7.878  12.019  0.00  0.00    +0.000 C 
ENDROOT
BRANCH   2   3
ATOM      3  C   UNL     1      48.474   8.073  13.473  0.00  0.00    +0.000 A 
ATOM      4  C   UNL     1      49.565   7.356  13.991  0.00  0.00    +0.000 A 
ATOM      5  C   UNL     1      49.940   7.470  15.341  0.00  0.00    +0.000 A 
ATOM      6  C   UNL     1      49.227   8.289  16.226  0.00  0.00    +0.000 A 
ATOM      7  C   UNL     1      48.153   9.028  15.708  0.00  0.00    +0.000 A 
ATOM      8  C   UNL     1      47.785   8.927  14.351  0.00  0.00    +0.000 A 
BRANCH   6   9
ATOM      9  C   UNL     1      49.585   8.317  17.713  0.00  0.00    +0.000 C 
BRANCH   9  10
ATOM     10  N   UNL     1      48.547   7.799  18.626  0.00  0.00    +0.000 NA
ATOM     11  C   UNL     1      48.995   7.803  20.038  0.00  0.00    +0.000 C 
ATOM     12  C   UNL     1      49.967   6.668  20.478  0.00  0.00    +0.000 C 
ATOM     13  N   UNL     1      49.725   5.302  19.953  0.00  0.00    +0.000 NA
ATOM     14  C   UNL     1      49.179   5.347  18.585  0.00  0.00    +0.000 C 
ATOM     15  C   UNL     1      48.114   6.428  18.310  0.00  0.00    +0.000 C 
BRANCH  13  16
ATOM     16  C   UNL     1      48.947   4.477  20.901  0.00  0.00    +0.000 C 
BRANCH  16  17
ATOM     17  C   UNL     1      48.238   5.287  22.008  0.00  0.00    +0.000 C 
BRANCH  17  18
ATOM     18  O   UNL     1      46.850   5.438  21.718  0.00  0.00    +0.000 OA
ATOM     19  H   UNL     1      46.564   6.228  22.217  0.00  0.00    +0.000 HD
ENDBRANCH  17  18
ENDBRANCH  16  17
ENDBRANCH  13  16
ENDBRANCH   9  10
ENDBRANCH   6   9
ENDBRANCH   2   3
BRANCH   2  20
ATOM     20  N   UNL     1      47.224   6.705  11.846  0.00  0.00    +0.000 N 
ATOM     21  C   UNL     1      45.854   6.779  11.853  0.00  0.00    +0.000 C 
ATOM     22  O   UNL     1      45.251   7.847  11.915  0.00  0.00    +0.000 OA
ATOM     23  H   UNL     1      47.644   5.813  12.108  0.00  0.00    +0.000 HD
BRANCH  21  24
ATOM     24  C   UNL     1      45.106   5.522  11.724  0.00  0.00    +0.000 A 
ATOM     25  C   UNL     1      44.400   5.022  12.809  0.00  0.00    +0.000 A 
ATOM     26  S   UNL     1      43.599   3.553  12.485  0.00  0.00    +0.000 S 
ATOM     27  C   UNL     1      44.210   3.510  10.899  0.00  0.00    +0.000 A 
ATOM     28  N   UNL     1      43.939   2.463  10.072  0.00  0.00    +0.000 NA
ATOM     29  C   UNL     1      44.505   2.541   8.914  0.00  0.00    +0.000 A 
ATOM     30  N   UNL     1      45.303   3.578   8.501  0.00  0.00    +0.000 N 
ATOM     31  C   UNL     1      45.555   4.683   9.281  0.00  0.00    +0.000 A 
ATOM     32  O   UNL     1      46.194   5.638   8.853  0.00  0.00    +0.000 OA
ATOM     33  C   UNL     1      44.979   4.622  10.608  0.00  0.00    +0.000 A 
ATOM     34  H   UNL     1      45.695   3.588   7.571  0.00  0.00    +0.000 HD
ENDBRANCH  21  24
ENDBRANCH   2  20
TORSDOF 8
ENDMDL
MODEL 2
REMARK VINA RESULT:    -6.196      1.766      2.085
REMARK INTER + INTRA:         -10.047
REMARK INTER:                 -10.129
REMARK INTRA:                   0.082
REMARK UNBOUND:                -1.134
REMARK  Name = 
REMARK  9 active torsions:
REMARK  status: ('A' for Active; 'I' for Inactive)
REMARK    1  A    between atoms: C_1  and  C_2
REMARK    2  A    between atoms: C_2  and  N_3
REMARK    3  A    between atoms: C_2  and  C_16
REMARK    4  A    between atoms: C_4  and  C_6
REMARK    5  A    between atoms: C_19  and  C_20
REMARK    6  A    between atoms: C_20  and  N_21
REMARK    7  A    between atoms: N_24  and  C_25
REMARK    8  A    between atoms: C_25  and  C_26
REMARK    9  A    between atoms: C_26  and  O_27
REMARK                            x       y       z     vdW  Elec       q    Type
REMARK                         _______ _______ _______ _____ _____    ______ ____
ROOT
ATOM      1  C   UNL     1      49.331   7.916  11.105  0.00  0.00    +0.000 C 
ATOM      2  C   UNL     1      48.140   7.958  12.086  0.00  0.00    +0.000 C 
ENDROOT
BRANCH   2   3
ATOM      3  C   UNL     1      48.634   8.112  13.518  0.00  0.00    +0.000 A 
ATOM      4  C   UNL     1      49.897   7.612  13.874  0.00  0.00    +0.000 A 
ATOM      5  C   UNL     1      50.368   7.688  15.196  0.00  0.00    +0.000 A 
ATOM      6  C   UNL     1      49.586   8.250  16.214  0.00  0.00    +0.000 A 
ATOM      7  C   UNL     1      48.335   8.776  15.858  0.00  0.00    +0.000 A 
ATOM      8  C   UNL     1      47.867   8.713  14.530  0.00  0.00    +0.000 A 
BRANCH   6   9
ATOM      9  C   UNL     1      50.072   8.228  17.664  0.00  0.00    +0.000 C 
BRANCH   9  10
ATOM     10  N   UNL     1      49.473   7.183  18.518  0.00  0.00    +0.000 NA
ATOM     11  C   UNL     1      50.499   6.302  19.121  0.00  0.00    +0.000 C 
ATOM     12  C   UNL     1      51.126   5.210  18.204  0.00  0.00    +0.000 C 
ATOM     13  N   UNL     1      50.230   4.495  17.262  0.00  0.00    +0.000 NA
ATOM     14  C   UNL     1      49.161   5.379  16.769  0.00  0.00    +0.000 C 
ATOM     15  C   UNL     1      48.517   6.318  17.810  0.00  0.00    +0.000 C 
BRANCH  13  16
ATOM     16  C   UNL     1      49.759   3.209  17.819  0.00  0.00    +0.000 C 
BRANCH  16  17
ATOM     17  C   UNL     1      50.336   1.965  17.110  0.00  0.00    +0.000 C 
BRANCH  17  18
ATOM     18  O   UNL     1      49.559   1.627  15.963  0.00  0.00    +0.000 OA
ATOM     19  H   UNL     1      50.144   1.079  15.404  0.00  0.00    +0.000 HD
ENDBRANCH  17  18
ENDBRANCH  16  17
ENDBRANCH  13  16
ENDBRANCH   9  10
ENDBRANCH   6   9
ENDBRANCH   2   3
BRANCH   2  20
ATOM     20  N   UNL     1      47.271   6.800  11.935  0.00  0.00    +0.000 N 
ATOM     21  C   UNL     1      45.908   6.914  11.830  0.00  0.00    +0.000 C 
ATOM     22  O   UNL     1      45.339   8.001  11.766  0.00  0.00    +0.000 OA
ATOM     23  H   UNL     1      47.639   5.919  12.293  0.00  0.00    +0.000 HD
BRANCH  21  24
ATOM     24  C   UNL     1      45.129   5.674  11.737  0.00  0.00    +0.000 A 
ATOM     25  C   UNL     1      44.397   5.231  12.830  0.00  0.00    +0.000 A 
ATOM     26  S   UNL     1      43.561   3.773  12.548  0.00  0.00    +0.000 S 
ATOM     27  C   UNL     1      44.189   3.657  10.972  0.00  0.00    +0.000 A 
ATOM     28  N   UNL     1      43.901   2.588  10.180  0.00  0.00    +0.000 NA
ATOM     29  C   UNL     1      44.482   2.610   9.027  0.00  0.00    +0.000 A 
ATOM     30  N   UNL     1      45.312   3.610   8.588  0.00  0.00    +0.000 N 
ATOM     31  C   UNL     1      45.584   4.735   9.331  0.00  0.00    +0.000 A 
ATOM     32  O   UNL     1      46.253   5.658   8.878  0.00  0.00    +0.000 OA
ATOM     33  C   UNL     1      44.991   4.738  10.652  0.00  0.00    +0.000 A 
ATOM     34  H   UNL     1      45.716   3.576   7.664  0.00  0.00    +0.000 HD
ENDBRANCH  21  24
ENDBRANCH   2  20
TORSDOF 8
ENDMDL
MODEL 3
REMARK VINA RESULT:    -6.091      4.245      9.333
REMARK INTER + INTRA:          -9.895
REMARK INTER:                  -9.054
REMARK INTRA:                  -0.842
REMARK UNBOUND:                -1.134
REMARK  Name = 
REMARK  9 active torsions:
REMARK  status: ('A' for Active; 'I' for Inactive)
REMARK    1  A    between atoms: C_1  and  C_2
REMARK    2  A    between atoms: C_2  and  N_3
REMARK    3  A    between atoms: C_2  and  C_16
REMARK    4  A    between atoms: C_4  and  C_6
REMARK    5  A    between atoms: C_19  and  C_20
REMARK    6  A    between atoms: C_20  and  N_21
REMARK    7  A    between atoms: N_24  and  C_25
REMARK    8  A    between atoms: C_25  and  C_26
REMARK    9  A    between atoms: C_26  and  O_27
REMARK                            x       y       z     vdW  Elec       q    Type
REMARK                         _______ _______ _______ _____ _____    ______ ____
ROOT
ATOM      1  C   UNL     1      48.000   5.633  19.594  0.00  0.00    +0.000 C 
ATOM      2  C   UNL     1      49.238   5.850  18.699  0.00  0.00    +0.000 C 
ENDROOT
BRANCH   2   3
ATOM      3  C   UNL     1      48.839   5.856  17.229  0.00  0.00    +0.000 A 
ATOM      4  C   UNL     1      49.185   6.951  16.420  0.00  0.00    +0.000 A 
ATOM      5  C   UNL     1      48.791   7.018  15.073  0.00  0.00    +0.000 A 
ATOM      6  C   UNL     1      48.021   6.003  14.490  0.00  0.00    +0.000 A 
ATOM      7  C   UNL     1      47.696   4.895  15.286  0.00  0.00    +0.000 A 
ATOM      8  C   UNL     1      48.103   4.819  16.633  0.00  0.00    +0.000 A 
BRANCH   6   9
ATOM      9  C   UNL     1      47.513   6.146  13.055  0.00  0.00    +0.000 C 
BRANCH   9  10
ATOM     10  N   UNL     1      46.087   6.505  12.918  0.00  0.00    +0.000 NA
ATOM     11  C   UNL     1      45.194   5.395  13.324  0.00  0.00    +0.000 C 
ATOM     12  C   UNL     1      45.009   4.225  12.312  0.00  0.00    +0.000 C 
ATOM     13  N   UNL     1      44.895   4.563  10.872  0.00  0.00    +0.000 NA
ATOM     14  C   UNL     1      45.717   5.737  10.534  0.00  0.00    +0.000 C 
ATOM     15  C   UNL     1      45.704   6.896  11.553  0.00  0.00    +0.000 C 
BRANCH  13  16
ATOM     16  C   UNL     1      43.485   4.650  10.437  0.00  0.00    +0.000 C 
BRANCH  16  17
ATOM     17  C   UNL     1      42.500   5.033  11.562  0.00  0.00    +0.000 C 
BRANCH  17  18
ATOM     18  O   UNL     1      42.256   6.438  11.569  0.00  0.00    +0.000 OA
ATOM     19  H   UNL     1      43.126   6.853  11.731  0.00  0.00    +0.000 HD
ENDBRANCH  17  18
ENDBRANCH  16  17
ENDBRANCH  13  16
ENDBRANCH   9  10
ENDBRANCH   6   9
ENDBRANCH   2   3
BRANCH   2  20
ATOM     20  N   UNL     1      50.282   4.874  18.971  0.00  0.00    +0.000 N 
ATOM     21  C   UNL     1      51.604   5.115  18.692  0.00  0.00    +0.000 C 
ATOM     22  O   UNL     1      52.004   6.202  18.280  0.00  0.00    +0.000 OA
ATOM     23  H   UNL     1      49.983   3.899  19.000  0.00  0.00    +0.000 HD
BRANCH  21  24
ATOM     24  C   UNL     1      52.562   4.036  18.959  0.00  0.00    +0.000 A 
ATOM     25  C   UNL     1      53.643   4.263  19.801  0.00  0.00    +0.000 A 
ATOM     26  S   UNL     1      54.657   2.905  19.991  0.00  0.00    +0.000 S 
ATOM     27  C   UNL     1      53.714   1.985  18.916  0.00  0.00    +0.000 A 
ATOM     28  N   UNL     1      54.066   0.712  18.589  0.00  0.00    +0.000 NA
ATOM     29  C   UNL     1      53.285   0.149  17.728  0.00  0.00    +0.000 A 
ATOM     30  N   UNL     1      52.175   0.738  17.177  0.00  0.00    +0.000 N 
ATOM     31  C   UNL     1      51.749   1.999  17.522  0.00  0.00    +0.000 A 
ATOM     32  O   UNL     1      50.702   2.466  17.086  0.00  0.00    +0.000 OA
ATOM     33  C   UNL     1      52.618   2.691  18.452  0.00  0.00    +0.000 A 
ATOM     34  H   UNL     1      51.594   0.232  16.526  0.00  0.00    +0.000 HD
ENDBRANCH  21  24
ENDBRANCH   2  20
TORSDOF 8
ENDMDL
MODEL 4
REMARK VINA RESULT:    -6.032      2.562      3.182
REMARK INTER + INTRA:          -9.811
REMARK INTER:                  -8.830
REMARK INTRA:                  -0.981
REMARK UNBOUND:                -1.134
REMARK  Name = 
REMARK  9 active torsions:
REMARK  status: ('A' for Active; 'I' for Inactive)
REMARK    1  A    between atoms: C_1  and  C_2
REMARK    2  A    between atoms: C_2  and  N_3
REMARK    3  A    between atoms: C_2  and  C_16
REMARK    4  A    between atoms: C_4  and  C_6
REMARK    5  A    between atoms: C_19  and  C_20
REMARK    6  A    between atoms: C_20  and  N_21
REMARK    7  A    between atoms: N_24  and  C_25
REMARK    8  A    between atoms: C_25  and  C_26
REMARK    9  A    between atoms: C_26  and  O_27
REMARK                            x       y       z     vdW  Elec       q    Type
REMARK                         _______ _______ _______ _____ _____    ______ ____
ROOT
ATOM      1  C   UNL     1      49.599   8.299  11.427  0.00  0.00    +0.000 C 
ATOM      2  C   UNL     1      48.324   7.911  12.206  0.00  0.00    +0.000 C 
ENDROOT
BRANCH   2   3
ATOM      3  C   UNL     1      48.661   7.595  13.657  0.00  0.00    +0.000 A 
ATOM      4  C   UNL     1      49.587   8.396  14.345  0.00  0.00    +0.000 A 
ATOM      5  C   UNL     1      49.964   8.106  15.668  0.00  0.00    +0.000 A 
ATOM      6  C   UNL     1      49.444   6.996  16.344  0.00  0.00    +0.000 A 
ATOM      7  C   UNL     1      48.498   6.208  15.671  0.00  0.00    +0.000 A 
ATOM      8  C   UNL     1      48.108   6.506  14.350  0.00  0.00    +0.000 A 
BRANCH   6   9
ATOM      9  C   UNL     1      49.946   6.638  17.744  0.00  0.00    +0.000 C 
BRANCH   9  10
ATOM     10  N   UNL     1      50.078   5.193  18.020  0.00  0.00    +0.000 NA
ATOM     11  C   UNL     1      50.118   4.907  19.473  0.00  0.00    +0.000 C 
ATOM     12  C   UNL     1      51.459   5.185  20.216  0.00  0.00    +0.000 C 
ATOM     13  N   UNL     1      52.723   4.836  19.523  0.00  0.00    +0.000 NA
ATOM     14  C   UNL     1      52.605   5.035  18.068  0.00  0.00    +0.000 C 
ATOM     15  C   UNL     1      51.277   4.585  17.423  0.00  0.00    +0.000 C 
BRANCH  13  16
ATOM     16  C   UNL     1      53.223   3.504  19.925  0.00  0.00    +0.000 C 
BRANCH  16  17
ATOM     17  C   UNL     1      53.694   2.625  18.748  0.00  0.00    +0.000 C 
BRANCH  17  18
ATOM     18  O   UNL     1      52.828   1.506  18.569  0.00  0.00    +0.000 OA
ATOM     19  H   UNL     1      51.928   1.880  18.504  0.00  0.00    +0.000 HD
ENDBRANCH  17  18
ENDBRANCH  16  17
ENDBRANCH  13  16
ENDBRANCH   9  10
ENDBRANCH   6   9
ENDBRANCH   2   3
BRANCH   2  20
ATOM     20  N   UNL     1      47.608   6.818  11.566  0.00  0.00    +0.000 N 
ATOM     21  C   UNL     1      46.244   6.820  11.418  0.00  0.00    +0.000 C 
ATOM     22  O   UNL     1      45.547   7.782  11.733  0.00  0.00    +0.000 OA
ATOM     23  H   UNL     1      48.073   5.910  11.587  0.00  0.00    +0.000 HD
BRANCH  21  24
ATOM     24  C   UNL     1      45.626   5.638  10.806  0.00  0.00    +0.000 A 
ATOM     25  C   UNL     1      45.724   5.437   9.436  0.00  0.00    +0.000 A 
ATOM     26  S   UNL     1      44.942   4.022   8.895  0.00  0.00    +0.000 S 
ATOM     27  C   UNL     1      44.403   3.657  10.466  0.00  0.00    +0.000 A 
ATOM     28  N   UNL     1      43.616   2.572  10.702  0.00  0.00    +0.000 NA
ATOM     29  C   UNL     1      43.245   2.443  11.932  0.00  0.00    +0.000 A 
ATOM     30  N   UNL     1      43.600   3.291  12.950  0.00  0.00    +0.000 N 
ATOM     31  C   UNL     1      44.440   4.366  12.768  0.00  0.00    +0.000 A 
ATOM     32  O   UNL     1      44.818   5.053  13.711  0.00  0.00    +0.000 OA
ATOM     33  C   UNL     1      44.849   4.580  11.395  0.00  0.00    +0.000 A 
ATOM     34  H   UNL     1      43.293   3.119  13.896  0.00  0.00    +0.000 HD
ENDBRANCH  21  24
ENDBRANCH   2  20
TORSDOF 8
ENDMDL
MODEL 5
REMARK VINA RESULT:    -5.951      4.746      9.585
REMARK INTER + INTRA:          -9.694
REMARK INTER:                  -8.894
REMARK INTRA:                  -0.800
REMARK UNBOUND:                -1.134
REMARK  Name = 
REMARK  9 active torsions:
REMARK  status: ('A' for Active; 'I' for Inactive)
REMARK    1  A    between atoms: C_1  and  C_2
REMARK    2  A    between atoms: C_2  and  N_3
REMARK    3  A    between atoms: C_2  and  C_16
REMARK    4  A    between atoms: C_4  and  C_6
REMARK    5  A    between atoms: C_19  and  C_20
REMARK    6  A    between atoms: C_20  and  N_21
REMARK    7  A    between atoms: N_24  and  C_25
REMARK    8  A    between atoms: C_25  and  C_26
REMARK    9  A    between atoms: C_26  and  O_27
REMARK                            x       y       z     vdW  Elec       q    Type
REMARK                         _______ _______ _______ _____ _____    ______ ____
ROOT
ATOM      1  C   UNL     1      46.432   3.553  13.047  0.00  0.00    +0.000 C 
ATOM      2  C   UNL     1      46.202   4.703  14.051  0.00  0.00    +0.000 C 
ENDROOT
BRANCH   2   3
ATOM      3  C   UNL     1      45.857   5.990  13.315  0.00  0.00    +0.000 A 
ATOM      4  C   UNL     1      46.642   7.137  13.517  0.00  0.00    +0.000 A 
ATOM      5  C   UNL     1      46.326   8.359  12.897  0.00  0.00    +0.000 A 
ATOM      6  C   UNL     1      45.204   8.482  12.067  0.00  0.00    +0.000 A 
ATOM      7  C   UNL     1      44.433   7.333  11.840  0.00  0.00    +0.000 A 
ATOM      8  C   UNL     1      44.757   6.104  12.449  0.00  0.00    +0.000 A 
BRANCH   6   9
ATOM      9  C   UNL     1      44.818   9.844  11.487  0.00  0.00    +0.000 C 
BRANCH   9  10
ATOM     10  N   UNL     1      43.886   9.805  10.342  0.00  0.00    +0.000 NA
ATOM     11  C   UNL     1      44.124  10.917   9.393  0.00  0.00    +0.000 C 
ATOM     12  C   UNL     1      43.589  12.323   9.798  0.00  0.00    +0.000 C 
ATOM     13  N   UNL     1      42.262  12.400  10.457  0.00  0.00    +0.000 NA
ATOM     14  C   UNL     1      42.022  11.222  11.308  0.00  0.00    +0.000 C 
ATOM     15  C   UNL     1      42.469   9.862  10.733  0.00  0.00    +0.000 C 
BRANCH  13  16
ATOM     16  C   UNL     1      41.183  12.692   9.490  0.00  0.00    +0.000 C 
BRANCH  16  17
ATOM     17  C   UNL     1      39.779  12.792  10.123  0.00  0.00    +0.000 C 
BRANCH  17  18
ATOM     18  O   UNL     1      38.931  11.749   9.649  0.00  0.00    +0.000 OA
ATOM     19  H   UNL     1      39.524  11.110   9.209  0.00  0.00    +0.000 HD
ENDBRANCH  17  18
ENDBRANCH  16  17
ENDBRANCH  13  16
ENDBRANCH   9  10
ENDBRANCH   6   9
ENDBRANCH   2   3
BRANCH   2  20
ATOM     20  N   UNL     1      47.337   4.879  14.945  0.00  0.00    +0.000 N 
ATOM     21  C   UNL     1      47.389   4.299  16.188  0.00  0.00    +0.000 C 
ATOM     22  O   UNL     1      46.526   3.523  16.591  0.00  0.00    +0.000 OA
ATOM     23  H   UNL     1      47.888   5.724  14.801  0.00  0.00    +0.000 HD
BRANCH  21  24
ATOM     24  C   UNL     1      48.560   4.591  17.023  0.00  0.00    +0.000 A 
ATOM     25  C   UNL     1      48.677   5.827  17.643  0.00  0.00    +0.000 A 
ATOM     26  S   UNL     1      50.100   5.996  18.566  0.00  0.00    +0.000 S 
ATOM     27  C   UNL     1      50.632   4.442  18.128  0.00  0.00    +0.000 A 
ATOM     28  N   UNL     1      51.837   3.968  18.549  0.00  0.00    +0.000 NA
ATOM     29  C   UNL     1      52.130   2.793  18.103  0.00  0.00    +0.000 A 
ATOM     30  N   UNL     1      51.323   2.041  17.287  0.00  0.00    +0.000 N 
ATOM     31  C   UNL     1      50.074   2.455  16.885  0.00  0.00    +0.000 A 
ATOM     32  O   UNL     1      49.334   1.725  16.234  0.00  0.00    +0.000 OA
ATOM     33  C   UNL     1      49.716   3.788  17.323  0.00  0.00    +0.000 A 
ATOM     34  H   UNL     1      51.604   1.117  16.993  0.00  0.00    +0.000 HD
ENDBRANCH  21  24
ENDBRANCH   2  20
TORSDOF 8
ENDMDL
MODEL 6
REMARK VINA RESULT:    -5.756      5.655      8.493
REMARK INTER + INTRA:          -9.414
REMARK INTER:                  -8.356
REMARK INTRA:                  -1.058
REMARK UNBOUND:                -1.134
REMARK  Name = 
REMARK  9 active torsions:
REMARK  status: ('A' for Active; 'I' for Inactive)
REMARK    1  A    between atoms: C_1  and  C_2
REMARK    2  A    between atoms: C_2  and  N_3
REMARK    3  A    between atoms: C_2  and  C_16
REMARK    4  A    between atoms: C_4  and  C_6
REMARK    5  A    between atoms: C_19  and  C_20
REMARK    6  A    between atoms: C_20  and  N_21
REMARK    7  A    between atoms: N_24  and  C_25
REMARK    8  A    between atoms: C_25  and  C_26
REMARK    9  A    between atoms: C_26  and  O_27
REMARK                            x       y       z     vdW  Elec       q    Type
REMARK                         _______ _______ _______ _____ _____    ______ ____
ROOT
ATOM      1  C   UNL     1      52.395   8.571  12.747  0.00  0.00    +0.000 C 
ATOM      2  C   UNL     1      51.440   8.983  11.607  0.00  0.00    +0.000 C 
ENDROOT
BRANCH   2   3
ATOM      3  C   UNL     1      50.003   8.621  11.958  0.00  0.00    +0.000 A 
ATOM      4  C   UNL     1      49.724   7.375  12.543  0.00  0.00    +0.000 A 
ATOM      5  C   UNL     1      48.407   6.982  12.835  0.00  0.00    +0.000 A 
ATOM      6  C   UNL     1      47.319   7.812  12.537  0.00  0.00    +0.000 A 
ATOM      7  C   UNL     1      47.593   9.069  11.979  0.00  0.00    +0.000 A 
ATOM      8  C   UNL     1      48.915   9.471  11.698  0.00  0.00    +0.000 A 
BRANCH   6   9
ATOM      9  C   UNL     1      45.888   7.323  12.765  0.00  0.00    +0.000 C 
BRANCH   9  10
ATOM     10  N   UNL     1      45.153   6.920  11.549  0.00  0.00    +0.000 NA
ATOM     11  C   UNL     1      43.744   6.571  11.841  0.00  0.00    +0.000 C 
ATOM     12  C   UNL     1      43.475   5.176  12.481  0.00  0.00    +0.000 C 
ATOM     13  N   UNL     1      44.267   4.022  11.991  0.00  0.00    +0.000 NA
ATOM     14  C   UNL     1      45.630   4.434  11.612  0.00  0.00    +0.000 C 
ATOM     15  C   UNL     1      45.752   5.771  10.852  0.00  0.00    +0.000 C 
BRANCH  13  16
ATOM     16  C   UNL     1      43.543   3.257  10.955  0.00  0.00    +0.000 C 
BRANCH  16  17
ATOM     17  C   UNL     1      44.458   2.605   9.896  0.00  0.00    +0.000 C 
BRANCH  17  18
ATOM     18  O   UNL     1      44.238   3.179   8.610  0.00  0.00    +0.000 OA
ATOM     19  H   UNL     1      45.115   3.488   8.308  0.00  0.00    +0.000 HD
ENDBRANCH  17  18
ENDBRANCH  16  17
ENDBRANCH  13  16
ENDBRANCH   9  10
ENDBRANCH   6   9
ENDBRANCH   2   3
BRANCH   2  20
ATOM     20  N   UNL     1      51.843   8.416  10.329  0.00  0.00    +0.000 N 
ATOM     21  C   UNL     1      52.807   8.993   9.541  0.00  0.00    +0.000 C 
ATOM     22  O   UNL     1      53.456   9.971   9.902  0.00  0.00    +0.000 OA
ATOM     23  H   UNL     1      51.148   7.833   9.863  0.00  0.00    +0.000 HD
BRANCH  21  24
ATOM     24  C   UNL     1      53.093   8.362   8.247  0.00  0.00    +0.000 A 
ATOM     25  C   UNL     1      53.048   9.117   7.084  0.00  0.00    +0.000 A 
ATOM     26  S   UNL     1      53.398   8.224   5.675  0.00  0.00    +0.000 S 
ATOM     27  C   UNL     1      53.571   6.786   6.566  0.00  0.00    +0.000 A 
ATOM     28  N   UNL     1      53.831   5.603   5.946  0.00  0.00    +0.000 NA
ATOM     29  C   UNL     1      53.892   4.588   6.741  0.00  0.00    +0.000 A 
ATOM     30  N   UNL     1      53.733   4.650   8.102  0.00  0.00    +0.000 N 
ATOM     31  C   UNL     1      53.528   5.831   8.778  0.00  0.00    +0.000 A 
ATOM     32  O   UNL     1      53.483   5.871  10.002  0.00  0.00    +0.000 OA
ATOM     33  C   UNL     1      53.407   6.995   7.924  0.00  0.00    +0.000 A 
ATOM     34  H   UNL     1      53.816   3.819   8.669  0.00  0.00    +0.000 HD
ENDBRANCH  21  24
ENDBRANCH   2  20
TORSDOF 8
ENDMDL
MODEL 7
REMARK VINA RESULT:    -5.725      3.829      7.699
REMARK INTER + INTRA:          -9.369
REMARK INTER:                  -9.105
REMARK INTRA:                  -0.264
REMARK UNBOUND:                -1.134
REMARK  Name = 
REMARK  9 active torsions:
REMARK  status: ('A' for Active; 'I' for Inactive)
REMARK    1  A    between atoms: C_1  and  C_2
REMARK    2  A    between atoms: C_2  and  N_3
REMARK    3  A    between atoms: C_2  and  C_16
REMARK    4  A    between atoms: C_4  and  C_6
REMARK    5  A    between atoms: C_19  and  C_20
REMARK    6  A    between atoms: C_20  and  N_21
REMARK    7  A    between atoms: N_24  and  C_25
REMARK    8  A    between atoms: C_25  and  C_26
REMARK    9  A    between atoms: C_26  and  O_27
REMARK                            x       y       z     vdW  Elec       q    Type
REMARK                         _______ _______ _______ _____ _____    ______ ____
ROOT
ATOM      1  C   UNL     1      48.275   9.010  15.678  0.00  0.00    +0.000 C 
ATOM      2  C   UNL     1      48.532   7.916  14.621  0.00  0.00    +0.000 C 
ENDROOT
BRANCH   2   3
ATOM      3  C   UNL     1      49.625   8.355  13.655  0.00  0.00    +0.000 A 
ATOM      4  C   UNL     1      49.274   8.843  12.386  0.00  0.00    +0.000 A 
ATOM      5  C   UNL     1      50.254   9.210  11.447  0.00  0.00    +0.000 A 
ATOM      6  C   UNL     1      51.619   9.085  11.735  0.00  0.00    +0.000 A 
ATOM      7  C   UNL     1      51.975   8.623  13.011  0.00  0.00    +0.000 A 
ATOM      8  C   UNL     1      50.993   8.269  13.960  0.00  0.00    +0.000 A 
BRANCH   6   9
ATOM      9  C   UNL     1      52.667   9.389  10.664  0.00  0.00    +0.000 C 
BRANCH   9  10
ATOM     10  N   UNL     1      53.626   8.300  10.387  0.00  0.00    +0.000 NA
ATOM     11  C   UNL     1      54.572   8.655   9.304  0.00  0.00    +0.000 C 
ATOM     12  C   UNL     1      54.040   8.576   7.841  0.00  0.00    +0.000 C 
ATOM     13  N   UNL     1      53.151   7.443   7.485  0.00  0.00    +0.000 NA
ATOM     14  C   UNL     1      52.303   7.053   8.624  0.00  0.00    +0.000 C 
ATOM     15  C   UNL     1      52.985   7.031  10.007  0.00  0.00    +0.000 C 
BRANCH  13  16
ATOM     16  C   UNL     1      53.900   6.330   6.863  0.00  0.00    +0.000 C 
BRANCH  16  17
ATOM     17  C   UNL     1      53.500   4.933   7.384  0.00  0.00    +0.000 C 
BRANCH  17  18
ATOM     18  O   UNL     1      52.981   4.126   6.329  0.00  0.00    +0.000 OA
ATOM     19  H   UNL     1      52.014   4.263   6.348  0.00  0.00    +0.000 HD
ENDBRANCH  17  18
ENDBRANCH  16  17
ENDBRANCH  13  16
ENDBRANCH   9  10
ENDBRANCH   6   9
ENDBRANCH   2   3
BRANCH   2  20
ATOM     20  N   UNL     1      47.313   7.538  13.922  0.00  0.00    +0.000 N 
ATOM     21  C   UNL     1      47.176   6.330  13.285  0.00  0.00    +0.000 C 
ATOM     22  O   UNL     1      48.036   5.454  13.339  0.00  0.00    +0.000 OA
ATOM     23  H   UNL     1      46.736   8.309  13.588  0.00  0.00    +0.000 HD
BRANCH  21  24
ATOM     24  C   UNL     1      45.920   6.080  12.567  0.00  0.00    +0.000 A 
ATOM     25  C   UNL     1      45.235   7.137  11.984  0.00  0.00    +0.000 A 
ATOM     26  S   UNL     1      43.795   6.667  11.201  0.00  0.00    +0.000 S 
ATOM     27  C   UNL     1      44.014   5.045  11.658  0.00  0.00    +0.000 A 
ATOM     28  N   UNL     1      43.089   4.096  11.343  0.00  0.00    +0.000 NA
ATOM     29  C   UNL     1      43.363   2.918  11.792  0.00  0.00    +0.000 A 
ATOM     30  N   UNL     1      44.483   2.596  12.515  0.00  0.00    +0.000 N 
ATOM     31  C   UNL     1      45.472   3.508  12.807  0.00  0.00    +0.000 A 
ATOM     32  O   UNL     1      46.507   3.175  13.373  0.00  0.00    +0.000 OA
ATOM     33  C   UNL     1      45.190   4.857  12.362  0.00  0.00    +0.000 A 
ATOM     34  H   UNL     1      44.648   1.647  12.817  0.00  0.00    +0.000 HD
ENDBRANCH  21  24
ENDBRANCH   2  20
TORSDOF 8
ENDMDL
MODEL 8
REMARK VINA RESULT:    -5.664      2.984      9.643
REMARK INTER + INTRA:          -9.282
REMARK INTER:                  -9.390
REMARK INTRA:                   0.108
REMARK UNBOUND:                -1.134
REMARK  Name = 
REMARK  9 active torsions:
REMARK  status: ('A' for Active; 'I' for Inactive)
REMARK    1  A    between atoms: C_1  and  C_2
REMARK    2  A    between atoms: C_2  and  N_3
REMARK    3  A    between atoms: C_2  and  C_16
REMARK    4  A    between atoms: C_4  and  C_6
REMARK    5  A    between atoms: C_19  and  C_20
REMARK    6  A    between atoms: C_20  and  N_21
REMARK    7  A    between atoms: N_24  and  C_25
REMARK    8  A    between atoms: C_25  and  C_26
REMARK    9  A    between atoms: C_26  and  O_27
REMARK                            x       y       z     vdW  Elec       q    Type
REMARK                         _______ _______ _______ _____ _____    ______ ____
ROOT
ATOM      1  C   UNL     1      47.318   9.131  12.979  0.00  0.00    +0.000 C 
ATOM      2  C   UNL     1      47.833   7.773  13.501  0.00  0.00    +0.000 C 
ENDROOT
BRANCH   2   3
ATOM      3  C   UNL     1      47.020   6.631  12.905  0.00  0.00    +0.000 A 
ATOM      4  C   UNL     1      47.146   5.338  13.439  0.00  0.00    +0.000 A 
ATOM      5  C   UNL     1      46.452   4.247  12.885  0.00  0.00    +0.000 A 
ATOM      6  C   UNL     1      45.624   4.406  11.767  0.00  0.00    +0.000 A 
ATOM      7  C   UNL     1      45.474   5.700  11.247  0.00  0.00    +0.000 A 
ATOM      8  C   UNL     1      46.157   6.797  11.810  0.00  0.00    +0.000 A 
BRANCH   6   9
ATOM      9  C   UNL     1      44.963   3.191  11.116  0.00  0.00    +0.000 C 
BRANCH   9  10
ATOM     10  N   UNL     1      44.396   3.421   9.771  0.00  0.00    +0.000 NA
ATOM     11  C   UNL     1      44.219   2.157   9.019  0.00  0.00    +0.000 C 
ATOM     12  C   UNL     1      45.493   1.522   8.387  0.00  0.00    +0.000 C 
ATOM     13  N   UNL     1      46.488   2.430   7.766  0.00  0.00    +0.000 NA
ATOM     14  C   UNL     1      46.556   3.715   8.482  0.00  0.00    +0.000 C 
ATOM     15  C   UNL     1      45.209   4.316   8.934  0.00  0.00    +0.000 C 
BRANCH  13  16
ATOM     16  C   UNL     1      46.291   2.546   6.305  0.00  0.00    +0.000 C 
BRANCH  16  17
ATOM     17  C   UNL     1      47.589   2.812   5.513  0.00  0.00    +0.000 C 
BRANCH  17  18
ATOM     18  O   UNL     1      48.500   1.724   5.647  0.00  0.00    +0.000 OA
ATOM     19  H   UNL     1      48.982   1.888   6.480  0.00  0.00    +0.000 HD
ENDBRANCH  17  18
ENDBRANCH  16  17
ENDBRANCH  13  16
ENDBRANCH   9  10
ENDBRANCH   6   9
ENDBRANCH   2   3
BRANCH   2  20
ATOM     20  N   UNL     1      47.852   7.722  14.955  0.00  0.00    +0.000 N 
ATOM     21  C   UNL     1      48.912   7.206  15.658  0.00  0.00    +0.000 C 
ATOM     22  O   UNL     1      49.949   6.838  15.112  0.00  0.00    +0.000 OA
ATOM     23  H   UNL     1      46.940   7.708  15.411  0.00  0.00    +0.000 HD
BRANCH  21  24
ATOM     24  C   UNL     1      48.797   7.157  17.120  0.00  0.00    +0.000 A 
ATOM     25  C   UNL     1      48.723   8.336  17.849  0.00  0.00    +0.000 A 
ATOM     26  S   UNL     1      48.602   8.093  19.532  0.00  0.00    +0.000 S 
ATOM     27  C   UNL     1      48.696   6.405  19.347  0.00  0.00    +0.000 A 
ATOM     28  N   UNL     1      48.699   5.580  20.430  0.00  0.00    +0.000 NA
ATOM     29  C   UNL     1      48.821   4.328  20.143  0.00  0.00    +0.000 A 
ATOM     30  N   UNL     1      48.924   3.822  18.872  0.00  0.00    +0.000 N 
ATOM     31  C   UNL     1      48.867   4.612  17.747  0.00  0.00    +0.000 A 
ATOM     32  O   UNL     1      48.867   4.126  16.621  0.00  0.00    +0.000 OA
ATOM     33  C   UNL     1      48.776   6.032  18.017  0.00  0.00    +0.000 A 
ATOM     34  H   UNL     1      48.993   2.827  18.717  0.00  0.00    +0.000 HD
ENDBRANCH  21  24
ENDBRANCH   2  20
TORSDOF 8
ENDMDL
MODEL 9
REMARK VINA RESULT:    -5.396      3.640      8.849
REMARK INTER + INTRA:          -8.895
REMARK INTER:                  -8.648
REMARK INTRA:                  -0.247
REMARK UNBOUND:                -1.134
REMARK  Name = 
REMARK  9 active torsions:
REMARK  status: ('A' for Active; 'I' for Inactive)
REMARK    1  A    between atoms: C_1  and  C_2
REMARK    2  A    between atoms: C_2  and  N_3
REMARK    3  A    between atoms: C_2  and  C_16
REMARK    4  A    between atoms: C_4  and  C_6
REMARK    5  A    between atoms: C_19  and  C_20
REMARK    6  A    between atoms: C_20  and  N_21
REMARK    7  A    between atoms: N_24  and  C_25
REMARK    8  A    between atoms: C_25  and  C_26
REMARK    9  A    between atoms: C_26  and  O_27
REMARK                            x       y       z     vdW  Elec       q    Type
REMARK                         _______ _______ _______ _____ _____    ______ ____
ROOT
ATOM      1  C   UNL     1      49.967   9.967  13.512  0.00  0.00    +0.000 C 
ATOM      2  C   UNL     1      49.984   8.469  13.143  0.00  0.00    +0.000 C 
ENDROOT
BRANCH   2   3
ATOM      3  C   UNL     1      48.567   7.911  13.117  0.00  0.00    +0.000 A 
ATOM      4  C   UNL     1      48.361   6.532  13.293  0.00  0.00    +0.000 A 
ATOM      5  C   UNL     1      47.074   5.971  13.225  0.00  0.00    +0.000 A 
ATOM      6  C   UNL     1      45.949   6.763  12.960  0.00  0.00    +0.000 A 
ATOM      7  C   UNL     1      46.147   8.144  12.810  0.00  0.00    +0.000 A 
ATOM      8  C   UNL     1      47.435   8.711  12.893  0.00  0.00    +0.000 A 
BRANCH   6   9
ATOM      9  C   UNL     1      44.574   6.119  12.785  0.00  0.00    +0.000 C 
BRANCH   9  10
ATOM     10  N   UNL     1      44.147   5.902  11.387  0.00  0.00    +0.000 NA
ATOM     11  C   UNL     1      43.015   4.952  11.293  0.00  0.00    +0.000 C 
ATOM     12  C   UNL     1      43.346   3.436  11.440  0.00  0.00    +0.000 C 
ATOM     13  N   UNL     1      44.583   2.929  10.798  0.00  0.00    +0.000 NA
ATOM     14  C   UNL     1      45.649   3.944  10.820  0.00  0.00    +0.000 C 
ATOM     15  C   UNL     1      45.218   5.394  10.516  0.00  0.00    +0.000 C 
BRANCH  13  16
ATOM     16  C   UNL     1      44.313   2.345   9.467  0.00  0.00    +0.000 C 
BRANCH  16  17
ATOM     17  C   UNL     1      45.534   2.336   8.523  0.00  0.00    +0.000 C 
BRANCH  17  18
ATOM     18  O   UNL     1      46.074   1.021   8.401  0.00  0.00    +0.000 OA
ATOM     19  H   UNL     1      45.766   0.538   9.193  0.00  0.00    +0.000 HD
ENDBRANCH  17  18
ENDBRANCH  16  17
ENDBRANCH  13  16
ENDBRANCH   9  10
ENDBRANCH   6   9
ENDBRANCH   2   3
BRANCH   2  20
ATOM     20  N   UNL     1      50.851   7.702  14.025  0.00  0.00    +0.000 N 
ATOM     21  C   UNL     1      50.766   7.785  15.392  0.00  0.00    +0.000 C 
ATOM     22  O   UNL     1      49.896   8.440  15.960  0.00  0.00    +0.000 OA
ATOM     23  H   UNL     1      51.748   7.420  13.630  0.00  0.00    +0.000 HD
BRANCH  21  24
ATOM     24  C   UNL     1      51.729   7.006  16.180  0.00  0.00    +0.000 A 
ATOM     25  C   UNL     1      53.043   7.439  16.291  0.00  0.00    +0.000 A 
ATOM     26  S   UNL     1      54.023   6.411  17.234  0.00  0.00    +0.000 S 
ATOM     27  C   UNL     1      52.737   5.328  17.484  0.00  0.00    +0.000 A 
ATOM     28  N   UNL     1      52.917   4.176  18.188  0.00  0.00    +0.000 NA
ATOM     29  C   UNL     1      51.867   3.429  18.260  0.00  0.00    +0.000 A 
ATOM     30  N   UNL     1      50.649   3.734  17.707  0.00  0.00    +0.000 N 
ATOM     31  C   UNL     1      50.406   4.912  17.039  0.00  0.00    +0.000 A 
ATOM     32  O   UNL     1      49.285   5.202  16.636  0.00  0.00    +0.000 OA
ATOM     33  C   UNL     1      51.566   5.766  16.892  0.00  0.00    +0.000 A 
ATOM     34  H   UNL     1      49.861   3.114  17.821  0.00  0.00    +0.000 HD
ENDBRANCH  21  24
ENDBRANCH   2  20
TORSDOF 8
ENDMDL
