MODEL 1
REMARK VINA RESULT:    -8.228      0.000      0.000
REMARK INTER + INTRA:         -11.815
REMARK INTER:                 -11.114
REMARK INTRA:                  -0.701
REMARK UNBOUND:                -0.701
REMARK  Name = 
REMARK  7 active torsions:
REMARK  status: ('A' for Active; 'I' for Inactive)
REMARK    1  A    between atoms: C_1  and  C_2
REMARK    2  A    between atoms: C_7  and  C_8
REMARK    3  A    between atoms: N_10  and  C_11
REMARK    4  A    between atoms: C_11  and  C_12
REMARK    5  A    between atoms: C_15  and  C_16
REMARK    6  A    between atoms: C_16  and  N_17
REMARK    7  A    between atoms: C_18  and  C_20
REMARK                            x       y       z     vdW  Elec       q    Type
REMARK                         _______ _______ _______ _____ _____    ______ ____
ROOT
ATOM      1  C   UNL     1      44.698   5.319  10.922  0.00  0.00    +0.000 A 
ATOM      2  C   UNL     1      45.850   5.927  10.404  0.00  0.00    +0.000 A 
ATOM      3  C   UNL     1      46.601   6.817  11.178  0.00  0.00    +0.000 A 
ATOM      4  C   UNL     1      46.220   7.121  12.491  0.00  0.00    +0.000 A 
ATOM      5  C   UNL     1      45.029   6.573  12.987  0.00  0.00    +0.000 A 
ATOM      6  C   UNL     1      44.283   5.671  12.215  0.00  0.00    +0.000 A 
ENDROOT
BRANCH   1   7
ATOM      7  C   UNL     1      43.997   4.233  10.139  0.00  0.00    +0.000 C 
BRANCH   7  10
ATOM      8  C   UNL     1      45.119   2.609   8.621  0.00  0.00    +0.000 C 
ATOM      9  O   UNL     1      44.738   1.632   9.256  0.00  0.00    +0.000 OA
ATOM     10  N   UNL     1      44.766   3.905   8.953  0.00  0.00    +0.000 N 
ATOM     11  H   UNL     1      45.199   4.677   8.467  0.00  0.00    +0.000 HD
BRANCH   8  18
ATOM     12  C   UNL     1      46.565   0.019   7.943  0.00  0.00    +0.000 C 
ATOM     13  C   UNL     1      46.780   1.301   7.186  0.00  0.00    +0.000 A 
ATOM     14  C   UNL     1      47.732   1.303   6.146  0.00  0.00    +0.000 A 
ATOM     15  C   UNL     1      47.941   2.438   5.363  0.00  0.00    +0.000 A 
ATOM     16  C   UNL     1      47.172   3.575   5.574  0.00  0.00    +0.000 A 
ATOM     17  C   UNL     1      46.228   3.595   6.603  0.00  0.00    +0.000 A 
ATOM     18  C   UNL     1      46.051   2.482   7.447  0.00  0.00    +0.000 A 
ENDBRANCH   8  18
ENDBRANCH   7  10
ENDBRANCH   1   7
BRANCH   4  19
ATOM     19  C   UNL     1      47.080   8.018  13.346  0.00  0.00    +0.000 C 
BRANCH  19  20
ATOM     20  N   UNL     1      47.486   7.372  14.567  0.00  0.00    +0.000 N 
ATOM     21  C   UNL     1      48.743   6.834  14.693  0.00  0.00    +0.000 C 
ATOM     22  O   UNL     1      49.580   6.921  13.799  0.00  0.00    +0.000 OA
ATOM     23  H   UNL     1      46.754   7.095  15.213  0.00  0.00    +0.000 HD
BRANCH  21  24
ATOM     24  C   UNL     1      49.067   6.200  15.978  0.00  0.00    +0.000 A 
ATOM     25  C   UNL     1      50.101   6.709  16.752  0.00  0.00    +0.000 A 
ATOM     26  S   UNL     1      50.323   5.886  18.229  0.00  0.00    +0.000 S 
ATOM     27  C   UNL     1      49.076   4.789  17.865  0.00  0.00    +0.000 A 
ATOM     28  N   UNL     1      48.763   3.780  18.723  0.00  0.00    +0.000 NA
ATOM     29  C   UNL     1      47.818   3.004  18.310  0.00  0.00    +0.000 A 
ATOM     30  N   UNL     1      47.151   3.150  17.120  0.00  0.00    +0.000 N 
ATOM     31  C   UNL     1      47.412   4.169  16.235  0.00  0.00    +0.000 A 
ATOM     32  O   UNL     1      46.771   4.299  15.200  0.00  0.00    +0.000 OA
ATOM     33  C   UNL     1      48.482   5.061  16.645  0.00  0.00    +0.000 A 
ATOM     34  H   UNL     1      46.416   2.512  16.860  0.00  0.00    +0.000 HD
ENDBRANCH  21  24
ENDBRANCH  19  20
ENDBRANCH   4  19
TORSDOF 6
ENDMDL
MODEL 2
REMARK VINA RESULT:    -7.997      0.880      1.569
REMARK INTER + INTRA:         -11.503
REMARK INTER:                 -11.458
REMARK INTRA:                  -0.045
REMARK UNBOUND:                -0.701
REMARK  Name = 
REMARK  7 active torsions:
REMARK  status: ('A' for Active; 'I' for Inactive)
REMARK    1  A    between atoms: C_1  and  C_2
REMARK    2  A    between atoms: C_7  and  C_8
REMARK    3  A    between atoms: N_10  and  C_11
REMARK    4  A    between atoms: C_11  and  C_12
REMARK    5  A    between atoms: C_15  and  C_16
REMARK    6  A    between atoms: C_16  and  N_17
REMARK    7  A    between atoms: C_18  and  C_20
REMARK                            x       y       z     vdW  Elec       q    Type
REMARK                         _______ _______ _______ _____ _____    ______ ____
ROOT
ATOM      1  C   UNL     1      44.387   5.859  11.338  0.00  0.00    +0.000 A 
ATOM      2  C   UNL     1      44.362   7.259  11.269  0.00  0.00    +0.000 A 
ATOM      3  C   UNL     1      45.248   8.029  12.029  0.00  0.00    +0.000 A 
ATOM      4  C   UNL     1      46.184   7.420  12.875  0.00  0.00    +0.000 A 
ATOM      5  C   UNL     1      46.163   6.024  13.001  0.00  0.00    +0.000 A 
ATOM      6  C   UNL     1      45.282   5.251  12.230  0.00  0.00    +0.000 A 
ENDROOT
BRANCH   1   7
ATOM      7  C   UNL     1      43.545   5.040  10.387  0.00  0.00    +0.000 C 
BRANCH   7  10
ATOM      8  C   UNL     1      44.581   2.967   9.475  0.00  0.00    +0.000 C 
ATOM      9  O   UNL     1      43.966   2.230  10.238  0.00  0.00    +0.000 OA
ATOM     10  N   UNL     1      44.401   4.339   9.448  0.00  0.00    +0.000 N 
ATOM     11  H   UNL     1      45.013   4.908   8.882  0.00  0.00    +0.000 HD
BRANCH   8  18
ATOM     12  C   UNL     1      46.393   4.793   7.852  0.00  0.00    +0.000 C 
ATOM     13  C   UNL     1      46.408   3.294   7.719  0.00  0.00    +0.000 A 
ATOM     14  C   UNL     1      47.271   2.724   6.763  0.00  0.00    +0.000 A 
ATOM     15  C   UNL     1      47.381   1.341   6.625  0.00  0.00    +0.000 A 
ATOM     16  C   UNL     1      46.665   0.503   7.471  0.00  0.00    +0.000 A 
ATOM     17  C   UNL     1      45.800   1.049   8.422  0.00  0.00    +0.000 A 
ATOM     18  C   UNL     1      45.626   2.442   8.529  0.00  0.00    +0.000 A 
ENDBRANCH   8  18
ENDBRANCH   7  10
ENDBRANCH   1   7
BRANCH   4  19
ATOM     19  C   UNL     1      47.189   8.254  13.628  0.00  0.00    +0.000 C 
BRANCH  19  20
ATOM     20  N   UNL     1      47.675   7.582  14.804  0.00  0.00    +0.000 N 
ATOM     21  C   UNL     1      48.919   7.001  14.819  0.00  0.00    +0.000 C 
ATOM     22  O   UNL     1      49.680   7.069  13.857  0.00  0.00    +0.000 OA
ATOM     23  H   UNL     1      46.991   7.323  15.508  0.00  0.00    +0.000 HD
BRANCH  21  24
ATOM     24  C   UNL     1      49.329   6.343  16.067  0.00  0.00    +0.000 A 
ATOM     25  C   UNL     1      50.419   6.832  16.774  0.00  0.00    +0.000 A 
ATOM     26  S   UNL     1      50.740   5.982  18.217  0.00  0.00    +0.000 S 
ATOM     27  C   UNL     1      49.461   4.899  17.925  0.00  0.00    +0.000 A 
ATOM     28  N   UNL     1      49.202   3.879  18.786  0.00  0.00    +0.000 NA
ATOM     29  C   UNL     1      48.224   3.116  18.429  0.00  0.00    +0.000 A 
ATOM     30  N   UNL     1      47.476   3.287  17.292  0.00  0.00    +0.000 N 
ATOM     31  C   UNL     1      47.681   4.319  16.407  0.00  0.00    +0.000 A 
ATOM     32  O   UNL     1      46.968   4.470  15.423  0.00  0.00    +0.000 OA
ATOM     33  C   UNL     1      48.784   5.196  16.755  0.00  0.00    +0.000 A 
ATOM     34  H   UNL     1      46.718   2.658  17.074  0.00  0.00    +0.000 HD
ENDBRANCH  21  24
ENDBRANCH  19  20
ENDBRANCH   4  19
TORSDOF 6
ENDMDL
MODEL 3
REMARK VINA RESULT:    -7.714      1.672      2.260
REMARK INTER + INTRA:         -11.121
REMARK INTER:                 -10.297
REMARK INTRA:                  -0.824
REMARK UNBOUND:                -0.701
REMARK  Name = 
REMARK  7 active torsions:
REMARK  status: ('A' for Active; 'I' for Inactive)
REMARK    1  A    between atoms: C_1  and  C_2
REMARK    2  A    between atoms: C_7  and  C_8
REMARK    3  A    between atoms: N_10  and  C_11
REMARK    4  A    between atoms: C_11  and  C_12
REMARK    5  A    between atoms: C_15  and  C_16
REMARK    6  A    between atoms: C_16  and  N_17
REMARK    7  A    between atoms: C_18  and  C_20
REMARK                            x       y       z     vdW  Elec       q    Type
REMARK                         _______ _______ _______ _____ _____    ______ ____
ROOT
ATOM      1  C   UNL     1      46.038   7.296  11.719  0.00  0.00    +0.000 A 
ATOM      2  C   UNL     1      47.357   6.853  11.547  0.00  0.00    +0.000 A 
ATOM      3  C   UNL     1      48.382   7.313  12.379  0.00  0.00    +0.000 A 
ATOM      4  C   UNL     1      48.114   8.226  13.407  0.00  0.00    +0.000 A 
ATOM      5  C   UNL     1      46.812   8.727  13.535  0.00  0.00    +0.000 A 
ATOM      6  C   UNL     1      45.781   8.257  12.708  0.00  0.00    +0.000 A 
ENDROOT
BRANCH   1   7
ATOM      7  C   UNL     1      44.917   6.662  10.927  0.00  0.00    +0.000 C 
BRANCH   7  10
ATOM      8  C   UNL     1      44.720   4.674   9.440  0.00  0.00    +0.000 C 
ATOM      9  O   UNL     1      43.524   4.525   9.669  0.00  0.00    +0.000 OA
ATOM     10  N   UNL     1      45.461   5.715   9.972  0.00  0.00    +0.000 N 
ATOM     11  H   UNL     1      46.462   5.725   9.845  0.00  0.00    +0.000 HD
BRANCH   8  18
ATOM     12  C   UNL     1      44.324   1.663   9.612  0.00  0.00    +0.000 C 
ATOM     13  C   UNL     1      45.367   2.305   8.737  0.00  0.00    +0.000 A 
ATOM     14  C   UNL     1      46.224   1.461   8.004  0.00  0.00    +0.000 A 
ATOM     15  C   UNL     1      47.175   1.985   7.127  0.00  0.00    +0.000 A 
ATOM     16  C   UNL     1      47.253   3.359   6.934  0.00  0.00    +0.000 A 
ATOM     17  C   UNL     1      46.415   4.211   7.656  0.00  0.00    +0.000 A 
ATOM     18  C   UNL     1      45.497   3.703   8.595  0.00  0.00    +0.000 A 
ENDBRANCH   8  18
ENDBRANCH   7  10
ENDBRANCH   1   7
BRANCH   4  19
ATOM     19  C   UNL     1      49.209   8.654  14.351  0.00  0.00    +0.000 C 
BRANCH  19  20
ATOM     20  N   UNL     1      49.286   7.803  15.510  0.00  0.00    +0.000 N 
ATOM     21  C   UNL     1      48.677   8.160  16.687  0.00  0.00    +0.000 C 
ATOM     22  O   UNL     1      48.011   9.187  16.789  0.00  0.00    +0.000 OA
ATOM     23  H   UNL     1      50.003   7.084  15.512  0.00  0.00    +0.000 HD
BRANCH  21  24
ATOM     24  C   UNL     1      48.806   7.224  17.811  0.00  0.00    +0.000 A 
ATOM     25  C   UNL     1      49.177   7.700  19.061  0.00  0.00    +0.000 A 
ATOM     26  S   UNL     1      49.244   6.494  20.265  0.00  0.00    +0.000 S 
ATOM     27  C   UNL     1      48.827   5.282  19.147  0.00  0.00    +0.000 A 
ATOM     28  N   UNL     1      48.738   3.980  19.531  0.00  0.00    +0.000 NA
ATOM     29  C   UNL     1      48.442   3.162  18.577  0.00  0.00    +0.000 A 
ATOM     30  N   UNL     1      48.218   3.530  17.275  0.00  0.00    +0.000 N 
ATOM     31  C   UNL     1      48.268   4.835  16.845  0.00  0.00    +0.000 A 
ATOM     32  O   UNL     1      48.020   5.137  15.685  0.00  0.00    +0.000 OA
ATOM     33  C   UNL     1      48.615   5.794  17.878  0.00  0.00    +0.000 A 
ATOM     34  H   UNL     1      47.983   2.841  16.578  0.00  0.00    +0.000 HD
ENDBRANCH  21  24
ENDBRANCH  19  20
ENDBRANCH   4  19
TORSDOF 6
ENDMDL
MODEL 4
REMARK VINA RESULT:    -7.497      3.367      9.044
REMARK INTER + INTRA:         -10.827
REMARK INTER:                  -9.879
REMARK INTRA:                  -0.948
REMARK UNBOUND:                -0.701
REMARK  Name = 
REMARK  7 active torsions:
REMARK  status: ('A' for Active; 'I' for Inactive)
REMARK    1  A    between atoms: C_1  and  C_2
REMARK    2  A    between atoms: C_7  and  C_8
REMARK    3  A    between atoms: N_10  and  C_11
REMARK    4  A    between atoms: C_11  and  C_12
REMARK    5  A    between atoms: C_15  and  C_16
REMARK    6  A    between atoms: C_16  and  N_17
REMARK    7  A    between atoms: C_18  and  C_20
REMARK                            x       y       z     vdW  Elec       q    Type
REMARK                         _______ _______ _______ _____ _____    ______ ____
ROOT
ATOM      1  C   UNL     1      50.573   7.344  15.769  0.00  0.00    +0.000 A 
ATOM      2  C   UNL     1      49.254   6.875  15.824  0.00  0.00    +0.000 A 
ATOM      3  C   UNL     1      48.393   7.026  14.732  0.00  0.00    +0.000 A 
ATOM      4  C   UNL     1      48.832   7.648  13.555  0.00  0.00    +0.000 A 
ATOM      5  C   UNL     1      50.127   8.183  13.524  0.00  0.00    +0.000 A 
ATOM      6  C   UNL     1      50.993   8.021  14.615  0.00  0.00    +0.000 A 
ENDROOT
BRANCH   1   7
ATOM      7  C   UNL     1      51.538   7.022  16.887  0.00  0.00    +0.000 C 
BRANCH   7  10
ATOM      8  C   UNL     1      51.440   4.747  17.896  0.00  0.00    +0.000 C 
ATOM      9  O   UNL     1      50.726   5.105  18.827  0.00  0.00    +0.000 OA
ATOM     10  N   UNL     1      51.841   5.603  16.885  0.00  0.00    +0.000 N 
ATOM     11  H   UNL     1      52.519   5.287  16.208  0.00  0.00    +0.000 HD
BRANCH   8  18
ATOM     12  C   UNL     1      49.739   2.380  17.023  0.00  0.00    +0.000 C 
ATOM     13  C   UNL     1      51.169   2.242  17.473  0.00  0.00    +0.000 A 
ATOM     14  C   UNL     1      51.720   0.947  17.533  0.00  0.00    +0.000 A 
ATOM     15  C   UNL     1      53.056   0.747  17.884  0.00  0.00    +0.000 A 
ATOM     16  C   UNL     1      53.874   1.841  18.136  0.00  0.00    +0.000 A 
ATOM     17  C   UNL     1      53.345   3.132  18.086  0.00  0.00    +0.000 A 
ATOM     18  C   UNL     1      51.984   3.348  17.801  0.00  0.00    +0.000 A 
ENDBRANCH   8  18
ENDBRANCH   7  10
ENDBRANCH   1   7
BRANCH   4  19
ATOM     19  C   UNL     1      47.924   7.733  12.354  0.00  0.00    +0.000 C 
BRANCH  19  20
ATOM     20  N   UNL     1      47.154   6.531  12.174  0.00  0.00    +0.000 N 
ATOM     21  C   UNL     1      45.848   6.588  11.753  0.00  0.00    +0.000 C 
ATOM     22  O   UNL     1      45.302   7.651  11.473  0.00  0.00    +0.000 OA
ATOM     23  H   UNL     1      47.505   5.684  12.609  0.00  0.00    +0.000 HD
BRANCH  21  24
ATOM     24  C   UNL     1      45.146   5.307  11.593  0.00  0.00    +0.000 A 
ATOM     25  C   UNL     1      44.471   4.756  12.673  0.00  0.00    +0.000 A 
ATOM     26  S   UNL     1      43.678   3.290  12.313  0.00  0.00    +0.000 S 
ATOM     27  C   UNL     1      44.249   3.315  10.711  0.00  0.00    +0.000 A 
ATOM     28  N   UNL     1      43.952   2.305   9.850  0.00  0.00    +0.000 NA
ATOM     29  C   UNL     1      44.473   2.435   8.676  0.00  0.00    +0.000 A 
ATOM     30  N   UNL     1      45.259   3.489   8.283  0.00  0.00    +0.000 N 
ATOM     31  C   UNL     1      45.563   4.545   9.108  0.00  0.00    +0.000 A 
ATOM     32  O   UNL     1      46.232   5.493   8.716  0.00  0.00    +0.000 OA
ATOM     33  C   UNL     1      45.015   4.438  10.448  0.00  0.00    +0.000 A 
ATOM     34  H   UNL     1      45.630   3.534   7.347  0.00  0.00    +0.000 HD
ENDBRANCH  21  24
ENDBRANCH  19  20
ENDBRANCH   4  19
TORSDOF 6
ENDMDL
MODEL 5
REMARK VINA RESULT:    -7.070      1.875      2.535
REMARK INTER + INTRA:         -10.251
REMARK INTER:                 -10.047
REMARK INTRA:                  -0.204
REMARK UNBOUND:                -0.701
REMARK  Name = 
REMARK  7 active torsions:
REMARK  status: ('A' for Active; 'I' for Inactive)
REMARK    1  A    between atoms: C_1  and  C_2
REMARK    2  A    between atoms: C_7  and  C_8
REMARK    3  A    between atoms: N_10  and  C_11
REMARK    4  A    between atoms: C_11  and  C_12
REMARK    5  A    between atoms: C_15  and  C_16
REMARK    6  A    between atoms: C_16  and  N_17
REMARK    7  A    between atoms: C_18  and  C_20
REMARK                            x       y       z     vdW  Elec       q    Type
REMARK                         _______ _______ _______ _____ _____    ______ ____
ROOT
ATOM      1  C   UNL     1      44.862   5.986  11.136  0.00  0.00    +0.000 A 
ATOM      2  C   UNL     1      46.196   6.147  10.739  0.00  0.00    +0.000 A 
ATOM      3  C   UNL     1      47.126   6.765  11.582  0.00  0.00    +0.000 A 
ATOM      4  C   UNL     1      46.745   7.235  12.845  0.00  0.00    +0.000 A 
ATOM      5  C   UNL     1      45.397   7.141  13.216  0.00  0.00    +0.000 A 
ATOM      6  C   UNL     1      44.467   6.512  12.375  0.00  0.00    +0.000 A 
ENDROOT
BRANCH   1   7
ATOM      7  C   UNL     1      43.914   5.167  10.290  0.00  0.00    +0.000 C 
BRANCH   7  10
ATOM      8  C   UNL     1      44.821   3.001   9.460  0.00  0.00    +0.000 C 
ATOM      9  O   UNL     1      44.267   2.345  10.335  0.00  0.00    +0.000 OA
ATOM     10  N   UNL     1      44.665   4.371   9.337  0.00  0.00    +0.000 N 
ATOM     11  H   UNL     1      45.232   4.877   8.673  0.00  0.00    +0.000 HD
BRANCH   8  18
ATOM     12  C   UNL     1      46.565   4.646   7.587  0.00  0.00    +0.000 C 
ATOM     13  C   UNL     1      46.509   3.142   7.548  0.00  0.00    +0.000 A 
ATOM     14  C   UNL     1      47.268   2.479   6.563  0.00  0.00    +0.000 A 
ATOM     15  C   UNL     1      47.311   1.086   6.504  0.00  0.00    +0.000 A 
ATOM     16  C   UNL     1      46.634   0.333   7.455  0.00  0.00    +0.000 A 
ATOM     17  C   UNL     1      45.873   0.972   8.436  0.00  0.00    +0.000 A 
ATOM     18  C   UNL     1      45.763   2.375   8.469  0.00  0.00    +0.000 A 
ENDBRANCH   8  18
ENDBRANCH   7  10
ENDBRANCH   1   7
BRANCH   4  19
ATOM     19  C   UNL     1      47.770   7.826  13.780  0.00  0.00    +0.000 C 
BRANCH  19  20
ATOM     20  N   UNL     1      47.746   7.195  15.074  0.00  0.00    +0.000 N 
ATOM     21  C   UNL     1      48.887   6.656  15.615  0.00  0.00    +0.000 C 
ATOM     22  O   UNL     1      49.973   6.728  15.046  0.00  0.00    +0.000 OA
ATOM     23  H   UNL     1      46.840   6.930  15.445  0.00  0.00    +0.000 HD
BRANCH  21  24
ATOM     24  C   UNL     1      48.764   6.040  16.943  0.00  0.00    +0.000 A 
ATOM     25  C   UNL     1      49.042   4.689  17.099  0.00  0.00    +0.000 A 
ATOM     26  S   UNL     1      48.889   4.137  18.705  0.00  0.00    +0.000 S 
ATOM     27  C   UNL     1      48.399   5.674  19.242  0.00  0.00    +0.000 A 
ATOM     28  N   UNL     1      48.075   5.887  20.546  0.00  0.00    +0.000 NA
ATOM     29  C   UNL     1      47.692   7.091  20.810  0.00  0.00    +0.000 A 
ATOM     30  N   UNL     1      47.611   8.104  19.890  0.00  0.00    +0.000 N 
ATOM     31  C   UNL     1      47.953   7.945  18.568  0.00  0.00    +0.000 A 
ATOM     32  O   UNL     1      47.911   8.880  17.778  0.00  0.00    +0.000 OA
ATOM     33  C   UNL     1      48.375   6.602  18.214  0.00  0.00    +0.000 A 
ATOM     34  H   UNL     1      47.310   9.026  20.163  0.00  0.00    +0.000 HD
ENDBRANCH  21  24
ENDBRANCH  19  20
ENDBRANCH   4  19
TORSDOF 6
ENDMDL
MODEL 6
REMARK VINA RESULT:    -6.446      1.585      1.997
REMARK INTER + INTRA:          -9.409
REMARK INTER:                  -9.055
REMARK INTRA:                  -0.353
REMARK UNBOUND:                -0.701
REMARK  Name = 
REMARK  7 active torsions:
REMARK  status: ('A' for Active; 'I' for Inactive)
REMARK    1  A    between atoms: C_1  and  C_2
REMARK    2  A    between atoms: C_7  and  C_8
REMARK    3  A    between atoms: N_10  and  C_11
REMARK    4  A    between atoms: C_11  and  C_12
REMARK    5  A    between atoms: C_15  and  C_16
REMARK    6  A    between atoms: C_16  and  N_17
REMARK    7  A    between atoms: C_18  and  C_20
REMARK                            x       y       z     vdW  Elec       q    Type
REMARK                         _______ _______ _______ _____ _____    ______ ____
ROOT
ATOM      1  C   UNL     1      44.555   5.325  11.133  0.00  0.00    +0.000 A 
ATOM      2  C   UNL     1      43.985   6.550  11.506  0.00  0.00    +0.000 A 
ATOM      3  C   UNL     1      44.751   7.535  12.137  0.00  0.00    +0.000 A 
ATOM      4  C   UNL     1      46.108   7.321  12.410  0.00  0.00    +0.000 A 
ATOM      5  C   UNL     1      46.663   6.071  12.105  0.00  0.00    +0.000 A 
ATOM      6  C   UNL     1      45.898   5.088  11.462  0.00  0.00    +0.000 A 
ENDROOT
BRANCH   1   7
ATOM      7  C   UNL     1      43.763   4.343  10.301  0.00  0.00    +0.000 C 
BRANCH   7  10
ATOM      8  C   UNL     1      45.075   2.796   8.857  0.00  0.00    +0.000 C 
ATOM      9  O   UNL     1      44.956   1.850   9.628  0.00  0.00    +0.000 OA
ATOM     10  N   UNL     1      44.488   4.029   9.085  0.00  0.00    +0.000 N 
ATOM     11  H   UNL     1      44.711   4.804   8.478  0.00  0.00    +0.000 HD
BRANCH   8  18
ATOM     12  C   UNL     1      46.526   0.254   8.028  0.00  0.00    +0.000 C 
ATOM     13  C   UNL     1      46.652   1.553   7.278  0.00  0.00    +0.000 A 
ATOM     14  C   UNL     1      47.522   1.594   6.170  0.00  0.00    +0.000 A 
ATOM     15  C   UNL     1      47.645   2.746   5.392  0.00  0.00    +0.000 A 
ATOM     16  C   UNL     1      46.866   3.860   5.681  0.00  0.00    +0.000 A 
ATOM     17  C   UNL     1      46.003   3.840   6.778  0.00  0.00    +0.000 A 
ATOM     18  C   UNL     1      45.917   2.711   7.614  0.00  0.00    +0.000 A 
ENDBRANCH   8  18
ENDBRANCH   7  10
ENDBRANCH   1   7
BRANCH   4  19
ATOM     19  C   UNL     1      46.946   8.419  13.016  0.00  0.00    +0.000 C 
BRANCH  19  20
ATOM     20  N   UNL     1      48.179   7.915  13.565  0.00  0.00    +0.000 N 
ATOM     21  C   UNL     1      48.566   8.240  14.841  0.00  0.00    +0.000 C 
ATOM     22  O   UNL     1      47.864   8.929  15.578  0.00  0.00    +0.000 OA
ATOM     23  H   UNL     1      48.861   7.545  12.911  0.00  0.00    +0.000 HD
BRANCH  21  24
ATOM     24  C   UNL     1      49.835   7.673  15.314  0.00  0.00    +0.000 A 
ATOM     25  C   UNL     1      51.034   8.230  14.891  0.00  0.00    +0.000 A 
ATOM     26  S   UNL     1      52.414   7.483  15.559  0.00  0.00    +0.000 S 
ATOM     27  C   UNL     1      51.459   6.355  16.401  0.00  0.00    +0.000 A 
ATOM     28  N   UNL     1      52.034   5.387  17.163  0.00  0.00    +0.000 NA
ATOM     29  C   UNL     1      51.195   4.581  17.723  0.00  0.00    +0.000 A 
ATOM     30  N   UNL     1      49.831   4.662  17.595  0.00  0.00    +0.000 N 
ATOM     31  C   UNL     1      49.204   5.639  16.860  0.00  0.00    +0.000 A 
ATOM     32  O   UNL     1      47.983   5.711  16.800  0.00  0.00    +0.000 OA
ATOM     33  C   UNL     1      50.105   6.561  16.194  0.00  0.00    +0.000 A 
ATOM     34  H   UNL     1      49.230   4.004  18.066  0.00  0.00    +0.000 HD
ENDBRANCH  21  24
ENDBRANCH  19  20
ENDBRANCH   4  19
TORSDOF 6
ENDMDL
MODEL 7
REMARK VINA RESULT:    -5.757     10.411     12.751
REMARK INTER + INTRA:          -8.477
REMARK INTER:                  -7.010
REMARK INTRA:                  -1.467
REMARK UNBOUND:                -0.701
REMARK  Name = 
REMARK  7 active torsions:
REMARK  status: ('A' for Active; 'I' for Inactive)
REMARK    1  A    between atoms: C_1  and  C_2
REMARK    2  A    between atoms: C_7  and  C_8
REMARK    3  A    between atoms: N_10  and  C_11
REMARK    4  A    between atoms: C_11  and  C_12
REMARK    5  A    between atoms: C_15  and  C_16
REMARK    6  A    between atoms: C_16  and  N_17
REMARK    7  A    between atoms: C_18  and  C_20
REMARK                            x       y       z     vdW  Elec       q    Type
REMARK                         _______ _______ _______ _____ _____    ______ ____
ROOT
ATOM      1  C   UNL     1      35.986   1.546  15.397  0.00  0.00    +0.000 A 
ATOM      2  C   UNL     1      35.884   0.182  15.701  0.00  0.00    +0.000 A 
ATOM      3  C   UNL     1      36.286  -0.790  14.779  0.00  0.00    +0.000 A 
ATOM      4  C   UNL     1      36.802  -0.422  13.530  0.00  0.00    +0.000 A 
ATOM      5  C   UNL     1      36.837   0.938  13.194  0.00  0.00    +0.000 A 
ATOM      6  C   UNL     1      36.445   1.913  14.123  0.00  0.00    +0.000 A 
ENDROOT
BRANCH   1   7
ATOM      7  C   UNL     1      35.711   2.582  16.463  0.00  0.00    +0.000 C 
BRANCH   7  10
ATOM      8  C   UNL     1      37.903   2.652  17.644  0.00  0.00    +0.000 C 
ATOM      9  O   UNL     1      38.467   3.238  16.726  0.00  0.00    +0.000 OA
ATOM     10  N   UNL     1      36.555   2.338  17.618  0.00  0.00    +0.000 N 
ATOM     11  H   UNL     1      36.168   1.757  18.346  0.00  0.00    +0.000 HD
BRANCH   8  18
ATOM     12  C   UNL     1      38.271  -0.295  18.303  0.00  0.00    +0.000 C 
ATOM     13  C   UNL     1      38.742   0.813  19.206  0.00  0.00    +0.000 A 
ATOM     14  C   UNL     1      39.338   0.457  20.432  0.00  0.00    +0.000 A 
ATOM     15  C   UNL     1      39.852   1.428  21.292  0.00  0.00    +0.000 A 
ATOM     16  C   UNL     1      39.820   2.767  20.921  0.00  0.00    +0.000 A 
ATOM     17  C   UNL     1      39.229   3.139  19.712  0.00  0.00    +0.000 A 
ATOM     18  C   UNL     1      38.645   2.180  18.863  0.00  0.00    +0.000 A 
ENDBRANCH   8  18
ENDBRANCH   7  10
ENDBRANCH   1   7
BRANCH   4  19
ATOM     19  C   UNL     1      37.308  -1.473  12.574  0.00  0.00    +0.000 C 
BRANCH  19  20
ATOM     20  N   UNL     1      38.216  -2.390  13.213  0.00  0.00    +0.000 N 
ATOM     21  C   UNL     1      39.452  -2.648  12.674  0.00  0.00    +0.000 C 
ATOM     22  O   UNL     1      39.850  -2.079  11.660  0.00  0.00    +0.000 OA
ATOM     23  H   UNL     1      37.827  -3.025  13.903  0.00  0.00    +0.000 HD
BRANCH  21  24
ATOM     24  C   UNL     1      40.309  -3.593  13.401  0.00  0.00    +0.000 A 
ATOM     25  C   UNL     1      40.684  -4.784  12.795  0.00  0.00    +0.000 A 
ATOM     26  S   UNL     1      41.709  -5.751  13.754  0.00  0.00    +0.000 S 
ATOM     27  C   UNL     1      41.649  -4.635  15.036  0.00  0.00    +0.000 A 
ATOM     28  N   UNL     1      42.305  -4.877  16.202  0.00  0.00    +0.000 NA
ATOM     29  C   UNL     1      42.152  -3.961  17.100  0.00  0.00    +0.000 A 
ATOM     30  N   UNL     1      41.408  -2.821  16.932  0.00  0.00    +0.000 N 
ATOM     31  C   UNL     1      40.751  -2.519  15.763  0.00  0.00    +0.000 A 
ATOM     32  O   UNL     1      40.130  -1.472  15.629  0.00  0.00    +0.000 OA
ATOM     33  C   UNL     1      40.878  -3.527  14.726  0.00  0.00    +0.000 A 
ATOM     34  H   UNL     1      41.334  -2.141  17.672  0.00  0.00    +0.000 HD
ENDBRANCH  21  24
ENDBRANCH  19  20
ENDBRANCH   4  19
TORSDOF 6
ENDMDL
MODEL 8
REMARK VINA RESULT:    -5.574     10.340     13.590
REMARK INTER + INTRA:          -8.230
REMARK INTER:                  -6.891
REMARK INTRA:                  -1.339
REMARK UNBOUND:                -0.701
REMARK  Name = 
REMARK  7 active torsions:
REMARK  status: ('A' for Active; 'I' for Inactive)
REMARK    1  A    between atoms: C_1  and  C_2
REMARK    2  A    between atoms: C_7  and  C_8
REMARK    3  A    between atoms: N_10  and  C_11
REMARK    4  A    between atoms: C_11  and  C_12
REMARK    5  A    between atoms: C_15  and  C_16
REMARK    6  A    between atoms: C_16  and  N_17
REMARK    7  A    between atoms: C_18  and  C_20
REMARK                            x       y       z     vdW  Elec       q    Type
REMARK                         _______ _______ _______ _____ _____    ______ ____
ROOT
ATOM      1  C   UNL     1      40.204  -2.472  17.666  0.00  0.00    +0.000 A 
ATOM      2  C   UNL     1      40.180  -1.652  16.529  0.00  0.00    +0.000 A 
ATOM      3  C   UNL     1      40.600  -2.137  15.286  0.00  0.00    +0.000 A 
ATOM      4  C   UNL     1      41.052  -3.456  15.148  0.00  0.00    +0.000 A 
ATOM      5  C   UNL     1      41.146  -4.255  16.295  0.00  0.00    +0.000 A 
ATOM      6  C   UNL     1      40.715  -3.772  17.539  0.00  0.00    +0.000 A 
ENDROOT
BRANCH   1   7
ATOM      7  C   UNL     1      39.589  -1.990  18.959  0.00  0.00    +0.000 C 
BRANCH   7  10
ATOM      8  C   UNL     1      38.053  -0.036  18.799  0.00  0.00    +0.000 C 
ATOM      9  O   UNL     1      37.042  -0.726  18.869  0.00  0.00    +0.000 OA
ATOM     10  N   UNL     1      39.330  -0.565  18.882  0.00  0.00    +0.000 N 
ATOM     11  H   UNL     1      40.125   0.030  18.705  0.00  0.00    +0.000 HD
BRANCH   8  18
ATOM     12  C   UNL     1      37.651   1.176  16.038  0.00  0.00    +0.000 C 
ATOM     13  C   UNL     1      37.885   2.005  17.272  0.00  0.00    +0.000 A 
ATOM     14  C   UNL     1      37.967   3.404  17.122  0.00  0.00    +0.000 A 
ATOM     15  C   UNL     1      38.124   4.239  18.229  0.00  0.00    +0.000 A 
ATOM     16  C   UNL     1      38.156   3.694  19.507  0.00  0.00    +0.000 A 
ATOM     17  C   UNL     1      38.081   2.310  19.674  0.00  0.00    +0.000 A 
ATOM     18  C   UNL     1      37.991   1.448  18.565  0.00  0.00    +0.000 A 
ENDBRANCH   8  18
ENDBRANCH   7  10
ENDBRANCH   1   7
BRANCH   4  19
ATOM     19  C   UNL     1      41.425  -3.995  13.790  0.00  0.00    +0.000 C 
BRANCH  19  20
ATOM     20  N   UNL     1      40.371  -3.808  12.827  0.00  0.00    +0.000 N 
ATOM     21  C   UNL     1      40.428  -2.788  11.910  0.00  0.00    +0.000 C 
ATOM     22  O   UNL     1      41.391  -2.028  11.843  0.00  0.00    +0.000 OA
ATOM     23  H   UNL     1      39.486  -4.270  13.012  0.00  0.00    +0.000 HD
BRANCH  21  24
ATOM     24  C   UNL     1      39.309  -2.682  10.966  0.00  0.00    +0.000 A 
ATOM     25  C   UNL     1      39.363  -3.365   9.758  0.00  0.00    +0.000 A 
ATOM     26  S   UNL     1      37.971  -3.169   8.794  0.00  0.00    +0.000 S 
ATOM     27  C   UNL     1      37.264  -2.124   9.935  0.00  0.00    +0.000 A 
ATOM     28  N   UNL     1      36.048  -1.560   9.704  0.00  0.00    +0.000 NA
ATOM     29  C   UNL     1      35.643  -0.766  10.638  0.00  0.00    +0.000 A 
ATOM     30  N   UNL     1      36.342  -0.491  11.786  0.00  0.00    +0.000 N 
ATOM     31  C   UNL     1      37.560  -1.057  12.076  0.00  0.00    +0.000 A 
ATOM     32  O   UNL     1      38.140  -0.825  13.129  0.00  0.00    +0.000 OA
ATOM     33  C   UNL     1      38.069  -1.946  11.047  0.00  0.00    +0.000 A 
ATOM     34  H   UNL     1      35.965   0.135  12.481  0.00  0.00    +0.000 HD
ENDBRANCH  21  24
ENDBRANCH  19  20
ENDBRANCH   4  19
TORSDOF 6
ENDMDL
MODEL 9
REMARK VINA RESULT:    -5.517     10.337     13.801
REMARK INTER + INTRA:          -8.153
REMARK INTER:                  -6.837
REMARK INTRA:                  -1.316
REMARK UNBOUND:                -0.701
REMARK  Name = 
REMARK  7 active torsions:
REMARK  status: ('A' for Active; 'I' for Inactive)
REMARK    1  A    between atoms: C_1  and  C_2
REMARK    2  A    between atoms: C_7  and  C_8
REMARK    3  A    between atoms: N_10  and  C_11
REMARK    4  A    between atoms: C_11  and  C_12
REMARK    5  A    between atoms: C_15  and  C_16
REMARK    6  A    between atoms: C_16  and  N_17
REMARK    7  A    between atoms: C_18  and  C_20
REMARK                            x       y       z     vdW  Elec       q    Type
REMARK                         _______ _______ _______ _____ _____    ______ ____
ROOT
ATOM      1  C   UNL     1      40.514  -2.601  18.917  0.00  0.00    +0.000 A 
ATOM      2  C   UNL     1      40.474  -2.104  17.607  0.00  0.00    +0.000 A 
ATOM      3  C   UNL     1      40.995  -2.847  16.542  0.00  0.00    +0.000 A 
ATOM      4  C   UNL     1      41.567  -4.107  16.761  0.00  0.00    +0.000 A 
ATOM      5  C   UNL     1      41.675  -4.574  18.077  0.00  0.00    +0.000 A 
ATOM      6  C   UNL     1      41.142  -3.834  19.143  0.00  0.00    +0.000 A 
ENDROOT
BRANCH   1   7
ATOM      7  C   UNL     1      39.796  -1.867  20.026  0.00  0.00    +0.000 C 
BRANCH   7  10
ATOM      8  C   UNL     1      38.281   0.001  19.382  0.00  0.00    +0.000 C 
ATOM      9  O   UNL     1      37.263  -0.660  19.559  0.00  0.00    +0.000 OA
ATOM     10  N   UNL     1      39.549  -0.493  19.631  0.00  0.00    +0.000 N 
ATOM     11  H   UNL     1      40.355   0.051  19.361  0.00  0.00    +0.000 HD
BRANCH   8  18
ATOM     12  C   UNL     1      38.048   0.584  16.405  0.00  0.00    +0.000 C 
ATOM     13  C   UNL     1      38.211   1.662  17.442  0.00  0.00    +0.000 A 
ATOM     14  C   UNL     1      38.306   2.996  16.999  0.00  0.00    +0.000 A 
ATOM     15  C   UNL     1      38.399   4.052  17.905  0.00  0.00    +0.000 A 
ATOM     16  C   UNL     1      38.352   3.797  19.270  0.00  0.00    +0.000 A 
ATOM     17  C   UNL     1      38.264   2.481  19.729  0.00  0.00    +0.000 A 
ATOM     18  C   UNL     1      38.238   1.399  18.829  0.00  0.00    +0.000 A 
ENDBRANCH   8  18
ENDBRANCH   7  10
ENDBRANCH   1   7
BRANCH   4  19
ATOM     19  C   UNL     1      42.052  -4.936  15.598  0.00  0.00    +0.000 C 
BRANCH  19  20
ATOM     20  N   UNL     1      41.163  -4.853  14.468  0.00  0.00    +0.000 N 
ATOM     21  C   UNL     1      41.467  -5.481  13.286  0.00  0.00    +0.000 C 
ATOM     22  O   UNL     1      42.475  -6.171  13.157  0.00  0.00    +0.000 OA
ATOM     23  H   UNL     1      40.461  -4.120  14.482  0.00  0.00    +0.000 HD
BRANCH  21  24
ATOM     24  C   UNL     1      40.495  -5.344  12.193  0.00  0.00    +0.000 A 
ATOM     25  C   UNL     1      40.033  -6.478  11.540  0.00  0.00    +0.000 A 
ATOM     26  S   UNL     1      38.883  -6.151  10.325  0.00  0.00    +0.000 S 
ATOM     27  C   UNL     1      38.997  -4.475  10.595  0.00  0.00    +0.000 A 
ATOM     28  N   UNL     1      38.275  -3.598   9.846  0.00  0.00    +0.000 NA
ATOM     29  C   UNL     1      38.480  -2.357  10.137  0.00  0.00    +0.000 A 
ATOM     30  N   UNL     1      39.335  -1.914  11.113  0.00  0.00    +0.000 N 
ATOM     31  C   UNL     1      40.064  -2.762  11.913  0.00  0.00    +0.000 A 
ATOM     32  O   UNL     1      40.786  -2.338  12.806  0.00  0.00    +0.000 OA
ATOM     33  C   UNL     1      39.883  -4.171  11.614  0.00  0.00    +0.000 A 
ATOM     34  H   UNL     1      39.444  -0.928  11.295  0.00  0.00    +0.000 HD
ENDBRANCH  21  24
ENDBRANCH  19  20
ENDBRANCH   4  19
TORSDOF 6
ENDMDL
