MODEL 1
REMARK VINA RESULT:    -7.528      0.000      0.000
REMARK INTER + INTRA:         -10.212
REMARK INTER:                  -9.289
REMARK INTRA:                  -0.924
REMARK UNBOUND:                -0.924
REMARK  Name = 
REMARK  4 active torsions:
REMARK  status: ('A' for Active; 'I' for Inactive)
REMARK    1  A    between atoms: C_7  and  N_8
REMARK    2  A    between atoms: N_8  and  C_9
REMARK    3  A    between atoms: C_9  and  C_10
REMARK    4  A    between atoms: C_14  and  N_15
REMARK                            x       y       z     vdW  Elec       q    Type
REMARK                         _______ _______ _______ _____ _____    ______ ____
ROOT
ATOM      1  C   UNL     1      46.196   6.236  12.594  0.00  0.00    +0.000 C 
ATOM      2  C   UNL     1      46.215   7.438  11.654  0.00  0.00    +0.000 C 
ATOM      3  C   UNL     1      45.462   7.518  12.936  0.00  0.00    +0.000 C 
ENDROOT
BRANCH   1   4
ATOM      4  C   UNL     1      45.340   5.038  12.169  0.00  0.00    +0.000 A 
ATOM      5  C   UNL     1      44.354   4.522  13.021  0.00  0.00    +0.000 A 
ATOM      6  C   UNL     1      43.489   3.520  12.589  0.00  0.00    +0.000 A 
ATOM      7  C   UNL     1      43.591   3.029  11.288  0.00  0.00    +0.000 A 
ATOM      8  C   UNL     1      44.574   3.489  10.400  0.00  0.00    +0.000 A 
ATOM      9  C   UNL     1      45.463   4.458  10.884  0.00  0.00    +0.000 A 
BRANCH   8  10
ATOM     10  N   UNL     1      44.621   3.001   9.101  0.00  0.00    +0.000 N 
ATOM     11  C   UNL     1      44.872   1.590   8.805  0.00  0.00    +0.000 C 
ATOM     12  C   UNL     1      46.270   1.379   8.224  0.00  0.00    +0.000 C 
ATOM     13  C   UNL     1      46.533   2.316   7.049  0.00  0.00    +0.000 C 
ATOM     14  C   UNL     1      46.295   3.765   7.463  0.00  0.00    +0.000 C 
ATOM     15  C   UNL     1      44.881   3.956   8.016  0.00  0.00    +0.000 C 
ENDBRANCH   8  10
ENDBRANCH   1   4
BRANCH   1  16
ATOM     16  N   UNL     1      47.512   5.865  13.168  0.00  0.00    +0.000 N 
ATOM     17  H   UNL     1      47.935   5.087  12.665  0.00  0.00    +0.000 HD
BRANCH  16  24
ATOM     18 CL   UNL     1      49.891   7.625  17.421  0.00  0.00    +0.000 Cl
ATOM     19  C   UNL     1      48.888   6.491  16.600  0.00  0.00    +0.000 A 
ATOM     20  C   UNL     1      48.423   5.372  17.283  0.00  0.00    +0.000 A 
ATOM     21  C   UNL     1      47.649   4.448  16.598  0.00  0.00    +0.000 A 
ATOM     22 CL   UNL     1      47.066   3.048  17.416  0.00  0.00    +0.000 Cl
ATOM     23  C   UNL     1      47.342   4.635  15.248  0.00  0.00    +0.000 A 
ATOM     24  C   UNL     1      47.782   5.775  14.555  0.00  0.00    +0.000 A 
ATOM     25  C   UNL     1      48.569   6.696  15.251  0.00  0.00    +0.000 A 
ENDBRANCH  16  24
ENDBRANCH   1  16
TORSDOF 4
ENDMDL
MODEL 2
REMARK VINA RESULT:    -7.527      3.390      4.883
REMARK INTER + INTRA:         -10.211
REMARK INTER:                  -9.319
REMARK INTRA:                  -0.892
REMARK UNBOUND:                -0.924
REMARK  Name = 
REMARK  4 active torsions:
REMARK  status: ('A' for Active; 'I' for Inactive)
REMARK    1  A    between atoms: C_7  and  N_8
REMARK    2  A    between atoms: N_8  and  C_9
REMARK    3  A    between atoms: C_9  and  C_10
REMARK    4  A    between atoms: C_14  and  N_15
REMARK                            x       y       z     vdW  Elec       q    Type
REMARK                         _______ _______ _______ _____ _____    ______ ____
ROOT
ATOM      1  C   UNL     1      45.921   6.627  12.369  0.00  0.00    +0.000 C 
ATOM      2  C   UNL     1      47.134   6.512  13.288  0.00  0.00    +0.000 C 
ATOM      3  C   UNL     1      47.332   6.800  11.841  0.00  0.00    +0.000 C 
ENDROOT
BRANCH   1   4
ATOM      4  C   UNL     1      45.201   5.323  12.008  0.00  0.00    +0.000 A 
ATOM      5  C   UNL     1      44.302   4.727  12.903  0.00  0.00    +0.000 A 
ATOM      6  C   UNL     1      43.550   3.617  12.529  0.00  0.00    +0.000 A 
ATOM      7  C   UNL     1      43.678   3.094  11.242  0.00  0.00    +0.000 A 
ATOM      8  C   UNL     1      44.580   3.632  10.313  0.00  0.00    +0.000 A 
ATOM      9  C   UNL     1      45.361   4.715  10.740  0.00  0.00    +0.000 A 
BRANCH   8  10
ATOM     10  N   UNL     1      44.653   3.106   9.030  0.00  0.00    +0.000 N 
ATOM     11  C   UNL     1      44.848   1.676   8.781  0.00  0.00    +0.000 C 
ATOM     12  C   UNL     1      46.255   1.384   8.263  0.00  0.00    +0.000 C 
ATOM     13  C   UNL     1      46.607   2.275   7.075  0.00  0.00    +0.000 C 
ATOM     14  C   UNL     1      46.423   3.744   7.441  0.00  0.00    +0.000 C 
ATOM     15  C   UNL     1      44.999   4.016   7.932  0.00  0.00    +0.000 C 
ENDBRANCH   8  10
ENDBRANCH   1   4
BRANCH   1  16
ATOM     16  N   UNL     1      45.010   7.757  12.666  0.00  0.00    +0.000 N 
ATOM     17  H   UNL     1      44.059   7.438  12.838  0.00  0.00    +0.000 HD
BRANCH  16  24
ATOM     18 CL   UNL     1      46.892  12.530  11.940  0.00  0.00    +0.000 Cl
ATOM     19  C   UNL     1      45.789  11.259  11.573  0.00  0.00    +0.000 A 
ATOM     20  C   UNL     1      44.775  11.482  10.646  0.00  0.00    +0.000 A 
ATOM     21  C   UNL     1      43.871  10.462  10.391  0.00  0.00    +0.000 A 
ATOM     22 CL   UNL     1      42.600  10.713   9.255  0.00  0.00    +0.000 Cl
ATOM     23  C   UNL     1      43.974   9.235  11.051  0.00  0.00    +0.000 A 
ATOM     24  C   UNL     1      45.010   8.988  11.966  0.00  0.00    +0.000 A 
ATOM     25  C   UNL     1      45.911  10.025  12.225  0.00  0.00    +0.000 A 
ENDBRANCH  16  24
ENDBRANCH   1  16
TORSDOF 4
ENDMDL
MODEL 3
REMARK VINA RESULT:    -7.479      0.167      1.841
REMARK INTER + INTRA:         -10.151
REMARK INTER:                  -9.176
REMARK INTRA:                  -0.975
REMARK UNBOUND:                -0.924
REMARK  Name = 
REMARK  4 active torsions:
REMARK  status: ('A' for Active; 'I' for Inactive)
REMARK    1  A    between atoms: C_7  and  N_8
REMARK    2  A    between atoms: N_8  and  C_9
REMARK    3  A    between atoms: C_9  and  C_10
REMARK    4  A    between atoms: C_14  and  N_15
REMARK                            x       y       z     vdW  Elec       q    Type
REMARK                         _______ _______ _______ _____ _____    ______ ____
ROOT
ATOM      1  C   UNL     1      46.143   6.189  12.511  0.00  0.00    +0.000 C 
ATOM      2  C   UNL     1      46.062   7.422  11.615  0.00  0.00    +0.000 C 
ATOM      3  C   UNL     1      45.380   7.428  12.939  0.00  0.00    +0.000 C 
ENDROOT
BRANCH   1   4
ATOM      4  C   UNL     1      45.309   4.973  12.091  0.00  0.00    +0.000 A 
ATOM      5  C   UNL     1      44.331   4.444  12.944  0.00  0.00    +0.000 A 
ATOM      6  C   UNL     1      43.486   3.424  12.517  0.00  0.00    +0.000 A 
ATOM      7  C   UNL     1      43.600   2.926  11.218  0.00  0.00    +0.000 A 
ATOM      8  C   UNL     1      44.576   3.399  10.330  0.00  0.00    +0.000 A 
ATOM      9  C   UNL     1      45.446   4.388  10.810  0.00  0.00    +0.000 A 
BRANCH   8  10
ATOM     10  N   UNL     1      44.635   2.904   9.034  0.00  0.00    +0.000 N 
ATOM     11  C   UNL     1      44.973   1.509   8.745  0.00  0.00    +0.000 C 
ATOM     12  C   UNL     1      46.373   1.385   8.144  0.00  0.00    +0.000 C 
ATOM     13  C   UNL     1      46.556   2.328   6.958  0.00  0.00    +0.000 C 
ATOM     14  C   UNL     1      46.231   3.761   7.365  0.00  0.00    +0.000 C 
ATOM     15  C   UNL     1      44.815   3.864   7.938  0.00  0.00    +0.000 C 
ENDBRANCH   8  10
ENDBRANCH   1   4
BRANCH   1  16
ATOM     16  N   UNL     1      47.502   5.851  12.997  0.00  0.00    +0.000 N 
ATOM     17  H   UNL     1      47.944   5.144  12.412  0.00  0.00    +0.000 HD
BRANCH  16  24
ATOM     18 CL   UNL     1      47.062   3.200  17.426  0.00  0.00    +0.000 Cl
ATOM     19  C   UNL     1      47.667   4.518  16.498  0.00  0.00    +0.000 A 
ATOM     20  C   UNL     1      48.412   5.511  17.127  0.00  0.00    +0.000 A 
ATOM     21  C   UNL     1      48.857   6.586  16.375  0.00  0.00    +0.000 A 
ATOM     22 CL   UNL     1      49.774   7.835  17.130  0.00  0.00    +0.000 Cl
ATOM     23  C   UNL     1      48.565   6.674  15.011  0.00  0.00    +0.000 A 
ATOM     24  C   UNL     1      47.839   5.664  14.359  0.00  0.00    +0.000 A 
ATOM     25  C   UNL     1      47.385   4.588  15.127  0.00  0.00    +0.000 A 
ENDBRANCH  16  24
ENDBRANCH   1  16
TORSDOF 4
ENDMDL
MODEL 4
REMARK VINA RESULT:    -7.020      2.708      3.802
REMARK INTER + INTRA:          -9.585
REMARK INTER:                  -8.482
REMARK INTRA:                  -1.103
REMARK UNBOUND:                -0.924
REMARK  Name = 
REMARK  4 active torsions:
REMARK  status: ('A' for Active; 'I' for Inactive)
REMARK    1  A    between atoms: C_7  and  N_8
REMARK    2  A    between atoms: N_8  and  C_9
REMARK    3  A    between atoms: C_9  and  C_10
REMARK    4  A    between atoms: C_14  and  N_15
REMARK                            x       y       z     vdW  Elec       q    Type
REMARK                         _______ _______ _______ _____ _____    ______ ____
ROOT
ATOM      1  C   UNL     1      46.433   5.027  13.664  0.00  0.00    +0.000 C 
ATOM      2  C   UNL     1      46.705   4.090  14.837  0.00  0.00    +0.000 C 
ATOM      3  C   UNL     1      47.549   4.002  13.612  0.00  0.00    +0.000 C 
ENDROOT
BRANCH   1   4
ATOM      4  C   UNL     1      45.185   4.738  12.822  0.00  0.00    +0.000 A 
ATOM      5  C   UNL     1      43.922   5.189  13.231  0.00  0.00    +0.000 A 
ATOM      6  C   UNL     1      42.810   5.042  12.408  0.00  0.00    +0.000 A 
ATOM      7  C   UNL     1      42.949   4.451  11.152  0.00  0.00    +0.000 A 
ATOM      8  C   UNL     1      44.182   3.959  10.700  0.00  0.00    +0.000 A 
ATOM      9  C   UNL     1      45.270   4.074  11.576  0.00  0.00    +0.000 A 
BRANCH   8  10
ATOM     10  N   UNL     1      44.288   3.410   9.429  0.00  0.00    +0.000 N 
ATOM     11  C   UNL     1      44.444   1.971   9.210  0.00  0.00    +0.000 C 
ATOM     12  C   UNL     1      45.861   1.624   8.752  0.00  0.00    +0.000 C 
ATOM     13  C   UNL     1      46.289   2.484   7.566  0.00  0.00    +0.000 C 
ATOM     14  C   UNL     1      46.140   3.964   7.902  0.00  0.00    +0.000 C 
ATOM     15  C   UNL     1      44.708   4.291   8.332  0.00  0.00    +0.000 C 
ENDBRANCH   8  10
ENDBRANCH   1   4
BRANCH   1  16
ATOM     16  N   UNL     1      46.652   6.466  13.945  0.00  0.00    +0.000 N 
ATOM     17  H   UNL     1      45.819   6.904  14.336  0.00  0.00    +0.000 HD
BRANCH  16  24
ATOM     18 CL   UNL     1      50.769   7.676  11.041  0.00  0.00    +0.000 Cl
ATOM     19  C   UNL     1      49.230   8.041  11.723  0.00  0.00    +0.000 A 
ATOM     20  C   UNL     1      48.676   9.302  11.523  0.00  0.00    +0.000 A 
ATOM     21  C   UNL     1      47.456   9.594  12.111  0.00  0.00    +0.000 A 
ATOM     22 CL   UNL     1      46.751  11.150  11.888  0.00  0.00    +0.000 Cl
ATOM     23  C   UNL     1      46.793   8.642  12.891  0.00  0.00    +0.000 A 
ATOM     24  C   UNL     1      47.327   7.356  13.075  0.00  0.00    +0.000 A 
ATOM     25  C   UNL     1      48.563   7.074  12.487  0.00  0.00    +0.000 A 
ENDBRANCH  16  24
ENDBRANCH   1  16
TORSDOF 4
ENDMDL
MODEL 5
REMARK VINA RESULT:    -6.941      1.667      2.670
REMARK INTER + INTRA:          -9.487
REMARK INTER:                  -8.551
REMARK INTRA:                  -0.936
REMARK UNBOUND:                -0.924
REMARK  Name = 
REMARK  4 active torsions:
REMARK  status: ('A' for Active; 'I' for Inactive)
REMARK    1  A    between atoms: C_7  and  N_8
REMARK    2  A    between atoms: N_8  and  C_9
REMARK    3  A    between atoms: C_9  and  C_10
REMARK    4  A    between atoms: C_14  and  N_15
REMARK                            x       y       z     vdW  Elec       q    Type
REMARK                         _______ _______ _______ _____ _____    ______ ____
ROOT
ATOM      1  C   UNL     1      45.853   6.754  11.854  0.00  0.00    +0.000 C 
ATOM      2  C   UNL     1      45.050   7.943  11.335  0.00  0.00    +0.000 C 
ATOM      3  C   UNL     1      45.118   7.684  12.800  0.00  0.00    +0.000 C 
ENDROOT
BRANCH   1   4
ATOM      4  C   UNL     1      45.247   5.362  11.639  0.00  0.00    +0.000 A 
ATOM      5  C   UNL     1      44.477   4.752  12.638  0.00  0.00    +0.000 A 
ATOM      6  C   UNL     1      43.819   3.549  12.400  0.00  0.00    +0.000 A 
ATOM      7  C   UNL     1      43.913   2.944  11.146  0.00  0.00    +0.000 A 
ATOM      8  C   UNL     1      44.689   3.495  10.117  0.00  0.00    +0.000 A 
ATOM      9  C   UNL     1      45.382   4.678  10.408  0.00  0.00    +0.000 A 
BRANCH   8  10
ATOM     10  N   UNL     1      44.729   2.882   8.872  0.00  0.00    +0.000 N 
ATOM     11  C   UNL     1      45.058   1.465   8.708  0.00  0.00    +0.000 C 
ATOM     12  C   UNL     1      46.449   1.280   8.102  0.00  0.00    +0.000 C 
ATOM     13  C   UNL     1      46.619   2.108   6.832  0.00  0.00    +0.000 C 
ATOM     14  C   UNL     1      46.304   3.574   7.109  0.00  0.00    +0.000 C 
ATOM     15  C   UNL     1      44.897   3.736   7.689  0.00  0.00    +0.000 C 
ENDBRANCH   8  10
ENDBRANCH   1   4
BRANCH   1  16
ATOM     16  N   UNL     1      47.313   6.822  11.604  0.00  0.00    +0.000 N 
ATOM     17  H   UNL     1      47.612   6.118  10.932  0.00  0.00    +0.000 HD
BRANCH  16  24
ATOM     18 CL   UNL     1      48.959   6.100  16.463  0.00  0.00    +0.000 Cl
ATOM     19  C   UNL     1      49.132   6.761  14.882  0.00  0.00    +0.000 A 
ATOM     20  C   UNL     1      50.201   7.610  14.611  0.00  0.00    +0.000 A 
ATOM     21  C   UNL     1      50.305   8.165  13.345  0.00  0.00    +0.000 A 
ATOM     22 CL   UNL     1      51.614   9.226  12.984  0.00  0.00    +0.000 Cl
ATOM     23  C   UNL     1      49.356   7.881  12.361  0.00  0.00    +0.000 A 
ATOM     24  C   UNL     1      48.289   7.003  12.614  0.00  0.00    +0.000 A 
ATOM     25  C   UNL     1      48.186   6.455  13.896  0.00  0.00    +0.000 A 
ENDBRANCH  16  24
ENDBRANCH   1  16
TORSDOF 4
ENDMDL
MODEL 6
REMARK VINA RESULT:    -6.442      3.658      7.163
REMARK INTER + INTRA:          -8.872
REMARK INTER:                  -7.811
REMARK INTRA:                  -1.062
REMARK UNBOUND:                -0.924
REMARK  Name = 
REMARK  4 active torsions:
REMARK  status: ('A' for Active; 'I' for Inactive)
REMARK    1  A    between atoms: C_7  and  N_8
REMARK    2  A    between atoms: N_8  and  C_9
REMARK    3  A    between atoms: C_9  and  C_10
REMARK    4  A    between atoms: C_14  and  N_15
REMARK                            x       y       z     vdW  Elec       q    Type
REMARK                         _______ _______ _______ _____ _____    ______ ____
ROOT
ATOM      1  C   UNL     1      44.160   4.255  11.005  0.00  0.00    +0.000 C 
ATOM      2  C   UNL     1      42.755   4.725  11.368  0.00  0.00    +0.000 C 
ATOM      3  C   UNL     1      43.565   5.509  10.394  0.00  0.00    +0.000 C 
ENDROOT
BRANCH   1   4
ATOM      4  C   UNL     1      45.251   4.452  12.065  0.00  0.00    +0.000 A 
ATOM      5  C   UNL     1      45.778   3.357  12.765  0.00  0.00    +0.000 A 
ATOM      6  C   UNL     1      46.855   3.514  13.632  0.00  0.00    +0.000 A 
ATOM      7  C   UNL     1      47.432   4.773  13.800  0.00  0.00    +0.000 A 
ATOM      8  C   UNL     1      46.931   5.908  13.147  0.00  0.00    +0.000 A 
ATOM      9  C   UNL     1      45.812   5.724  12.323  0.00  0.00    +0.000 A 
BRANCH   8  10
ATOM     10  N   UNL     1      47.555   7.138  13.312  0.00  0.00    +0.000 N 
ATOM     11  C   UNL     1      46.803   8.392  13.384  0.00  0.00    +0.000 C 
ATOM     12  C   UNL     1      46.980   9.224  12.113  0.00  0.00    +0.000 C 
ATOM     13  C   UNL     1      48.455   9.402  11.765  0.00  0.00    +0.000 C 
ATOM     14  C   UNL     1      49.143   8.046  11.663  0.00  0.00    +0.000 C 
ATOM     15  C   UNL     1      48.975   7.243  12.955  0.00  0.00    +0.000 C 
ENDBRANCH   8  10
ENDBRANCH   1   4
BRANCH   1  16
ATOM     16  N   UNL     1      44.227   2.951  10.305  0.00  0.00    +0.000 N 
ATOM     17  H   UNL     1      44.168   2.171  10.958  0.00  0.00    +0.000 HD
BRANCH  16  24
ATOM     18 CL   UNL     1      46.917   4.433   6.133  0.00  0.00    +0.000 Cl
ATOM     19  C   UNL     1      46.385   3.237   7.252  0.00  0.00    +0.000 A 
ATOM     20  C   UNL     1      46.735   1.906   7.046  0.00  0.00    +0.000 A 
ATOM     21  C   UNL     1      46.266   0.950   7.933  0.00  0.00    +0.000 A 
ATOM     22 CL   UNL     1      46.678  -0.707   7.698  0.00  0.00    +0.000 Cl
ATOM     23  C   UNL     1      45.457   1.313   9.012  0.00  0.00    +0.000 A 
ATOM     24  C   UNL     1      45.120   2.656   9.247  0.00  0.00    +0.000 A 
ATOM     25  C   UNL     1      45.589   3.612   8.342  0.00  0.00    +0.000 A 
ENDBRANCH  16  24
ENDBRANCH   1  16
TORSDOF 4
ENDMDL
MODEL 7
REMARK VINA RESULT:    -6.358      3.468      5.072
REMARK INTER + INTRA:          -8.768
REMARK INTER:                  -7.974
REMARK INTRA:                  -0.794
REMARK UNBOUND:                -0.924
REMARK  Name = 
REMARK  4 active torsions:
REMARK  status: ('A' for Active; 'I' for Inactive)
REMARK    1  A    between atoms: C_7  and  N_8
REMARK    2  A    between atoms: N_8  and  C_9
REMARK    3  A    between atoms: C_9  and  C_10
REMARK    4  A    between atoms: C_14  and  N_15
REMARK                            x       y       z     vdW  Elec       q    Type
REMARK                         _______ _______ _______ _____ _____    ______ ____
ROOT
ATOM      1  C   UNL     1      47.684   7.620  13.467  0.00  0.00    +0.000 C 
ATOM      2  C   UNL     1      48.858   7.684  14.440  0.00  0.00    +0.000 C 
ATOM      3  C   UNL     1      49.100   7.866  12.982  0.00  0.00    +0.000 C 
ENDROOT
BRANCH   1   4
ATOM      4  C   UNL     1      47.088   6.235  13.192  0.00  0.00    +0.000 A 
ATOM      5  C   UNL     1      47.185   5.210  14.142  0.00  0.00    +0.000 A 
ATOM      6  C   UNL     1      46.535   3.994  13.952  0.00  0.00    +0.000 A 
ATOM      7  C   UNL     1      45.763   3.792  12.808  0.00  0.00    +0.000 A 
ATOM      8  C   UNL     1      45.650   4.772  11.811  0.00  0.00    +0.000 A 
ATOM      9  C   UNL     1      46.361   5.963  12.009  0.00  0.00    +0.000 A 
BRANCH   8  10
ATOM     10  N   UNL     1      44.843   4.547  10.704  0.00  0.00    +0.000 N 
ATOM     11  C   UNL     1      44.016   3.347  10.569  0.00  0.00    +0.000 C 
ATOM     12  C   UNL     1      44.581   2.392   9.518  0.00  0.00    +0.000 C 
ATOM     13  C   UNL     1      44.851   3.112   8.200  0.00  0.00    +0.000 C 
ATOM     14  C   UNL     1      45.758   4.316   8.429  0.00  0.00    +0.000 C 
ATOM     15  C   UNL     1      45.159   5.270   9.465  0.00  0.00    +0.000 C 
ENDBRANCH   8  10
ENDBRANCH   1   4
BRANCH   1  16
ATOM     16  N   UNL     1      46.673   8.692  13.628  0.00  0.00    +0.000 N 
ATOM     17  H   UNL     1      45.907   8.398  14.232  0.00  0.00    +0.000 HD
BRANCH  16  24
ATOM     18 CL   UNL     1      47.277  12.711  10.415  0.00  0.00    +0.000 Cl
ATOM     19  C   UNL     1      46.361  11.398  11.052  0.00  0.00    +0.000 A 
ATOM     20  C   UNL     1      45.056  11.200  10.612  0.00  0.00    +0.000 A 
ATOM     21  C   UNL     1      44.318  10.164  11.163  0.00  0.00    +0.000 A 
ATOM     22 CL   UNL     1      42.697   9.900  10.643  0.00  0.00    +0.000 Cl
ATOM     23  C   UNL     1      44.872   9.335  12.142  0.00  0.00    +0.000 A 
ATOM     24  C   UNL     1      46.198   9.508  12.573  0.00  0.00    +0.000 A 
ATOM     25  C   UNL     1      46.931  10.561  12.019  0.00  0.00    +0.000 A 
ENDBRANCH  16  24
ENDBRANCH   1  16
TORSDOF 4
ENDMDL
MODEL 8
REMARK VINA RESULT:    -6.315      2.196      3.767
REMARK INTER + INTRA:          -8.716
REMARK INTER:                  -7.539
REMARK INTRA:                  -1.177
REMARK UNBOUND:                -0.924
REMARK  Name = 
REMARK  4 active torsions:
REMARK  status: ('A' for Active; 'I' for Inactive)
REMARK    1  A    between atoms: C_7  and  N_8
REMARK    2  A    between atoms: N_8  and  C_9
REMARK    3  A    between atoms: C_9  and  C_10
REMARK    4  A    between atoms: C_14  and  N_15
REMARK                            x       y       z     vdW  Elec       q    Type
REMARK                         _______ _______ _______ _____ _____    ______ ____
ROOT
ATOM      1  C   UNL     1      49.043   7.945  14.075  0.00  0.00    +0.000 C 
ATOM      2  C   UNL     1      50.102   8.435  13.093  0.00  0.00    +0.000 C 
ATOM      3  C   UNL     1      49.549   9.374  14.109  0.00  0.00    +0.000 C 
ENDROOT
BRANCH   1   4
ATOM      4  C   UNL     1      47.632   7.722  13.517  0.00  0.00    +0.000 A 
ATOM      5  C   UNL     1      46.726   8.786  13.410  0.00  0.00    +0.000 A 
ATOM      6  C   UNL     1      45.494   8.615  12.786  0.00  0.00    +0.000 A 
ATOM      7  C   UNL     1      45.156   7.375  12.245  0.00  0.00    +0.000 A 
ATOM      8  C   UNL     1      46.011   6.268  12.346  0.00  0.00    +0.000 A 
ATOM      9  C   UNL     1      47.220   6.460  13.028  0.00  0.00    +0.000 A 
BRANCH   8  10
ATOM     10  N   UNL     1      45.655   5.059  11.764  0.00  0.00    +0.000 N 
ATOM     11  C   UNL     1      45.056   4.979  10.431  0.00  0.00    +0.000 C 
ATOM     12  C   UNL     1      43.572   4.618  10.504  0.00  0.00    +0.000 C 
ATOM     13  C   UNL     1      43.342   3.378  11.363  0.00  0.00    +0.000 C 
ATOM     14  C   UNL     1      43.955   3.571  12.746  0.00  0.00    +0.000 C 
ATOM     15  C   UNL     1      45.445   3.905  12.648  0.00  0.00    +0.000 C 
ENDBRANCH   8  10
ENDBRANCH   1   4
BRANCH   1  16
ATOM     16  N   UNL     1      49.494   6.891  15.015  0.00  0.00    +0.000 N 
ATOM     17  H   UNL     1      49.829   6.066  14.520  0.00  0.00    +0.000 HD
BRANCH  16  24
ATOM     18 CL   UNL     1      47.956   7.948  19.848  0.00  0.00    +0.000 Cl
ATOM     19  C   UNL     1      48.072   6.902  18.485  0.00  0.00    +0.000 A 
ATOM     20  C   UNL     1      47.586   5.602  18.579  0.00  0.00    +0.000 A 
ATOM     21  C   UNL     1      47.722   4.760  17.487  0.00  0.00    +0.000 A 
ATOM     22 CL   UNL     1      47.137   3.142  17.578  0.00  0.00    +0.000 Cl
ATOM     23  C   UNL     1      48.336   5.205  16.313  0.00  0.00    +0.000 A 
ATOM     24  C   UNL     1      48.804   6.525  16.196  0.00  0.00    +0.000 A 
ATOM     25  C   UNL     1      48.672   7.364  17.306  0.00  0.00    +0.000 A 
ENDBRANCH  16  24
ENDBRANCH   1  16
TORSDOF 4
ENDMDL
MODEL 9
REMARK VINA RESULT:    -5.997      2.367      4.396
REMARK INTER + INTRA:          -8.323
REMARK INTER:                  -7.108
REMARK INTRA:                  -1.215
REMARK UNBOUND:                -0.924
REMARK  Name = 
REMARK  4 active torsions:
REMARK  status: ('A' for Active; 'I' for Inactive)
REMARK    1  A    between atoms: C_7  and  N_8
REMARK    2  A    between atoms: N_8  and  C_9
REMARK    3  A    between atoms: C_9  and  C_10
REMARK    4  A    between atoms: C_14  and  N_15
REMARK                            x       y       z     vdW  Elec       q    Type
REMARK                         _______ _______ _______ _____ _____    ______ ____
ROOT
ATOM      1  C   UNL     1      49.576   8.076  12.748  0.00  0.00    +0.000 C 
ATOM      2  C   UNL     1      50.310   7.949  11.417  0.00  0.00    +0.000 C 
ATOM      3  C   UNL     1      50.063   9.299  11.995  0.00  0.00    +0.000 C 
ENDROOT
BRANCH   1   4
ATOM      4  C   UNL     1      48.066   7.809  12.734  0.00  0.00    +0.000 A 
ATOM      5  C   UNL     1      47.152   8.841  12.985  0.00  0.00    +0.000 A 
ATOM      6  C   UNL     1      45.782   8.632  12.846  0.00  0.00    +0.000 A 
ATOM      7  C   UNL     1      45.309   7.385  12.438  0.00  0.00    +0.000 A 
ATOM      8  C   UNL     1      46.174   6.309  12.199  0.00  0.00    +0.000 A 
ATOM      9  C   UNL     1      47.542   6.538  12.401  0.00  0.00    +0.000 A 
BRANCH   8  10
ATOM     10  N   UNL     1      45.667   5.093  11.761  0.00  0.00    +0.000 N 
ATOM     11  C   UNL     1      45.078   4.925  10.431  0.00  0.00    +0.000 C 
ATOM     12  C   UNL     1      43.559   4.773  10.506  0.00  0.00    +0.000 C 
ATOM     13  C   UNL     1      43.157   3.691  11.505  0.00  0.00    +0.000 C 
ATOM     14  C   UNL     1      43.774   3.974  12.870  0.00  0.00    +0.000 C 
ATOM     15  C   UNL     1      45.297   4.096  12.773  0.00  0.00    +0.000 C 
ENDBRANCH   8  10
ENDBRANCH   1   4
BRANCH   1  16
ATOM     16  N   UNL     1      50.281   7.494  13.914  0.00  0.00    +0.000 N 
ATOM     17  H   UNL     1      50.652   6.569  13.705  0.00  0.00    +0.000 HD
BRANCH  16  24
ATOM     18 CL   UNL     1      48.045   5.257  18.018  0.00  0.00    +0.000 Cl
ATOM     19  C   UNL     1      48.727   6.618  17.213  0.00  0.00    +0.000 A 
ATOM     20  C   UNL     1      48.703   7.862  17.836  0.00  0.00    +0.000 A 
ATOM     21  C   UNL     1      49.220   8.956  17.159  0.00  0.00    +0.000 A 
ATOM     22 CL   UNL     1      49.196  10.509  17.903  0.00  0.00    +0.000 Cl
ATOM     23  C   UNL     1      49.753   8.814  15.875  0.00  0.00    +0.000 A 
ATOM     24  C   UNL     1      49.809   7.559  15.247  0.00  0.00    +0.000 A 
ATOM     25  C   UNL     1      49.277   6.463  15.934  0.00  0.00    +0.000 A 
ENDBRANCH  16  24
ENDBRANCH   1  16
TORSDOF 4
ENDMDL
