MODEL 1
REMARK VINA RESULT:    -8.829      0.000      0.000
REMARK INTER + INTRA:         -14.301
REMARK INTER:                 -13.217
REMARK INTRA:                  -1.084
REMARK UNBOUND:                -1.084
REMARK  Name = 
REMARK  9 active torsions:
REMARK  status: ('A' for Active; 'I' for Inactive)
REMARK    1  A    between atoms: N_1  and  C_2
REMARK    2  A    between atoms: C_2  and  C_3
REMARK    3  A    between atoms: C_3  and  N_4
REMARK    4  A    between atoms: C_3  and  C_12
REMARK    5  A    between atoms: N_4  and  C_5
REMARK    6  A    between atoms: C_5  and  C_6
REMARK    7  A    between atoms: C_15  and  C_16
REMARK    8  A    between atoms: C_16  and  N_17
REMARK    9  A    between atoms: C_18  and  C_20
REMARK                            x       y       z     vdW  Elec       q    Type
REMARK                         _______ _______ _______ _____ _____    ______ ____
ROOT
ATOM      1  C   UNL     1      45.168   4.690  11.875  0.00  0.00    +0.000 A 
ATOM      2  C   UNL     1      45.735   5.846  11.303  0.00  0.00    +0.000 A 
ATOM      3  C   UNL     1      46.765   6.540  11.943  0.00  0.00    +0.000 A 
ATOM      4  C   UNL     1      47.305   6.050  13.133  0.00  0.00    +0.000 A 
ATOM      5  C   UNL     1      46.783   4.870  13.675  0.00  0.00    +0.000 A 
ATOM      6  C   UNL     1      45.713   4.213  13.073  0.00  0.00    +0.000 A 
ENDROOT
BRANCH   1   7
ATOM      7  C   UNL     1      43.920   4.071  11.246  0.00  0.00    +0.000 C 
BRANCH   7   8
ATOM      8  N   UNL     1      44.104   3.792   9.804  0.00  0.00    +0.000 NA
ATOM      9  H   UNL     1      44.744   4.477   9.408  0.00  0.00    +0.000 HD
BRANCH   8  10
ATOM     10  C   UNL     1      44.599   2.448   9.520  0.00  0.00    +0.000 C 
BRANCH  10  11
ATOM     11  C   UNL     1      45.611   2.431   8.402  0.00  0.00    +0.000 A 
ATOM     12  C   UNL     1      46.321   1.256   8.106  0.00  0.00    +0.000 A 
ATOM     13  C   UNL     1      47.237   1.229   7.053  0.00  0.00    +0.000 A 
ATOM     14  C   UNL     1      47.447   2.371   6.287  0.00  0.00    +0.000 A 
ATOM     15  C   UNL     1      46.743   3.541   6.567  0.00  0.00    +0.000 A 
ATOM     16  C   UNL     1      45.826   3.572   7.619  0.00  0.00    +0.000 A 
ENDBRANCH  10  11
ENDBRANCH   8  10
ENDBRANCH   7   8
BRANCH   7  17
ATOM     17  C   UNL     1      42.650   4.966  11.478  0.00  0.00    +0.000 C 
BRANCH  17  18
ATOM     18  N   UNL     1      42.469   5.470  12.846  0.00  0.00    +0.000 NA
ATOM     19  H   UNL     1      43.062   4.937  13.480  0.00  0.00    +0.000 HD
ATOM     20  H   UNL     1      41.507   5.322  13.140  0.00  0.00    +0.000 HD
ENDBRANCH  17  18
ENDBRANCH   7  17
ENDBRANCH   1   7
BRANCH   4  21
ATOM     21  C   UNL     1      48.387   6.793  13.869  0.00  0.00    +0.000 C 
BRANCH  21  22
ATOM     22  N   UNL     1      48.131   6.878  15.287  0.00  0.00    +0.000 N 
ATOM     23  C   UNL     1      49.067   6.530  16.228  0.00  0.00    +0.000 C 
ATOM     24  O   UNL     1      50.173   6.092  15.922  0.00  0.00    +0.000 OA
ATOM     25  H   UNL     1      47.197   7.152  15.575  0.00  0.00    +0.000 HD
BRANCH  23  26
ATOM     26  C   UNL     1      48.725   6.764  17.636  0.00  0.00    +0.000 A 
ATOM     27  C   UNL     1      48.422   8.057  18.043  0.00  0.00    +0.000 A 
ATOM     28  S   UNL     1      48.003   8.182  19.689  0.00  0.00    +0.000 S 
ATOM     29  C   UNL     1      48.257   6.518  19.933  0.00  0.00    +0.000 A 
ATOM     30  N   UNL     1      48.094   5.966  21.160  0.00  0.00    +0.000 NA
ATOM     31  C   UNL     1      48.341   4.700  21.214  0.00  0.00    +0.000 A 
ATOM     32  N   UNL     1      48.729   3.936  20.146  0.00  0.00    +0.000 N 
ATOM     33  C   UNL     1      48.862   4.441  18.873  0.00  0.00    +0.000 A 
ATOM     34  O   UNL     1      49.129   3.711  17.921  0.00  0.00    +0.000 OA
ATOM     35  C   UNL     1      48.627   5.869  18.766  0.00  0.00    +0.000 A 
ATOM     36  H   UNL     1      48.893   2.944  20.255  0.00  0.00    +0.000 HD
ENDBRANCH  23  26
ENDBRANCH  21  22
ENDBRANCH   4  21
TORSDOF 9
ENDMDL
MODEL 2
REMARK VINA RESULT:    -8.361      1.380      1.994
REMARK INTER + INTRA:         -13.599
REMARK INTER:                 -12.395
REMARK INTRA:                  -1.204
REMARK UNBOUND:                -1.084
REMARK  Name = 
REMARK  9 active torsions:
REMARK  status: ('A' for Active; 'I' for Inactive)
REMARK    1  A    between atoms: N_1  and  C_2
REMARK    2  A    between atoms: C_2  and  C_3
REMARK    3  A    between atoms: C_3  and  N_4
REMARK    4  A    between atoms: C_3  and  C_12
REMARK    5  A    between atoms: N_4  and  C_5
REMARK    6  A    between atoms: C_5  and  C_6
REMARK    7  A    between atoms: C_15  and  C_16
REMARK    8  A    between atoms: C_16  and  N_17
REMARK    9  A    between atoms: C_18  and  C_20
REMARK                            x       y       z     vdW  Elec       q    Type
REMARK                         _______ _______ _______ _____ _____    ______ ____
ROOT
ATOM      1  C   UNL     1      45.355   4.500  12.126  0.00  0.00    +0.000 A 
ATOM      2  C   UNL     1      45.785   5.782  11.728  0.00  0.00    +0.000 A 
ATOM      3  C   UNL     1      46.746   6.483  12.461  0.00  0.00    +0.000 A 
ATOM      4  C   UNL     1      47.355   5.887  13.567  0.00  0.00    +0.000 A 
ATOM      5  C   UNL     1      46.971   4.592  13.931  0.00  0.00    +0.000 A 
ATOM      6  C   UNL     1      45.968   3.916  13.241  0.00  0.00    +0.000 A 
ENDROOT
BRANCH   1   7
ATOM      7  C   UNL     1      44.170   3.848  11.414  0.00  0.00    +0.000 C 
BRANCH   7   8
ATOM      8  N   UNL     1      44.603   2.832  10.429  0.00  0.00    +0.000 NA
ATOM      9  H   UNL     1      44.075   1.975  10.575  0.00  0.00    +0.000 HD
BRANCH   8  10
ATOM     10  C   UNL     1      44.460   3.259   9.039  0.00  0.00    +0.000 C 
BRANCH  10  11
ATOM     11  C   UNL     1      45.567   2.732   8.159  0.00  0.00    +0.000 A 
ATOM     12  C   UNL     1      46.051   1.426   8.336  0.00  0.00    +0.000 A 
ATOM     13  C   UNL     1      47.055   0.925   7.505  0.00  0.00    +0.000 A 
ATOM     14  C   UNL     1      47.577   1.722   6.491  0.00  0.00    +0.000 A 
ATOM     15  C   UNL     1      47.099   3.017   6.301  0.00  0.00    +0.000 A 
ATOM     16  C   UNL     1      46.095   3.521   7.131  0.00  0.00    +0.000 A 
ENDBRANCH  10  11
ENDBRANCH   8  10
ENDBRANCH   7   8
BRANCH   7  17
ATOM     17  C   UNL     1      43.242   4.918  10.734  0.00  0.00    +0.000 C 
BRANCH  17  18
ATOM     18  N   UNL     1      42.084   5.351  11.526  0.00  0.00    +0.000 NA
ATOM     19  H   UNL     1      41.368   5.717  10.900  0.00  0.00    +0.000 HD
ATOM     20  H   UNL     1      42.357   6.110  12.145  0.00  0.00    +0.000 HD
ENDBRANCH  17  18
ENDBRANCH   7  17
ENDBRANCH   1   7
BRANCH   4  21
ATOM     21  C   UNL     1      48.364   6.629  14.402  0.00  0.00    +0.000 C 
BRANCH  21  22
ATOM     22  N   UNL     1      48.169   6.418  15.817  0.00  0.00    +0.000 N 
ATOM     23  C   UNL     1      49.196   6.079  16.661  0.00  0.00    +0.000 C 
ATOM     24  O   UNL     1      50.343   5.899  16.259  0.00  0.00    +0.000 OA
ATOM     25  H   UNL     1      47.218   6.472  16.167  0.00  0.00    +0.000 HD
BRANCH  23  26
ATOM     26  C   UNL     1      48.891   6.001  18.094  0.00  0.00    +0.000 A 
ATOM     27  C   UNL     1      49.140   4.811  18.765  0.00  0.00    +0.000 A 
ATOM     28  S   UNL     1      48.782   4.869  20.429  0.00  0.00    +0.000 S 
ATOM     29  C   UNL     1      48.234   6.474  20.307  0.00  0.00    +0.000 A 
ATOM     30  N   UNL     1      47.752   7.126  21.394  0.00  0.00    +0.000 NA
ATOM     31  C   UNL     1      47.347   8.329  21.161  0.00  0.00    +0.000 A 
ATOM     32  N   UNL     1      47.389   8.941  19.937  0.00  0.00    +0.000 N 
ATOM     33  C   UNL     1      47.913   8.339  18.816  0.00  0.00    +0.000 A 
ATOM     34  O   UNL     1      48.014   8.947  17.752  0.00  0.00    +0.000 OA
ATOM     35  C   UNL     1      48.351   6.971  19.019  0.00  0.00    +0.000 A 
ATOM     36  H   UNL     1      47.068   9.894  19.827  0.00  0.00    +0.000 HD
ENDBRANCH  23  26
ENDBRANCH  21  22
ENDBRANCH   4  21
TORSDOF 9
ENDMDL
MODEL 3
REMARK VINA RESULT:    -8.086      2.275      2.777
REMARK INTER + INTRA:         -13.188
REMARK INTER:                 -11.786
REMARK INTRA:                  -1.402
REMARK UNBOUND:                -1.084
REMARK  Name = 
REMARK  9 active torsions:
REMARK  status: ('A' for Active; 'I' for Inactive)
REMARK    1  A    between atoms: N_1  and  C_2
REMARK    2  A    between atoms: C_2  and  C_3
REMARK    3  A    between atoms: C_3  and  N_4
REMARK    4  A    between atoms: C_3  and  C_12
REMARK    5  A    between atoms: N_4  and  C_5
REMARK    6  A    between atoms: C_5  and  C_6
REMARK    7  A    between atoms: C_15  and  C_16
REMARK    8  A    between atoms: C_16  and  N_17
REMARK    9  A    between atoms: C_18  and  C_20
REMARK                            x       y       z     vdW  Elec       q    Type
REMARK                         _______ _______ _______ _____ _____    ______ ____
ROOT
ATOM      1  C   UNL     1      45.654   4.792  12.444  0.00  0.00    +0.000 A 
ATOM      2  C   UNL     1      45.716   5.912  11.592  0.00  0.00    +0.000 A 
ATOM      3  C   UNL     1      46.751   6.844  11.696  0.00  0.00    +0.000 A 
ATOM      4  C   UNL     1      47.790   6.638  12.605  0.00  0.00    +0.000 A 
ATOM      5  C   UNL     1      47.761   5.496  13.414  0.00  0.00    +0.000 A 
ATOM      6  C   UNL     1      46.697   4.599  13.357  0.00  0.00    +0.000 A 
ENDROOT
BRANCH   1   7
ATOM      7  C   UNL     1      44.410   3.902  12.430  0.00  0.00    +0.000 C 
BRANCH   7   8
ATOM      8  N   UNL     1      44.541   2.780  11.475  0.00  0.00    +0.000 NA
ATOM      9  H   UNL     1      44.067   1.961  11.851  0.00  0.00    +0.000 HD
BRANCH   8  10
ATOM     10  C   UNL     1      44.015   3.073  10.143  0.00  0.00    +0.000 C 
BRANCH  10  11
ATOM     11  C   UNL     1      45.068   2.948   9.069  0.00  0.00    +0.000 A 
ATOM     12  C   UNL     1      45.540   4.092   8.405  0.00  0.00    +0.000 A 
ATOM     13  C   UNL     1      46.535   3.983   7.431  0.00  0.00    +0.000 A 
ATOM     14  C   UNL     1      47.065   2.736   7.118  0.00  0.00    +0.000 A 
ATOM     15  C   UNL     1      46.609   1.595   7.776  0.00  0.00    +0.000 A 
ATOM     16  C   UNL     1      45.615   1.700   8.751  0.00  0.00    +0.000 A 
ENDBRANCH  10  11
ENDBRANCH   8  10
ENDBRANCH   7   8
BRANCH   7  17
ATOM     17  C   UNL     1      43.108   4.731  12.137  0.00  0.00    +0.000 C 
BRANCH  17  18
ATOM     18  N   UNL     1      42.564   5.484  13.274  0.00  0.00    +0.000 NA
ATOM     19  H   UNL     1      43.326   5.956  13.758  0.00  0.00    +0.000 HD
ATOM     20  H   UNL     1      42.140   4.842  13.938  0.00  0.00    +0.000 HD
ENDBRANCH  17  18
ENDBRANCH   7  17
ENDBRANCH   1   7
BRANCH   4  21
ATOM     21  C   UNL     1      48.899   7.641  12.772  0.00  0.00    +0.000 C 
BRANCH  21  22
ATOM     22  N   UNL     1      49.924   7.184  13.680  0.00  0.00    +0.000 N 
ATOM     23  C   UNL     1      50.282   7.888  14.803  0.00  0.00    +0.000 C 
ATOM     24  O   UNL     1      49.775   8.970  15.088  0.00  0.00    +0.000 OA
ATOM     25  H   UNL     1      50.425   6.339  13.428  0.00  0.00    +0.000 HD
BRANCH  23  26
ATOM     26  C   UNL     1      51.258   7.265  15.704  0.00  0.00    +0.000 A 
ATOM     27  C   UNL     1      52.545   7.784  15.755  0.00  0.00    +0.000 A 
ATOM     28  S   UNL     1      53.564   6.996  16.870  0.00  0.00    +0.000 S 
ATOM     29  C   UNL     1      52.336   5.899  17.294  0.00  0.00    +0.000 A 
ATOM     30  N   UNL     1      52.566   4.920  18.202  0.00  0.00    +0.000 NA
ATOM     31  C   UNL     1      51.560   4.140  18.416  0.00  0.00    +0.000 A 
ATOM     32  N   UNL     1      50.339   4.260  17.807  0.00  0.00    +0.000 N 
ATOM     33  C   UNL     1      50.042   5.266  16.916  0.00  0.00    +0.000 A 
ATOM     34  O   UNL     1      48.911   5.395  16.453  0.00  0.00    +0.000 OA
ATOM     35  C   UNL     1      51.153   6.149  16.616  0.00  0.00    +0.000 A 
ATOM     36  H   UNL     1      49.587   3.623  18.032  0.00  0.00    +0.000 HD
ENDBRANCH  23  26
ENDBRANCH  21  22
ENDBRANCH   4  21
TORSDOF 9
ENDMDL
MODEL 4
REMARK VINA RESULT:    -7.939      1.586      2.880
REMARK INTER + INTRA:         -12.968
REMARK INTER:                 -11.896
REMARK INTRA:                  -1.072
REMARK UNBOUND:                -1.084
REMARK  Name = 
REMARK  9 active torsions:
REMARK  status: ('A' for Active; 'I' for Inactive)
REMARK    1  A    between atoms: N_1  and  C_2
REMARK    2  A    between atoms: C_2  and  C_3
REMARK    3  A    between atoms: C_3  and  N_4
REMARK    4  A    between atoms: C_3  and  C_12
REMARK    5  A    between atoms: N_4  and  C_5
REMARK    6  A    between atoms: C_5  and  C_6
REMARK    7  A    between atoms: C_15  and  C_16
REMARK    8  A    between atoms: C_16  and  N_17
REMARK    9  A    between atoms: C_18  and  C_20
REMARK                            x       y       z     vdW  Elec       q    Type
REMARK                         _______ _______ _______ _____ _____    ______ ____
ROOT
ATOM      1  C   UNL     1      44.949   4.866  12.019  0.00  0.00    +0.000 A 
ATOM      2  C   UNL     1      45.324   4.417  13.300  0.00  0.00    +0.000 A 
ATOM      3  C   UNL     1      46.473   4.902  13.930  0.00  0.00    +0.000 A 
ATOM      4  C   UNL     1      47.234   5.904  13.324  0.00  0.00    +0.000 A 
ATOM      5  C   UNL     1      46.832   6.393  12.075  0.00  0.00    +0.000 A 
ATOM      6  C   UNL     1      45.723   5.865  11.418  0.00  0.00    +0.000 A 
ENDROOT
BRANCH   1   7
ATOM      7  C   UNL     1      43.799   4.176  11.284  0.00  0.00    +0.000 C 
BRANCH   7   8
ATOM      8  N   UNL     1      44.147   3.856   9.882  0.00  0.00    +0.000 NA
ATOM      9  H   UNL     1      44.765   4.578   9.516  0.00  0.00    +0.000 HD
BRANCH   8  10
ATOM     10  C   UNL     1      44.777   2.549   9.713  0.00  0.00    +0.000 C 
BRANCH  10  11
ATOM     11  C   UNL     1      45.651   2.486   8.484  0.00  0.00    +0.000 A 
ATOM     12  C   UNL     1      45.873   3.639   7.714  0.00  0.00    +0.000 A 
ATOM     13  C   UNL     1      46.704   3.591   6.593  0.00  0.00    +0.000 A 
ATOM     14  C   UNL     1      47.319   2.396   6.236  0.00  0.00    +0.000 A 
ATOM     15  C   UNL     1      47.111   1.247   6.997  0.00  0.00    +0.000 A 
ATOM     16  C   UNL     1      46.281   1.291   8.119  0.00  0.00    +0.000 A 
ENDBRANCH  10  11
ENDBRANCH   8  10
ENDBRANCH   7   8
BRANCH   7  17
ATOM     17  C   UNL     1      42.479   5.027  11.346  0.00  0.00    +0.000 C 
BRANCH  17  18
ATOM     18  N   UNL     1      42.242   5.740  12.607  0.00  0.00    +0.000 NA
ATOM     19  H   UNL     1      41.288   5.562  12.918  0.00  0.00    +0.000 HD
ATOM     20  H   UNL     1      42.324   6.742  12.454  0.00  0.00    +0.000 HD
ENDBRANCH  17  18
ENDBRANCH   7  17
ENDBRANCH   1   7
BRANCH   4  21
ATOM     21  C   UNL     1      48.499   6.419  13.955  0.00  0.00    +0.000 C 
BRANCH  21  22
ATOM     22  N   UNL     1      48.278   6.947  15.280  0.00  0.00    +0.000 N 
ATOM     23  C   UNL     1      49.035   6.569  16.360  0.00  0.00    +0.000 C 
ATOM     24  O   UNL     1      49.929   5.731  16.274  0.00  0.00    +0.000 OA
ATOM     25  H   UNL     1      47.490   7.575  15.405  0.00  0.00    +0.000 HD
BRANCH  23  26
ATOM     26  C   UNL     1      48.784   7.258  17.632  0.00  0.00    +0.000 A 
ATOM     27  C   UNL     1      48.932   6.548  18.816  0.00  0.00    +0.000 A 
ATOM     28  S   UNL     1      48.652   7.476  20.216  0.00  0.00    +0.000 S 
ATOM     29  C   UNL     1      48.275   8.853  19.291  0.00  0.00    +0.000 A 
ATOM     30  N   UNL     1      47.912  10.012  19.892  0.00  0.00    +0.000 NA
ATOM     31  C   UNL     1      47.629  10.972  19.076  0.00  0.00    +0.000 A 
ATOM     32  N   UNL     1      47.685  10.875  17.711  0.00  0.00    +0.000 N 
ATOM     33  C   UNL     1      48.094   9.736  17.057  0.00  0.00    +0.000 A 
ATOM     34  O   UNL     1      48.214   9.710  15.834  0.00  0.00    +0.000 OA
ATOM     35  C   UNL     1      48.391   8.616  17.930  0.00  0.00    +0.000 A 
ATOM     36  H   UNL     1      47.463  11.672  17.130  0.00  0.00    +0.000 HD
ENDBRANCH  23  26
ENDBRANCH  21  22
ENDBRANCH   4  21
TORSDOF 9
ENDMDL
MODEL 5
REMARK VINA RESULT:    -7.693      3.775      5.772
REMARK INTER + INTRA:         -12.600
REMARK INTER:                 -11.287
REMARK INTRA:                  -1.314
REMARK UNBOUND:                -1.084
REMARK  Name = 
REMARK  9 active torsions:
REMARK  status: ('A' for Active; 'I' for Inactive)
REMARK    1  A    between atoms: N_1  and  C_2
REMARK    2  A    between atoms: C_2  and  C_3
REMARK    3  A    between atoms: C_3  and  N_4
REMARK    4  A    between atoms: C_3  and  C_12
REMARK    5  A    between atoms: N_4  and  C_5
REMARK    6  A    between atoms: C_5  and  C_6
REMARK    7  A    between atoms: C_15  and  C_16
REMARK    8  A    between atoms: C_16  and  N_17
REMARK    9  A    between atoms: C_18  and  C_20
REMARK                            x       y       z     vdW  Elec       q    Type
REMARK                         _______ _______ _______ _____ _____    ______ ____
ROOT
ATOM      1  C   UNL     1      45.755   5.366  11.851  0.00  0.00    +0.000 A 
ATOM      2  C   UNL     1      45.985   4.784  13.113  0.00  0.00    +0.000 A 
ATOM      3  C   UNL     1      46.946   5.303  13.985  0.00  0.00    +0.000 A 
ATOM      4  C   UNL     1      47.646   6.462  13.645  0.00  0.00    +0.000 A 
ATOM      5  C   UNL     1      47.379   7.076  12.416  0.00  0.00    +0.000 A 
ATOM      6  C   UNL     1      46.469   6.524  11.518  0.00  0.00    +0.000 A 
ENDROOT
BRANCH   1   7
ATOM      7  C   UNL     1      44.838   4.661  10.851  0.00  0.00    +0.000 C 
BRANCH   7   8
ATOM      8  N   UNL     1      45.160   5.021   9.452  0.00  0.00    +0.000 NA
ATOM      9  H   UNL     1      46.170   5.057   9.338  0.00  0.00    +0.000 HD
BRANCH   8  10
ATOM     10  C   UNL     1      44.593   4.108   8.462  0.00  0.00    +0.000 C 
BRANCH  10  11
ATOM     11  C   UNL     1      45.625   3.169   7.888  0.00  0.00    +0.000 A 
ATOM     12  C   UNL     1      45.765   1.871   8.406  0.00  0.00    +0.000 A 
ATOM     13  C   UNL     1      46.699   0.988   7.858  0.00  0.00    +0.000 A 
ATOM     14  C   UNL     1      47.494   1.394   6.792  0.00  0.00    +0.000 A 
ATOM     15  C   UNL     1      47.359   2.678   6.266  0.00  0.00    +0.000 A 
ATOM     16  C   UNL     1      46.426   3.563   6.810  0.00  0.00    +0.000 A 
ENDBRANCH  10  11
ENDBRANCH   8  10
ENDBRANCH   7   8
BRANCH   7  17
ATOM     17  C   UNL     1      43.323   4.939  11.159  0.00  0.00    +0.000 C 
BRANCH  17  18
ATOM     18  N   UNL     1      42.872   6.319  10.943  0.00  0.00    +0.000 NA
ATOM     19  H   UNL     1      42.377   6.644  11.771  0.00  0.00    +0.000 HD
ATOM     20  H   UNL     1      42.213   6.347  10.169  0.00  0.00    +0.000 HD
ENDBRANCH  17  18
ENDBRANCH   7  17
ENDBRANCH   1   7
BRANCH   4  21
ATOM     21  C   UNL     1      48.716   7.025  14.543  0.00  0.00    +0.000 C 
BRANCH  21  22
ATOM     22  N   UNL     1      49.939   7.308  13.830  0.00  0.00    +0.000 N 
ATOM     23  C   UNL     1      50.464   8.573  13.740  0.00  0.00    +0.000 C 
ATOM     24  O   UNL     1      49.907   9.550  14.233  0.00  0.00    +0.000 OA
ATOM     25  H   UNL     1      50.378   6.538  13.337  0.00  0.00    +0.000 HD
BRANCH  23  26
ATOM     26  C   UNL     1      51.769   8.714  13.083  0.00  0.00    +0.000 A 
ATOM     27  C   UNL     1      52.802   9.330  13.777  0.00  0.00    +0.000 A 
ATOM     28  S   UNL     1      54.271   9.391  12.917  0.00  0.00    +0.000 S 
ATOM     29  C   UNL     1      53.568   8.639  11.563  0.00  0.00    +0.000 A 
ATOM     30  N   UNL     1      54.295   8.414  10.441  0.00  0.00    +0.000 NA
ATOM     31  C   UNL     1      53.637   7.859   9.479  0.00  0.00    +0.000 A 
ATOM     32  N   UNL     1      52.317   7.501   9.544  0.00  0.00    +0.000 N 
ATOM     33  C   UNL     1      51.551   7.664  10.675  0.00  0.00    +0.000 A 
ATOM     34  O   UNL     1      50.394   7.254  10.728  0.00  0.00    +0.000 OA
ATOM     35  C   UNL     1      52.237   8.316  11.775  0.00  0.00    +0.000 A 
ATOM     36  H   UNL     1      51.866   7.055   8.756  0.00  0.00    +0.000 HD
ENDBRANCH  23  26
ENDBRANCH  21  22
ENDBRANCH   4  21
TORSDOF 9
ENDMDL
MODEL 6
REMARK VINA RESULT:    -7.576      1.708      2.197
REMARK INTER + INTRA:         -12.424
REMARK INTER:                 -11.391
REMARK INTRA:                  -1.033
REMARK UNBOUND:                -1.084
REMARK  Name = 
REMARK  9 active torsions:
REMARK  status: ('A' for Active; 'I' for Inactive)
REMARK    1  A    between atoms: N_1  and  C_2
REMARK    2  A    between atoms: C_2  and  C_3
REMARK    3  A    between atoms: C_3  and  N_4
REMARK    4  A    between atoms: C_3  and  C_12
REMARK    5  A    between atoms: N_4  and  C_5
REMARK    6  A    between atoms: C_5  and  C_6
REMARK    7  A    between atoms: C_15  and  C_16
REMARK    8  A    between atoms: C_16  and  N_17
REMARK    9  A    between atoms: C_18  and  C_20
REMARK                            x       y       z     vdW  Elec       q    Type
REMARK                         _______ _______ _______ _____ _____    ______ ____
ROOT
ATOM      1  C   UNL     1      45.526   5.335  11.756  0.00  0.00    +0.000 A 
ATOM      2  C   UNL     1      46.145   6.489  11.235  0.00  0.00    +0.000 A 
ATOM      3  C   UNL     1      47.220   7.093  11.892  0.00  0.00    +0.000 A 
ATOM      4  C   UNL     1      47.750   6.514  13.046  0.00  0.00    +0.000 A 
ATOM      5  C   UNL     1      47.174   5.335  13.534  0.00  0.00    +0.000 A 
ATOM      6  C   UNL     1      46.062   4.767  12.917  0.00  0.00    +0.000 A 
ENDROOT
BRANCH   1   7
ATOM      7  C   UNL     1      44.238   4.816  11.116  0.00  0.00    +0.000 C 
BRANCH   7   8
ATOM      8  N   UNL     1      44.405   4.542   9.672  0.00  0.00    +0.000 NA
ATOM      9  H   UNL     1      45.285   4.943   9.353  0.00  0.00    +0.000 HD
BRANCH   8  10
ATOM     10  C   UNL     1      44.369   3.122   9.331  0.00  0.00    +0.000 C 
BRANCH  10  11
ATOM     11  C   UNL     1      45.422   2.747   8.316  0.00  0.00    +0.000 A 
ATOM     12  C   UNL     1      45.838   3.678   7.351  0.00  0.00    +0.000 A 
ATOM     13  C   UNL     1      46.832   3.345   6.430  0.00  0.00    +0.000 A 
ATOM     14  C   UNL     1      47.419   2.084   6.468  0.00  0.00    +0.000 A 
ATOM     15  C   UNL     1      47.018   1.154   7.426  0.00  0.00    +0.000 A 
ATOM     16  C   UNL     1      46.024   1.484   8.350  0.00  0.00    +0.000 A 
ENDBRANCH  10  11
ENDBRANCH   8  10
ENDBRANCH   7   8
BRANCH   7  17
ATOM     17  C   UNL     1      43.035   5.798  11.358  0.00  0.00    +0.000 C 
BRANCH  17  18
ATOM     18  N   UNL     1      42.359   5.668  12.654  0.00  0.00    +0.000 NA
ATOM     19  H   UNL     1      42.418   6.554  13.153  0.00  0.00    +0.000 HD
ATOM     20  H   UNL     1      42.837   4.973  13.222  0.00  0.00    +0.000 HD
ENDBRANCH  17  18
ENDBRANCH   7  17
ENDBRANCH   1   7
BRANCH   4  21
ATOM     21  C   UNL     1      48.880   7.160  13.801  0.00  0.00    +0.000 C 
BRANCH  21  22
ATOM     22  N   UNL     1      49.135   6.517  15.068  0.00  0.00    +0.000 N 
ATOM     23  C   UNL     1      48.959   7.158  16.269  0.00  0.00    +0.000 C 
ATOM     24  O   UNL     1      48.605   8.332  16.340  0.00  0.00    +0.000 OA
ATOM     25  H   UNL     1      49.513   5.576  15.044  0.00  0.00    +0.000 HD
BRANCH  23  26
ATOM     26  C   UNL     1      49.145   6.363  17.489  0.00  0.00    +0.000 A 
ATOM     27  C   UNL     1      48.346   5.245  17.685  0.00  0.00    +0.000 A 
ATOM     28  S   UNL     1      48.693   4.392  19.117  0.00  0.00    +0.000 S 
ATOM     29  C   UNL     1      49.894   5.513  19.555  0.00  0.00    +0.000 A 
ATOM     30  N   UNL     1      50.578   5.376  20.717  0.00  0.00    +0.000 NA
ATOM     31  C   UNL     1      51.444   6.307  20.942  0.00  0.00    +0.000 A 
ATOM     32  N   UNL     1      51.691   7.359  20.100  0.00  0.00    +0.000 N 
ATOM     33  C   UNL     1      51.059   7.514  18.888  0.00  0.00    +0.000 A 
ATOM     34  O   UNL     1      51.367   8.421  18.118  0.00  0.00    +0.000 OA
ATOM     35  C   UNL     1      50.050   6.510  18.605  0.00  0.00    +0.000 A 
ATOM     36  H   UNL     1      52.396   8.046  20.330  0.00  0.00    +0.000 HD
ENDBRANCH  23  26
ENDBRANCH  21  22
ENDBRANCH   4  21
TORSDOF 9
ENDMDL
MODEL 7
REMARK VINA RESULT:    -7.490      4.461      6.739
REMARK INTER + INTRA:         -12.295
REMARK INTER:                 -11.137
REMARK INTRA:                  -1.158
REMARK UNBOUND:                -1.084
REMARK  Name = 
REMARK  9 active torsions:
REMARK  status: ('A' for Active; 'I' for Inactive)
REMARK    1  A    between atoms: N_1  and  C_2
REMARK    2  A    between atoms: C_2  and  C_3
REMARK    3  A    between atoms: C_3  and  N_4
REMARK    4  A    between atoms: C_3  and  C_12
REMARK    5  A    between atoms: N_4  and  C_5
REMARK    6  A    between atoms: C_5  and  C_6
REMARK    7  A    between atoms: C_15  and  C_16
REMARK    8  A    between atoms: C_16  and  N_17
REMARK    9  A    between atoms: C_18  and  C_20
REMARK                            x       y       z     vdW  Elec       q    Type
REMARK                         _______ _______ _______ _____ _____    ______ ____
ROOT
ATOM      1  C   UNL     1      45.486   4.874  12.227  0.00  0.00    +0.000 A 
ATOM      2  C   UNL     1      46.197   4.681  13.428  0.00  0.00    +0.000 A 
ATOM      3  C   UNL     1      47.303   5.472  13.749  0.00  0.00    +0.000 A 
ATOM      4  C   UNL     1      47.678   6.524  12.912  0.00  0.00    +0.000 A 
ATOM      5  C   UNL     1      46.939   6.755  11.747  0.00  0.00    +0.000 A 
ATOM      6  C   UNL     1      45.876   5.928  11.392  0.00  0.00    +0.000 A 
ENDROOT
BRANCH   1   7
ATOM      7  C   UNL     1      44.406   3.871  11.821  0.00  0.00    +0.000 C 
BRANCH   7   8
ATOM      8  N   UNL     1      44.958   2.751  11.028  0.00  0.00    +0.000 NA
ATOM      9  H   UNL     1      44.836   1.882  11.543  0.00  0.00    +0.000 HD
BRANCH   8  10
ATOM     10  C   UNL     1      44.361   2.615   9.701  0.00  0.00    +0.000 C 
BRANCH  10  11
ATOM     11  C   UNL     1      45.398   2.559   8.607  0.00  0.00    +0.000 A 
ATOM     12  C   UNL     1      45.733   3.719   7.889  0.00  0.00    +0.000 A 
ATOM     13  C   UNL     1      46.714   3.677   6.896  0.00  0.00    +0.000 A 
ATOM     14  C   UNL     1      47.366   2.481   6.616  0.00  0.00    +0.000 A 
ATOM     15  C   UNL     1      47.047   1.325   7.326  0.00  0.00    +0.000 A 
ATOM     16  C   UNL     1      46.067   1.363   8.321  0.00  0.00    +0.000 A 
ENDBRANCH  10  11
ENDBRANCH   8  10
ENDBRANCH   7   8
BRANCH   7  17
ATOM     17  C   UNL     1      43.229   4.569  11.047  0.00  0.00    +0.000 C 
BRANCH  17  18
ATOM     18  N   UNL     1      42.242   5.264  11.884  0.00  0.00    +0.000 NA
ATOM     19  H   UNL     1      42.244   6.255  11.650  0.00  0.00    +0.000 HD
ATOM     20  H   UNL     1      42.509   5.188  12.862  0.00  0.00    +0.000 HD
ENDBRANCH  17  18
ENDBRANCH   7  17
ENDBRANCH   1   7
BRANCH   4  21
ATOM     21  C   UNL     1      48.888   7.369  13.208  0.00  0.00    +0.000 C 
BRANCH  21  22
ATOM     22  N   UNL     1      49.134   8.355  12.182  0.00  0.00    +0.000 N 
ATOM     23  C   UNL     1      49.885   9.482  12.407  0.00  0.00    +0.000 C 
ATOM     24  O   UNL     1      50.368   9.739  13.506  0.00  0.00    +0.000 OA
ATOM     25  H   UNL     1      48.677   8.218  11.287  0.00  0.00    +0.000 HD
BRANCH  23  26
ATOM     26  C   UNL     1      50.155  10.351  11.256  0.00  0.00    +0.000 A 
ATOM     27  C   UNL     1      49.167  11.234  10.840  0.00  0.00    +0.000 A 
ATOM     28  S   UNL     1      49.624  12.211   9.523  0.00  0.00    +0.000 S 
ATOM     29  C   UNL     1      51.146  11.458   9.426  0.00  0.00    +0.000 A 
ATOM     30  N   UNL     1      52.037  11.818   8.471  0.00  0.00    +0.000 NA
ATOM     31  C   UNL     1      53.143  11.153   8.492  0.00  0.00    +0.000 A 
ATOM     32  N   UNL     1      53.439  10.164   9.392  0.00  0.00    +0.000 N 
ATOM     33  C   UNL     1      52.589   9.797  10.409  0.00  0.00    +0.000 A 
ATOM     34  O   UNL     1      52.921   8.966  11.251  0.00  0.00    +0.000 OA
ATOM     35  C   UNL     1      51.316  10.493  10.407  0.00  0.00    +0.000 A 
ATOM     36  H   UNL     1      54.333   9.692   9.362  0.00  0.00    +0.000 HD
ENDBRANCH  23  26
ENDBRANCH  21  22
ENDBRANCH   4  21
TORSDOF 9
ENDMDL
MODEL 8
REMARK VINA RESULT:    -7.195      4.657      5.862
REMARK INTER + INTRA:         -11.853
REMARK INTER:                 -10.600
REMARK INTRA:                  -1.254
REMARK UNBOUND:                -1.084
REMARK  Name = 
REMARK  9 active torsions:
REMARK  status: ('A' for Active; 'I' for Inactive)
REMARK    1  A    between atoms: N_1  and  C_2
REMARK    2  A    between atoms: C_2  and  C_3
REMARK    3  A    between atoms: C_3  and  N_4
REMARK    4  A    between atoms: C_3  and  C_12
REMARK    5  A    between atoms: N_4  and  C_5
REMARK    6  A    between atoms: C_5  and  C_6
REMARK    7  A    between atoms: C_15  and  C_16
REMARK    8  A    between atoms: C_16  and  N_17
REMARK    9  A    between atoms: C_18  and  C_20
REMARK                            x       y       z     vdW  Elec       q    Type
REMARK                         _______ _______ _______ _____ _____    ______ ____
ROOT
ATOM      1  C   UNL     1      45.309   5.335  12.212  0.00  0.00    +0.000 A 
ATOM      2  C   UNL     1      44.698   6.272  11.355  0.00  0.00    +0.000 A 
ATOM      3  C   UNL     1      45.078   7.616  11.364  0.00  0.00    +0.000 A 
ATOM      4  C   UNL     1      46.131   8.041  12.176  0.00  0.00    +0.000 A 
ATOM      5  C   UNL     1      46.778   7.101  12.987  0.00  0.00    +0.000 A 
ATOM      6  C   UNL     1      46.358   5.774  13.027  0.00  0.00    +0.000 A 
ENDROOT
BRANCH   1   7
ATOM      7  C   UNL     1      44.738   3.920  12.312  0.00  0.00    +0.000 C 
BRANCH   7   8
ATOM      8  N   UNL     1      45.311   3.016  11.290  0.00  0.00    +0.000 NA
ATOM      9  H   UNL     1      45.431   2.088  11.691  0.00  0.00    +0.000 HD
BRANCH   8  10
ATOM     10  C   UNL     1      44.509   2.916  10.073  0.00  0.00    +0.000 C 
BRANCH  10  11
ATOM     11  C   UNL     1      45.358   2.748   8.837  0.00  0.00    +0.000 A 
ATOM     12  C   UNL     1      45.627   3.849   8.008  0.00  0.00    +0.000 A 
ATOM     13  C   UNL     1      46.436   3.703   6.879  0.00  0.00    +0.000 A 
ATOM     14  C   UNL     1      46.985   2.461   6.575  0.00  0.00    +0.000 A 
ATOM     15  C   UNL     1      46.730   1.364   7.395  0.00  0.00    +0.000 A 
ATOM     16  C   UNL     1      45.922   1.506   8.525  0.00  0.00    +0.000 A 
ENDBRANCH  10  11
ENDBRANCH   8  10
ENDBRANCH   7   8
BRANCH   7  17
ATOM     17  C   UNL     1      43.169   3.922  12.232  0.00  0.00    +0.000 C 
BRANCH  17  18
ATOM     18  N   UNL     1      42.483   4.758  13.225  0.00  0.00    +0.000 NA
ATOM     19  H   UNL     1      42.954   5.659  13.287  0.00  0.00    +0.000 HD
ATOM     20  H   UNL     1      42.548   4.323  14.142  0.00  0.00    +0.000 HD
ENDBRANCH  17  18
ENDBRANCH   7  17
ENDBRANCH   1   7
BRANCH   4  21
ATOM     21  C   UNL     1      46.539   9.488  12.240  0.00  0.00    +0.000 C 
BRANCH  21  22
ATOM     22  N   UNL     1      47.881   9.704  11.752  0.00  0.00    +0.000 N 
ATOM     23  C   UNL     1      48.878  10.220  12.540  0.00  0.00    +0.000 C 
ATOM     24  O   UNL     1      48.684  10.564  13.703  0.00  0.00    +0.000 OA
ATOM     25  H   UNL     1      48.054   9.514  10.770  0.00  0.00    +0.000 HD
BRANCH  23  26
ATOM     26  C   UNL     1      50.225  10.289  11.961  0.00  0.00    +0.000 A 
ATOM     27  C   UNL     1      50.845  11.527  11.859  0.00  0.00    +0.000 A 
ATOM     28  S   UNL     1      52.418  11.460  11.209  0.00  0.00    +0.000 S 
ATOM     29  C   UNL     1      52.313   9.776  10.994  0.00  0.00    +0.000 A 
ATOM     30  N   UNL     1      53.339   9.084  10.442  0.00  0.00    +0.000 NA
ATOM     31  C   UNL     1      53.122   7.818  10.313  0.00  0.00    +0.000 A 
ATOM     32  N   UNL     1      51.971   7.183  10.696  0.00  0.00    +0.000 N 
ATOM     33  C   UNL     1      50.922   7.834  11.304  0.00  0.00    +0.000 A 
ATOM     34  O   UNL     1      49.939   7.219  11.713  0.00  0.00    +0.000 OA
ATOM     35  C   UNL     1      51.104   9.267  11.441  0.00  0.00    +0.000 A 
ATOM     36  H   UNL     1      51.872   6.183  10.579  0.00  0.00    +0.000 HD
ENDBRANCH  23  26
ENDBRANCH  21  22
ENDBRANCH   4  21
TORSDOF 9
ENDMDL
MODEL 9
REMARK VINA RESULT:    -7.028      3.802      9.187
REMARK INTER + INTRA:         -11.605
REMARK INTER:                  -9.248
REMARK INTRA:                  -2.357
REMARK UNBOUND:                -1.084
REMARK  Name = 
REMARK  9 active torsions:
REMARK  status: ('A' for Active; 'I' for Inactive)
REMARK    1  A    between atoms: N_1  and  C_2
REMARK    2  A    between atoms: C_2  and  C_3
REMARK    3  A    between atoms: C_3  and  N_4
REMARK    4  A    between atoms: C_3  and  C_12
REMARK    5  A    between atoms: N_4  and  C_5
REMARK    6  A    between atoms: C_5  and  C_6
REMARK    7  A    between atoms: C_15  and  C_16
REMARK    8  A    between atoms: C_16  and  N_17
REMARK    9  A    between atoms: C_18  and  C_20
REMARK                            x       y       z     vdW  Elec       q    Type
REMARK                         _______ _______ _______ _____ _____    ______ ____
ROOT
ATOM      1  C   UNL     1      50.544   4.866  18.809  0.00  0.00    +0.000 A 
ATOM      2  C   UNL     1      49.266   5.324  19.190  0.00  0.00    +0.000 A 
ATOM      3  C   UNL     1      48.115   4.887  18.530  0.00  0.00    +0.000 A 
ATOM      4  C   UNL     1      48.207   3.924  17.523  0.00  0.00    +0.000 A 
ATOM      5  C   UNL     1      49.469   3.425  17.181  0.00  0.00    +0.000 A 
ATOM      6  C   UNL     1      50.624   3.907  17.793  0.00  0.00    +0.000 A 
ENDROOT
BRANCH   1   7
ATOM      7  C   UNL     1      51.789   5.508  19.422  0.00  0.00    +0.000 C 
BRANCH   7   8
ATOM      8  N   UNL     1      52.652   6.136  18.398  0.00  0.00    +0.000 NA
ATOM      9  H   UNL     1      52.591   5.602  17.533  0.00  0.00    +0.000 HD
BRANCH   8  10
ATOM     10  C   UNL     1      52.327   7.534  18.127  0.00  0.00    +0.000 C 
BRANCH  10  11
ATOM     11  C   UNL     1      51.096   7.683  17.267  0.00  0.00    +0.000 A 
ATOM     12  C   UNL     1      51.017   7.030  16.026  0.00  0.00    +0.000 A 
ATOM     13  C   UNL     1      49.868   7.142  15.241  0.00  0.00    +0.000 A 
ATOM     14  C   UNL     1      48.792   7.900  15.690  0.00  0.00    +0.000 A 
ATOM     15  C   UNL     1      48.857   8.547  16.923  0.00  0.00    +0.000 A 
ATOM     16  C   UNL     1      50.005   8.437  17.712  0.00  0.00    +0.000 A 
ENDBRANCH  10  11
ENDBRANCH   8  10
ENDBRANCH   7   8
BRANCH   7  17
ATOM     17  C   UNL     1      52.608   4.478  20.281  0.00  0.00    +0.000 C 
BRANCH  17  18
ATOM     18  N   UNL     1      52.126   4.268  21.652  0.00  0.00    +0.000 NA
ATOM     19  H   UNL     1      51.382   3.572  21.643  0.00  0.00    +0.000 HD
ATOM     20  H   UNL     1      51.724   5.132  22.009  0.00  0.00    +0.000 HD
ENDBRANCH  17  18
ENDBRANCH   7  17
ENDBRANCH   1   7
BRANCH   4  21
ATOM     21  C   UNL     1      46.992   3.462  16.765  0.00  0.00    +0.000 C 
BRANCH  21  22
ATOM     22  N   UNL     1      46.586   4.404  15.749  0.00  0.00    +0.000 N 
ATOM     23  C   UNL     1      46.761   4.166  14.409  0.00  0.00    +0.000 C 
ATOM     24  O   UNL     1      47.306   3.148  13.990  0.00  0.00    +0.000 OA
ATOM     25  H   UNL     1      46.212   5.294  16.064  0.00  0.00    +0.000 HD
BRANCH  23  26
ATOM     26  C   UNL     1      46.207   5.150  13.473  0.00  0.00    +0.000 A 
ATOM     27  C   UNL     1      47.001   6.219  13.081  0.00  0.00    +0.000 A 
ATOM     28  S   UNL     1      46.253   7.262  11.962  0.00  0.00    +0.000 S 
ATOM     29  C   UNL     1      44.818   6.350  11.994  0.00  0.00    +0.000 A 
ATOM     30  N   UNL     1      43.742   6.726  11.260  0.00  0.00    +0.000 NA
ATOM     31  C   UNL     1      42.710   5.962  11.393  0.00  0.00    +0.000 A 
ATOM     32  N   UNL     1      42.663   4.849  12.190  0.00  0.00    +0.000 N 
ATOM     33  C   UNL     1      43.743   4.400  12.914  0.00  0.00    +0.000 A 
ATOM     34  O   UNL     1      43.692   3.350  13.552  0.00  0.00    +0.000 OA
ATOM     35  C   UNL     1      44.919   5.245  12.825  0.00  0.00    +0.000 A 
ATOM     36  H   UNL     1      41.825   4.285  12.236  0.00  0.00    +0.000 HD
ENDBRANCH  23  26
ENDBRANCH  21  22
ENDBRANCH   4  21
TORSDOF 9
ENDMDL
