MODEL 1
REMARK VINA RESULT:    -7.731      0.000      0.000
REMARK INTER + INTRA:         -12.167
REMARK INTER:                 -11.346
REMARK INTRA:                  -0.821
REMARK UNBOUND:                -0.821
REMARK  Name = 
REMARK  10 active torsions:
REMARK  status: ('A' for Active; 'I' for Inactive)
REMARK    1  A    between atoms: C_1  and  N_2
REMARK    2  A    between atoms: N_2  and  C_3
REMARK    3  A    between atoms: N_2  and  C_4
REMARK    4  A    between atoms: C_4  and  C_5
REMARK    5  A    between atoms: C_5  and  O_6
REMARK    6  A    between atoms: O_6  and  C_7
REMARK    7  A    between atoms: C_10  and  C_11
REMARK    8  A    between atoms: C_11  and  C_12
REMARK    9  A    between atoms: C_12  and  N_13
REMARK   10  A    between atoms: C_17  and  C_18
REMARK                            x       y       z     vdW  Elec       q    Type
REMARK                         _______ _______ _______ _____ _____    ______ ____
ROOT
ATOM      1  C   UNL     1      43.174   4.286  11.045  0.00  0.00    +0.000 C 
ENDROOT
BRANCH   1   2
ATOM      2  N   UNL     1      44.002   4.997  10.067  0.00  0.00    +0.000 N 
ATOM      3  C   UNL     1      44.801   4.109   9.315  0.00  0.00    +0.000 A 
ATOM      4  C   UNL     1      45.652   4.630   8.346  0.00  0.00    +0.000 A 
ATOM      5  C   UNL     1      46.457   3.764   7.600  0.00  0.00    +0.000 A 
ATOM      6  C   UNL     1      46.401   2.390   7.832  0.00  0.00    +0.000 A 
ATOM      7  C   UNL     1      45.510   1.955   8.797  0.00  0.00    +0.000 A 
ATOM      8  N   UNL     1      44.719   2.778   9.528  0.00  0.00    +0.000 NA
ATOM      9  H   UNL     1      44.612   5.682  10.505  0.00  0.00    +0.000 HD
BRANCH   6  10
ATOM     10  C   UNL     1      47.276   1.476   7.060  0.00  0.00    +0.000 C 
ATOM     11  N   UNL     1      48.409   1.969   6.475  0.00  0.00    +0.000 N 
ATOM     12  O   UNL     1      46.990   0.288   6.933  0.00  0.00    +0.000 OA
ATOM     13  H   UNL     1      48.727   2.925   6.502  0.00  0.00    +0.000 HD
ATOM     14  H   UNL     1      48.965   1.308   5.948  0.00  0.00    +0.000 HD
ENDBRANCH   6  10
ENDBRANCH   1   2
BRANCH   1  15
ATOM     15  C   UNL     1      43.371   4.813  12.472  0.00  0.00    +0.000 C 
BRANCH  15  19
ATOM     16  C   UNL     1      47.447   5.936  13.489  0.00  0.00    +0.000 A 
ATOM     17  C   UNL     1      46.541   6.908  13.072  0.00  0.00    +0.000 A 
ATOM     18  C   UNL     1      45.231   6.558  12.735  0.00  0.00    +0.000 A 
ATOM     19  C   UNL     1      44.794   5.229  12.801  0.00  0.00    +0.000 A 
ATOM     20  C   UNL     1      45.722   4.253  13.191  0.00  0.00    +0.000 A 
ATOM     21  C   UNL     1      47.037   4.604  13.524  0.00  0.00    +0.000 A 
BRANCH  16  22
ATOM     22  O   UNL     1      48.747   6.179  13.850  0.00  0.00    +0.000 OA
BRANCH  22  23
ATOM     23  C   UNL     1      48.917   7.251  14.786  0.00  0.00    +0.000 C 
BRANCH  23  24
ATOM     24  C   UNL     1      48.769   6.724  16.221  0.00  0.00    +0.000 C 
BRANCH  24  26
ATOM     25  C   UNL     1      50.629   5.584  17.243  0.00  0.00    +0.000 C 
ATOM     26  N   UNL     1      49.409   5.411  16.450  0.00  0.00    +0.000 NA
ATOM     27  C   UNL     1      48.520   4.461  17.125  0.00  0.00    +0.000 C 
ENDBRANCH  24  26
ENDBRANCH  23  24
ENDBRANCH  22  23
ENDBRANCH  16  22
ENDBRANCH  15  19
ENDBRANCH   1  15
TORSDOF 8
ENDMDL
MODEL 2
REMARK VINA RESULT:    -7.067      2.053      2.754
REMARK INTER + INTRA:         -11.193
REMARK INTER:                 -10.291
REMARK INTRA:                  -0.902
REMARK UNBOUND:                -0.821
REMARK  Name = 
REMARK  10 active torsions:
REMARK  status: ('A' for Active; 'I' for Inactive)
REMARK    1  A    between atoms: C_1  and  N_2
REMARK    2  A    between atoms: N_2  and  C_3
REMARK    3  A    between atoms: N_2  and  C_4
REMARK    4  A    between atoms: C_4  and  C_5
REMARK    5  A    between atoms: C_5  and  O_6
REMARK    6  A    between atoms: O_6  and  C_7
REMARK    7  A    between atoms: C_10  and  C_11
REMARK    8  A    between atoms: C_11  and  C_12
REMARK    9  A    between atoms: C_12  and  N_13
REMARK   10  A    between atoms: C_17  and  C_18
REMARK                            x       y       z     vdW  Elec       q    Type
REMARK                         _______ _______ _______ _____ _____    ______ ____
ROOT
ATOM      1  C   UNL     1      43.334   4.953  10.690  0.00  0.00    +0.000 C 
ENDROOT
BRANCH   1   2
ATOM      2  N   UNL     1      43.651   3.526  10.591  0.00  0.00    +0.000 N 
ATOM      3  C   UNL     1      44.592   3.269   9.571  0.00  0.00    +0.000 A 
ATOM      4  C   UNL     1      44.993   1.956   9.344  0.00  0.00    +0.000 A 
ATOM      5  C   UNL     1      45.915   1.685   8.330  0.00  0.00    +0.000 A 
ATOM      6  C   UNL     1      46.426   2.728   7.557  0.00  0.00    +0.000 A 
ATOM      7  C   UNL     1      45.991   4.005   7.865  0.00  0.00    +0.000 A 
ATOM      8  N   UNL     1      45.100   4.289   8.847  0.00  0.00    +0.000 NA
ATOM      9  H   UNL     1      42.825   2.960  10.415  0.00  0.00    +0.000 HD
BRANCH   6  10
ATOM     10  C   UNL     1      47.382   2.435   6.464  0.00  0.00    +0.000 C 
ATOM     11  N   UNL     1      47.279   3.116   5.282  0.00  0.00    +0.000 N 
ATOM     12  O   UNL     1      48.257   1.584   6.603  0.00  0.00    +0.000 OA
ATOM     13  H   UNL     1      46.593   3.819   5.056  0.00  0.00    +0.000 HD
ATOM     14  H   UNL     1      47.947   2.869   4.563  0.00  0.00    +0.000 HD
ENDBRANCH   6  10
ENDBRANCH   1   2
BRANCH   1  15
ATOM     15  C   UNL     1      43.577   5.510  12.098  0.00  0.00    +0.000 C 
BRANCH  15  19
ATOM     16  C   UNL     1      47.783   6.153  12.998  0.00  0.00    +0.000 A 
ATOM     17  C   UNL     1      47.055   5.206  13.714  0.00  0.00    +0.000 A 
ATOM     18  C   UNL     1      45.701   4.996  13.439  0.00  0.00    +0.000 A 
ATOM     19  C   UNL     1      45.040   5.730  12.447  0.00  0.00    +0.000 A 
ATOM     20  C   UNL     1      45.772   6.703  11.753  0.00  0.00    +0.000 A 
ATOM     21  C   UNL     1      47.129   6.917  12.032  0.00  0.00    +0.000 A 
BRANCH  16  22
ATOM     22  O   UNL     1      49.114   6.425  13.184  0.00  0.00    +0.000 OA
BRANCH  22  23
ATOM     23  C   UNL     1      49.638   7.456  12.337  0.00  0.00    +0.000 C 
BRANCH  23  24
ATOM     24  C   UNL     1      50.610   8.343  13.129  0.00  0.00    +0.000 C 
BRANCH  24  26
ATOM     25  C   UNL     1      50.929  10.404  14.334  0.00  0.00    +0.000 C 
ATOM     26  N   UNL     1      49.948   9.389  13.937  0.00  0.00    +0.000 NA
ATOM     27  C   UNL     1      48.839  10.033  13.228  0.00  0.00    +0.000 C 
ENDBRANCH  24  26
ENDBRANCH  23  24
ENDBRANCH  22  23
ENDBRANCH  16  22
ENDBRANCH  15  19
ENDBRANCH   1  15
TORSDOF 8
ENDMDL
MODEL 3
REMARK VINA RESULT:    -6.401      2.560      8.922
REMARK INTER + INTRA:         -10.215
REMARK INTER:                  -9.716
REMARK INTRA:                  -0.499
REMARK UNBOUND:                -0.821
REMARK  Name = 
REMARK  10 active torsions:
REMARK  status: ('A' for Active; 'I' for Inactive)
REMARK    1  A    between atoms: C_1  and  N_2
REMARK    2  A    between atoms: N_2  and  C_3
REMARK    3  A    between atoms: N_2  and  C_4
REMARK    4  A    between atoms: C_4  and  C_5
REMARK    5  A    between atoms: C_5  and  O_6
REMARK    6  A    between atoms: O_6  and  C_7
REMARK    7  A    between atoms: C_10  and  C_11
REMARK    8  A    between atoms: C_11  and  C_12
REMARK    9  A    between atoms: C_12  and  N_13
REMARK   10  A    between atoms: C_17  and  C_18
REMARK                            x       y       z     vdW  Elec       q    Type
REMARK                         _______ _______ _______ _____ _____    ______ ____
ROOT
ATOM      1  C   UNL     1      47.046   4.611  14.139  0.00  0.00    +0.000 C 
ENDROOT
BRANCH   1   2
ATOM      2  N   UNL     1      47.004   3.522  15.119  0.00  0.00    +0.000 N 
ATOM      3  C   UNL     1      47.767   3.823  16.268  0.00  0.00    +0.000 A 
ATOM      4  C   UNL     1      47.835   2.883  17.292  0.00  0.00    +0.000 A 
ATOM      5  C   UNL     1      48.595   3.162  18.431  0.00  0.00    +0.000 A 
ATOM      6  C   UNL     1      49.277   4.375  18.532  0.00  0.00    +0.000 A 
ATOM      7  C   UNL     1      49.136   5.261  17.479  0.00  0.00    +0.000 A 
ATOM      8  N   UNL     1      48.401   5.010  16.367  0.00  0.00    +0.000 NA
ATOM      9  H   UNL     1      47.340   2.644  14.733  0.00  0.00    +0.000 HD
BRANCH   6  10
ATOM     10  C   UNL     1      50.105   4.657  19.728  0.00  0.00    +0.000 C 
ATOM     11  N   UNL     1      49.536   4.585  20.969  0.00  0.00    +0.000 N 
ATOM     12  O   UNL     1      51.289   4.962  19.616  0.00  0.00    +0.000 OA
ATOM     13  H   UNL     1      48.575   4.361  21.174  0.00  0.00    +0.000 HD
ATOM     14  H   UNL     1      50.140   4.799  21.753  0.00  0.00    +0.000 HD
ENDBRANCH   6  10
ENDBRANCH   1   2
BRANCH   1  15
ATOM     15  C   UNL     1      45.648   5.023  13.661  0.00  0.00    +0.000 C 
BRANCH  15  19
ATOM     16  C   UNL     1      44.845   4.347   9.441  0.00  0.00    +0.000 A 
ATOM     17  C   UNL     1      44.615   3.331  10.365  0.00  0.00    +0.000 A 
ATOM     18  C   UNL     1      44.877   3.533  11.722  0.00  0.00    +0.000 A 
ATOM     19  C   UNL     1      45.379   4.754  12.191  0.00  0.00    +0.000 A 
ATOM     20  C   UNL     1      45.637   5.761  11.250  0.00  0.00    +0.000 A 
ATOM     21  C   UNL     1      45.379   5.555   9.888  0.00  0.00    +0.000 A 
BRANCH  16  22
ATOM     22  O   UNL     1      44.611   4.251   8.093  0.00  0.00    +0.000 OA
BRANCH  22  23
ATOM     23  C   UNL     1      45.310   3.184   7.440  0.00  0.00    +0.000 C 
BRANCH  23  24
ATOM     24  C   UNL     1      46.774   3.582   7.203  0.00  0.00    +0.000 C 
BRANCH  24  26
ATOM     25  C   UNL     1      47.065   1.204   7.450  0.00  0.00    +0.000 C 
ATOM     26  N   UNL     1      47.676   2.438   6.948  0.00  0.00    +0.000 NA
ATOM     27  C   UNL     1      47.996   2.280   5.526  0.00  0.00    +0.000 C 
ENDBRANCH  24  26
ENDBRANCH  23  24
ENDBRANCH  22  23
ENDBRANCH  16  22
ENDBRANCH  15  19
ENDBRANCH   1  15
TORSDOF 8
ENDMDL
MODEL 4
REMARK VINA RESULT:    -6.249      2.362      8.676
REMARK INTER + INTRA:          -9.993
REMARK INTER:                  -9.388
REMARK INTRA:                  -0.605
REMARK UNBOUND:                -0.821
REMARK  Name = 
REMARK  10 active torsions:
REMARK  status: ('A' for Active; 'I' for Inactive)
REMARK    1  A    between atoms: C_1  and  N_2
REMARK    2  A    between atoms: N_2  and  C_3
REMARK    3  A    between atoms: N_2  and  C_4
REMARK    4  A    between atoms: C_4  and  C_5
REMARK    5  A    between atoms: C_5  and  O_6
REMARK    6  A    between atoms: O_6  and  C_7
REMARK    7  A    between atoms: C_10  and  C_11
REMARK    8  A    between atoms: C_11  and  C_12
REMARK    9  A    between atoms: C_12  and  N_13
REMARK   10  A    between atoms: C_17  and  C_18
REMARK                            x       y       z     vdW  Elec       q    Type
REMARK                         _______ _______ _______ _____ _____    ______ ____
ROOT
ATOM      1  C   UNL     1      48.377   6.648  13.539  0.00  0.00    +0.000 C 
ENDROOT
BRANCH   1   2
ATOM      2  N   UNL     1      48.763   7.441  14.710  0.00  0.00    +0.000 N 
ATOM      3  C   UNL     1      48.761   6.666  15.890  0.00  0.00    +0.000 A 
ATOM      4  C   UNL     1      49.099   7.277  17.093  0.00  0.00    +0.000 A 
ATOM      5  C   UNL     1      49.091   6.526  18.271  0.00  0.00    +0.000 A 
ATOM      6  C   UNL     1      48.747   5.174  18.232  0.00  0.00    +0.000 A 
ATOM      7  C   UNL     1      48.447   4.642  16.991  0.00  0.00    +0.000 A 
ATOM      8  N   UNL     1      48.452   5.353  15.836  0.00  0.00    +0.000 NA
ATOM      9  H   UNL     1      48.151   8.241  14.852  0.00  0.00    +0.000 HD
BRANCH   6  10
ATOM     10  C   UNL     1      48.712   4.386  19.486  0.00  0.00    +0.000 C 
ATOM     11  N   UNL     1      48.388   3.059  19.435  0.00  0.00    +0.000 N 
ATOM     12  O   UNL     1      48.959   4.912  20.568  0.00  0.00    +0.000 OA
ATOM     13  H   UNL     1      48.152   2.533  18.608  0.00  0.00    +0.000 HD
ATOM     14  H   UNL     1      48.365   2.568  20.320  0.00  0.00    +0.000 HD
ENDBRANCH   6  10
ENDBRANCH   1   2
BRANCH   1  15
ATOM     15  C   UNL     1      46.966   6.987  13.043  0.00  0.00    +0.000 C 
BRANCH  15  19
ATOM     16  C   UNL     1      44.855   3.777  11.006  0.00  0.00    +0.000 A 
ATOM     17  C   UNL     1      45.337   3.583  12.298  0.00  0.00    +0.000 A 
ATOM     18  C   UNL     1      46.024   4.604  12.960  0.00  0.00    +0.000 A 
ATOM     19  C   UNL     1      46.251   5.842  12.346  0.00  0.00    +0.000 A 
ATOM     20  C   UNL     1      45.789   6.018  11.034  0.00  0.00    +0.000 A 
ATOM     21  C   UNL     1      45.105   4.992  10.369  0.00  0.00    +0.000 A 
BRANCH  16  22
ATOM     22  O   UNL     1      44.161   2.844  10.278  0.00  0.00    +0.000 OA
BRANCH  22  23
ATOM     23  C   UNL     1      44.468   2.830   8.878  0.00  0.00    +0.000 C 
BRANCH  23  24
ATOM     24  C   UNL     1      45.704   1.955   8.620  0.00  0.00    +0.000 C 
BRANCH  24  26
ATOM     25  C   UNL     1      46.720   3.647   7.238  0.00  0.00    +0.000 C 
ATOM     26  N   UNL     1      46.374   2.225   7.329  0.00  0.00    +0.000 NA
ATOM     27  C   UNL     1      47.581   1.416   7.140  0.00  0.00    +0.000 C 
ENDBRANCH  24  26
ENDBRANCH  23  24
ENDBRANCH  22  23
ENDBRANCH  16  22
ENDBRANCH  15  19
ENDBRANCH   1  15
TORSDOF 8
ENDMDL
MODEL 5
REMARK VINA RESULT:    -6.088      1.580      2.206
REMARK INTER + INTRA:          -9.756
REMARK INTER:                  -9.126
REMARK INTRA:                  -0.630
REMARK UNBOUND:                -0.821
REMARK  Name = 
REMARK  10 active torsions:
REMARK  status: ('A' for Active; 'I' for Inactive)
REMARK    1  A    between atoms: C_1  and  N_2
REMARK    2  A    between atoms: N_2  and  C_3
REMARK    3  A    between atoms: N_2  and  C_4
REMARK    4  A    between atoms: C_4  and  C_5
REMARK    5  A    between atoms: C_5  and  O_6
REMARK    6  A    between atoms: O_6  and  C_7
REMARK    7  A    between atoms: C_10  and  C_11
REMARK    8  A    between atoms: C_11  and  C_12
REMARK    9  A    between atoms: C_12  and  N_13
REMARK   10  A    between atoms: C_17  and  C_18
REMARK                            x       y       z     vdW  Elec       q    Type
REMARK                         _______ _______ _______ _____ _____    ______ ____
ROOT
ATOM      1  C   UNL     1      44.408   6.138  10.299  0.00  0.00    +0.000 C 
ENDROOT
BRANCH   1   2
ATOM      2  N   UNL     1      44.221   4.685  10.247  0.00  0.00    +0.000 N 
ATOM      3  C   UNL     1      45.058   4.085   9.282  0.00  0.00    +0.000 A 
ATOM      4  C   UNL     1      44.995   2.706   9.105  0.00  0.00    +0.000 A 
ATOM      5  C   UNL     1      45.810   2.098   8.146  0.00  0.00    +0.000 A 
ATOM      6  C   UNL     1      46.678   2.875   7.378  0.00  0.00    +0.000 A 
ATOM      7  C   UNL     1      46.693   4.234   7.635  0.00  0.00    +0.000 A 
ATOM      8  N   UNL     1      45.914   4.842   8.563  0.00  0.00    +0.000 NA
ATOM      9  H   UNL     1      43.259   4.428  10.040  0.00  0.00    +0.000 HD
BRANCH   6  10
ATOM     10  C   UNL     1      47.521   2.232   6.342  0.00  0.00    +0.000 C 
ATOM     11  N   UNL     1      47.901   2.954   5.245  0.00  0.00    +0.000 N 
ATOM     12  O   UNL     1      47.871   1.061   6.453  0.00  0.00    +0.000 OA
ATOM     13  H   UNL     1      47.658   3.912   5.046  0.00  0.00    +0.000 HD
ATOM     14  H   UNL     1      48.464   2.466   4.560  0.00  0.00    +0.000 HD
ENDBRANCH   6  10
ENDBRANCH   1   2
BRANCH   1  15
ATOM     15  C   UNL     1      44.312   6.690  11.726  0.00  0.00    +0.000 C 
BRANCH  15  19
ATOM     16  C   UNL     1      47.969   6.439  14.065  0.00  0.00    +0.000 A 
ATOM     17  C   UNL     1      47.675   7.600  13.355  0.00  0.00    +0.000 A 
ATOM     18  C   UNL     1      46.507   7.690  12.593  0.00  0.00    +0.000 A 
ATOM     19  C   UNL     1      45.606   6.621  12.518  0.00  0.00    +0.000 A 
ATOM     20  C   UNL     1      45.925   5.444  13.211  0.00  0.00    +0.000 A 
ATOM     21  C   UNL     1      47.099   5.353  13.971  0.00  0.00    +0.000 A 
BRANCH  16  22
ATOM     22  O   UNL     1      49.080   6.257  14.848  0.00  0.00    +0.000 OA
BRANCH  22  23
ATOM     23  C   UNL     1      48.819   6.214  16.257  0.00  0.00    +0.000 C 
BRANCH  23  24
ATOM     24  C   UNL     1      49.503   7.399  16.954  0.00  0.00    +0.000 C 
BRANCH  24  26
ATOM     25  C   UNL     1      47.965   9.019  17.855  0.00  0.00    +0.000 C 
ATOM     26  N   UNL     1      48.838   8.700  16.722  0.00  0.00    +0.000 NA
ATOM     27  C   UNL     1      49.793   9.793  16.520  0.00  0.00    +0.000 C 
ENDBRANCH  24  26
ENDBRANCH  23  24
ENDBRANCH  22  23
ENDBRANCH  16  22
ENDBRANCH  15  19
ENDBRANCH   1  15
TORSDOF 8
ENDMDL
MODEL 6
REMARK VINA RESULT:    -6.044      2.760      8.687
REMARK INTER + INTRA:          -9.692
REMARK INTER:                  -9.409
REMARK INTRA:                  -0.283
REMARK UNBOUND:                -0.821
REMARK  Name = 
REMARK  10 active torsions:
REMARK  status: ('A' for Active; 'I' for Inactive)
REMARK    1  A    between atoms: C_1  and  N_2
REMARK    2  A    between atoms: N_2  and  C_3
REMARK    3  A    between atoms: N_2  and  C_4
REMARK    4  A    between atoms: C_4  and  C_5
REMARK    5  A    between atoms: C_5  and  O_6
REMARK    6  A    between atoms: O_6  and  C_7
REMARK    7  A    between atoms: C_10  and  C_11
REMARK    8  A    between atoms: C_11  and  C_12
REMARK    9  A    between atoms: C_12  and  N_13
REMARK   10  A    between atoms: C_17  and  C_18
REMARK                            x       y       z     vdW  Elec       q    Type
REMARK                         _______ _______ _______ _____ _____    ______ ____
ROOT
ATOM      1  C   UNL     1      47.055   4.544  15.710  0.00  0.00    +0.000 C 
ENDROOT
BRANCH   1   2
ATOM      2  N   UNL     1      47.616   3.203  15.898  0.00  0.00    +0.000 N 
ATOM      3  C   UNL     1      48.874   3.248  16.536  0.00  0.00    +0.000 A 
ATOM      4  C   UNL     1      49.544   2.053  16.781  0.00  0.00    +0.000 A 
ATOM      5  C   UNL     1      50.795   2.082  17.402  0.00  0.00    +0.000 A 
ATOM      6  C   UNL     1      51.360   3.303  17.772  0.00  0.00    +0.000 A 
ATOM      7  C   UNL     1      50.616   4.439  17.512  0.00  0.00    +0.000 A 
ATOM      8  N   UNL     1      49.399   4.432  16.914  0.00  0.00    +0.000 NA
ATOM      9  H   UNL     1      47.721   2.704  15.018  0.00  0.00    +0.000 HD
BRANCH   6  10
ATOM     10  C   UNL     1      52.700   3.332  18.405  0.00  0.00    +0.000 C 
ATOM     11  N   UNL     1      53.164   2.216  19.043  0.00  0.00    +0.000 N 
ATOM     12  O   UNL     1      53.390   4.348  18.371  0.00  0.00    +0.000 OA
ATOM     13  H   UNL     1      52.677   1.339  19.144  0.00  0.00    +0.000 HD
ATOM     14  H   UNL     1      54.079   2.291  19.470  0.00  0.00    +0.000 HD
ENDBRANCH   6  10
ENDBRANCH   1   2
BRANCH   1  15
ATOM     15  C   UNL     1      47.452   5.162  14.364  0.00  0.00    +0.000 C 
BRANCH  15  19
ATOM     16  C   UNL     1      44.710   4.342  11.091  0.00  0.00    +0.000 A 
ATOM     17  C   UNL     1      44.972   3.360  12.042  0.00  0.00    +0.000 A 
ATOM     18  C   UNL     1      45.857   3.608  13.094  0.00  0.00    +0.000 A 
ATOM     19  C   UNL     1      46.507   4.842  13.219  0.00  0.00    +0.000 A 
ATOM     20  C   UNL     1      46.262   5.815  12.239  0.00  0.00    +0.000 A 
ATOM     21  C   UNL     1      45.377   5.563  11.182  0.00  0.00    +0.000 A 
BRANCH  16  22
ATOM     22  O   UNL     1      43.852   4.200  10.030  0.00  0.00    +0.000 OA
BRANCH  22  23
ATOM     23  C   UNL     1      44.493   4.098   8.752  0.00  0.00    +0.000 C 
BRANCH  23  24
ATOM     24  C   UNL     1      44.938   2.649   8.502  0.00  0.00    +0.000 C 
BRANCH  24  26
ATOM     25  C   UNL     1      46.632   1.116   7.739  0.00  0.00    +0.000 C 
ATOM     26  N   UNL     1      46.337   2.520   8.040  0.00  0.00    +0.000 NA
ATOM     27  C   UNL     1      46.619   3.342   6.860  0.00  0.00    +0.000 C 
ENDBRANCH  24  26
ENDBRANCH  23  24
ENDBRANCH  22  23
ENDBRANCH  16  22
ENDBRANCH  15  19
ENDBRANCH   1  15
TORSDOF 8
ENDMDL
MODEL 7
REMARK VINA RESULT:    -5.902      2.604      8.492
REMARK INTER + INTRA:          -9.483
REMARK INTER:                  -8.576
REMARK INTRA:                  -0.907
REMARK UNBOUND:                -0.821
REMARK  Name = 
REMARK  10 active torsions:
REMARK  status: ('A' for Active; 'I' for Inactive)
REMARK    1  A    between atoms: C_1  and  N_2
REMARK    2  A    between atoms: N_2  and  C_3
REMARK    3  A    between atoms: N_2  and  C_4
REMARK    4  A    between atoms: C_4  and  C_5
REMARK    5  A    between atoms: C_5  and  O_6
REMARK    6  A    between atoms: O_6  and  C_7
REMARK    7  A    between atoms: C_10  and  C_11
REMARK    8  A    between atoms: C_11  and  C_12
REMARK    9  A    between atoms: C_12  and  N_13
REMARK   10  A    between atoms: C_17  and  C_18
REMARK                            x       y       z     vdW  Elec       q    Type
REMARK                         _______ _______ _______ _____ _____    ______ ____
ROOT
ATOM      1  C   UNL     1      49.346   7.263  13.940  0.00  0.00    +0.000 C 
ENDROOT
BRANCH   1   2
ATOM      2  N   UNL     1      49.061   7.987  15.181  0.00  0.00    +0.000 N 
ATOM      3  C   UNL     1      48.967   7.113  16.286  0.00  0.00    +0.000 A 
ATOM      4  C   UNL     1      48.692   7.647  17.541  0.00  0.00    +0.000 A 
ATOM      5  C   UNL     1      48.585   6.794  18.643  0.00  0.00    +0.000 A 
ATOM      6  C   UNL     1      48.755   5.419  18.476  0.00  0.00    +0.000 A 
ATOM      7  C   UNL     1      49.048   4.976  17.199  0.00  0.00    +0.000 A 
ATOM      8  N   UNL     1      49.159   5.788  16.119  0.00  0.00    +0.000 NA
ATOM      9  H   UNL     1      48.200   8.524  15.125  0.00  0.00    +0.000 HD
BRANCH   6  10
ATOM     10  C   UNL     1      48.613   4.513  19.640  0.00  0.00    +0.000 C 
ATOM     11  N   UNL     1      48.418   3.176  19.429  0.00  0.00    +0.000 N 
ATOM     12  O   UNL     1      48.658   4.950  20.787  0.00  0.00    +0.000 OA
ATOM     13  H   UNL     1      48.350   2.716  18.535  0.00  0.00    +0.000 HD
ATOM     14  H   UNL     1      48.314   2.602  20.256  0.00  0.00    +0.000 HD
ENDBRANCH   6  10
ENDBRANCH   1   2
BRANCH   1  15
ATOM     15  C   UNL     1      48.331   7.575  12.834  0.00  0.00    +0.000 C 
BRANCH  15  19
ATOM     16  C   UNL     1      44.704   5.183  13.025  0.00  0.00    +0.000 A 
ATOM     17  C   UNL     1      44.651   6.492  12.552  0.00  0.00    +0.000 A 
ATOM     18  C   UNL     1      45.807   7.273  12.493  0.00  0.00    +0.000 A 
ATOM     19  C   UNL     1      47.046   6.769  12.910  0.00  0.00    +0.000 A 
ATOM     20  C   UNL     1      47.085   5.461  13.414  0.00  0.00    +0.000 A 
ATOM     21  C   UNL     1      45.923   4.680  13.477  0.00  0.00    +0.000 A 
BRANCH  16  22
ATOM     22  O   UNL     1      43.630   4.335  13.111  0.00  0.00    +0.000 OA
BRANCH  22  23
ATOM     23  C   UNL     1      43.805   3.078  12.444  0.00  0.00    +0.000 C 
BRANCH  23  24
ATOM     24  C   UNL     1      43.578   3.248  10.935  0.00  0.00    +0.000 C 
BRANCH  24  26
ATOM     25  C   UNL     1      44.724   2.054   9.185  0.00  0.00    +0.000 C 
ATOM     26  N   UNL     1      44.815   3.173  10.127  0.00  0.00    +0.000 NA
ATOM     27  C   UNL     1      45.083   4.411   9.390  0.00  0.00    +0.000 C 
ENDBRANCH  24  26
ENDBRANCH  23  24
ENDBRANCH  22  23
ENDBRANCH  16  22
ENDBRANCH  15  19
ENDBRANCH   1  15
TORSDOF 8
ENDMDL
MODEL 8
REMARK VINA RESULT:    -5.857      2.935      8.111
REMARK INTER + INTRA:          -9.417
REMARK INTER:                  -8.991
REMARK INTRA:                  -0.426
REMARK UNBOUND:                -0.821
REMARK  Name = 
REMARK  10 active torsions:
REMARK  status: ('A' for Active; 'I' for Inactive)
REMARK    1  A    between atoms: C_1  and  N_2
REMARK    2  A    between atoms: N_2  and  C_3
REMARK    3  A    between atoms: N_2  and  C_4
REMARK    4  A    between atoms: C_4  and  C_5
REMARK    5  A    between atoms: C_5  and  O_6
REMARK    6  A    between atoms: O_6  and  C_7
REMARK    7  A    between atoms: C_10  and  C_11
REMARK    8  A    between atoms: C_11  and  C_12
REMARK    9  A    between atoms: C_12  and  N_13
REMARK   10  A    between atoms: C_17  and  C_18
REMARK                            x       y       z     vdW  Elec       q    Type
REMARK                         _______ _______ _______ _____ _____    ______ ____
ROOT
ATOM      1  C   UNL     1      48.762   6.931  16.432  0.00  0.00    +0.000 C 
ENDROOT
BRANCH   1   2
ATOM      2  N   UNL     1      48.134   5.613  16.560  0.00  0.00    +0.000 N 
ATOM      3  C   UNL     1      49.081   4.611  16.862  0.00  0.00    +0.000 A 
ATOM      4  C   UNL     1      48.644   3.298  17.009  0.00  0.00    +0.000 A 
ATOM      5  C   UNL     1      49.571   2.293  17.297  0.00  0.00    +0.000 A 
ATOM      6  C   UNL     1      50.922   2.612  17.435  0.00  0.00    +0.000 A 
ATOM      7  C   UNL     1      51.267   3.944  17.296  0.00  0.00    +0.000 A 
ATOM      8  N   UNL     1      50.382   4.934  17.020  0.00  0.00    +0.000 NA
ATOM      9  H   UNL     1      47.637   5.340  15.716  0.00  0.00    +0.000 HD
BRANCH   6  10
ATOM     10  C   UNL     1      51.907   1.540  17.712  0.00  0.00    +0.000 C 
ATOM     11  N   UNL     1      51.464   0.313  18.122  0.00  0.00    +0.000 N 
ATOM     12  O   UNL     1      53.112   1.744  17.588  0.00  0.00    +0.000 OA
ATOM     13  H   UNL     1      50.504   0.044  18.271  0.00  0.00    +0.000 HD
ATOM     14  H   UNL     1      52.177  -0.380  18.311  0.00  0.00    +0.000 HD
ENDBRANCH   6  10
ENDBRANCH   1   2
BRANCH   1  15
ATOM     15  C   UNL     1      49.104   7.278  14.978  0.00  0.00    +0.000 C 
BRANCH  15  19
ATOM     16  C   UNL     1      45.800   6.974  12.167  0.00  0.00    +0.000 A 
ATOM     17  C   UNL     1      46.073   8.188  12.792  0.00  0.00    +0.000 A 
ATOM     18  C   UNL     1      47.127   8.296  13.702  0.00  0.00    +0.000 A 
ATOM     19  C   UNL     1      47.931   7.193  14.016  0.00  0.00    +0.000 A 
ATOM     20  C   UNL     1      47.629   5.967  13.407  0.00  0.00    +0.000 A 
ATOM     21  C   UNL     1      46.569   5.858  12.497  0.00  0.00    +0.000 A 
BRANCH  16  22
ATOM     22  O   UNL     1      44.798   6.768  11.253  0.00  0.00    +0.000 OA
BRANCH  22  23
ATOM     23  C   UNL     1      43.863   5.743  11.612  0.00  0.00    +0.000 C 
BRANCH  23  24
ATOM     24  C   UNL     1      43.540   4.875  10.386  0.00  0.00    +0.000 C 
BRANCH  24  26
ATOM     25  C   UNL     1      44.458   2.701   9.902  0.00  0.00    +0.000 C 
ATOM     26  N   UNL     1      43.451   3.428  10.680  0.00  0.00    +0.000 NA
ATOM     27  C   UNL     1      43.626   3.130  12.104  0.00  0.00    +0.000 C 
ENDBRANCH  24  26
ENDBRANCH  23  24
ENDBRANCH  22  23
ENDBRANCH  16  22
ENDBRANCH  15  19
ENDBRANCH   1  15
TORSDOF 8
ENDMDL
MODEL 9
REMARK VINA RESULT:    -5.441      3.172      8.143
REMARK INTER + INTRA:          -8.806
REMARK INTER:                  -7.941
REMARK INTRA:                  -0.865
REMARK UNBOUND:                -0.821
REMARK  Name = 
REMARK  10 active torsions:
REMARK  status: ('A' for Active; 'I' for Inactive)
REMARK    1  A    between atoms: C_1  and  N_2
REMARK    2  A    between atoms: N_2  and  C_3
REMARK    3  A    between atoms: N_2  and  C_4
REMARK    4  A    between atoms: C_4  and  C_5
REMARK    5  A    between atoms: C_5  and  O_6
REMARK    6  A    between atoms: O_6  and  C_7
REMARK    7  A    between atoms: C_10  and  C_11
REMARK    8  A    between atoms: C_11  and  C_12
REMARK    9  A    between atoms: C_12  and  N_13
REMARK   10  A    between atoms: C_17  and  C_18
REMARK                            x       y       z     vdW  Elec       q    Type
REMARK                         _______ _______ _______ _____ _____    ______ ____
ROOT
ATOM      1  C   UNL     1      50.359   8.167  13.519  0.00  0.00    +0.000 C 
ENDROOT
BRANCH   1   2
ATOM      2  N   UNL     1      50.052   8.688  14.854  0.00  0.00    +0.000 N 
ATOM      3  C   UNL     1      49.438   7.711  15.667  0.00  0.00    +0.000 A 
ATOM      4  C   UNL     1      49.077   8.052  16.967  0.00  0.00    +0.000 A 
ATOM      5  C   UNL     1      48.458   7.100  17.781  0.00  0.00    +0.000 A 
ATOM      6  C   UNL     1      48.209   5.819  17.287  0.00  0.00    +0.000 A 
ATOM      7  C   UNL     1      48.622   5.558  15.993  0.00  0.00    +0.000 A 
ATOM      8  N   UNL     1      49.226   6.467  15.189  0.00  0.00    +0.000 NA
ATOM      9  H   UNL     1      49.445   9.502  14.819  0.00  0.00    +0.000 HD
BRANCH   6  10
ATOM     10  C   UNL     1      47.528   4.819  18.142  0.00  0.00    +0.000 C 
ATOM     11  N   UNL     1      47.775   4.808  19.487  0.00  0.00    +0.000 N 
ATOM     12  O   UNL     1      46.754   3.998  17.657  0.00  0.00    +0.000 OA
ATOM     13  H   UNL     1      48.401   5.422  19.985  0.00  0.00    +0.000 HD
ATOM     14  H   UNL     1      47.295   4.097  20.025  0.00  0.00    +0.000 HD
ENDBRANCH   6  10
ENDBRANCH   1   2
BRANCH   1  15
ATOM     15  C   UNL     1      49.561   8.875  12.417  0.00  0.00    +0.000 C 
BRANCH  15  19
ATOM     16  C   UNL     1      45.480   7.461  11.917  0.00  0.00    +0.000 A 
ATOM     17  C   UNL     1      45.717   8.759  12.362  0.00  0.00    +0.000 A 
ATOM     18  C   UNL     1      47.023   9.222  12.534  0.00  0.00    +0.000 A 
ATOM     19  C   UNL     1      48.126   8.399  12.271  0.00  0.00    +0.000 A 
ATOM     20  C   UNL     1      47.878   7.084  11.854  0.00  0.00    +0.000 A 
ATOM     21  C   UNL     1      46.567   6.618  11.686  0.00  0.00    +0.000 A 
BRANCH  16  22
ATOM     22  O   UNL     1      44.238   6.917  11.707  0.00  0.00    +0.000 OA
BRANCH  22  23
ATOM     23  C   UNL     1      44.163   5.500  11.912  0.00  0.00    +0.000 C 
BRANCH  23  24
ATOM     24  C   UNL     1      43.531   4.825  10.686  0.00  0.00    +0.000 C 
BRANCH  24  26
ATOM     25  C   UNL     1      44.297   2.669   9.931  0.00  0.00    +0.000 C 
ATOM     26  N   UNL     1      43.364   3.362  10.824  0.00  0.00    +0.000 NA
ATOM     27  C   UNL     1      43.569   2.898  12.199  0.00  0.00    +0.000 C 
ENDBRANCH  24  26
ENDBRANCH  23  24
ENDBRANCH  22  23
ENDBRANCH  16  22
ENDBRANCH  15  19
ENDBRANCH   1  15
TORSDOF 8
ENDMDL
