MODEL 1
REMARK VINA RESULT:    -8.490      0.000      0.000
REMARK INTER + INTRA:         -13.095
REMARK INTER:                 -12.212
REMARK INTRA:                  -0.883
REMARK UNBOUND:                -0.883
REMARK  Name = 
REMARK  8 active torsions:
REMARK  status: ('A' for Active; 'I' for Inactive)
REMARK    1  A    between atoms: N_1  and  C_2
REMARK    2  A    between atoms: C_2  and  C_3
REMARK    3  A    between atoms: C_2  and  C_24
REMARK    4  A    between atoms: C_3  and  C_4
REMARK    5  A    between atoms: C_7  and  C_8
REMARK    6  A    between atoms: C_8  and  N_9
REMARK    7  A    between atoms: C_10  and  C_12
REMARK    8  A    between atoms: C_24  and  C_26
REMARK                            x       y       z     vdW  Elec       q    Type
REMARK                         _______ _______ _______ _____ _____    ______ ____
ROOT
ATOM      1  C   UNL     1      45.672   4.685  12.090  0.00  0.00    +0.000 A 
ATOM      2  C   UNL     1      46.061   5.941  11.603  0.00  0.00    +0.000 A 
ATOM      3  C   UNL     1      47.034   6.694  12.266  0.00  0.00    +0.000 A 
ATOM      4  C   UNL     1      47.635   6.208  13.434  0.00  0.00    +0.000 A 
ATOM      5  C   UNL     1      47.212   4.973  13.945  0.00  0.00    +0.000 A 
ATOM      6  C   UNL     1      46.249   4.214  13.275  0.00  0.00    +0.000 A 
ENDROOT
BRANCH   1   7
ATOM      7  C   UNL     1      44.676   3.839  11.325  0.00  0.00    +0.000 C 
BRANCH   7   8
ATOM      8  C   UNL     1      44.786   4.004   9.790  0.00  0.00    +0.000 C 
BRANCH   8   9
ATOM      9  N   UNL     1      43.611   4.678   9.198  0.00  0.00    +0.000 NA
ATOM     10  H   UNL     1      42.889   4.757   9.917  0.00  0.00    +0.000 HD
ATOM     11  H   UNL     1      43.214   4.065   8.482  0.00  0.00    +0.000 HD
ENDBRANCH   8   9
BRANCH   8  12
ATOM     12  C   UNL     1      44.930   2.628   9.124  0.00  0.00    +0.000 C 
ATOM     13  O   UNL     1      44.267   1.650   9.471  0.00  0.00    +0.000 OA
BRANCH  12  14
ATOM     14  C   UNL     1      45.899   2.473   8.012  0.00  0.00    +0.000 A 
ATOM     15  C   UNL     1      46.136   3.466   7.059  0.00  0.00    +0.000 A 
ATOM     16  C   UNL     1      47.054   3.229   6.037  0.00  0.00    +0.000 A 
ATOM     17  C   UNL     1      47.712   2.010   6.012  0.00  0.00    +0.000 A 
ATOM     18  N   UNL     1      47.513   1.032   6.920  0.00  0.00    +0.000 NA
ATOM     19  C   UNL     1      46.599   1.279   7.893  0.00  0.00    +0.000 A 
ENDBRANCH  12  14
ENDBRANCH   8  12
ENDBRANCH   7   8
ENDBRANCH   1   7
BRANCH   4  20
ATOM     20  C   UNL     1      48.683   7.010  14.160  0.00  0.00    +0.000 C 
BRANCH  20  21
ATOM     21  N   UNL     1      48.359   7.142  15.556  0.00  0.00    +0.000 N 
ATOM     22  C   UNL     1      49.221   6.712  16.532  0.00  0.00    +0.000 C 
ATOM     23  O   UNL     1      50.317   6.228  16.266  0.00  0.00    +0.000 OA
ATOM     24  H   UNL     1      47.384   7.304  15.788  0.00  0.00    +0.000 HD
BRANCH  22  25
ATOM     25  C   UNL     1      48.789   6.920  17.920  0.00  0.00    +0.000 A 
ATOM     26  C   UNL     1      48.438   8.193  18.346  0.00  0.00    +0.000 A 
ATOM     27  S   UNL     1      47.912   8.249  19.967  0.00  0.00    +0.000 S 
ATOM     28  C   UNL     1      48.185   6.583  20.172  0.00  0.00    +0.000 A 
ATOM     29  N   UNL     1      47.957   5.977  21.368  0.00  0.00    +0.000 NA
ATOM     30  C   UNL     1      48.228   4.717  21.389  0.00  0.00    +0.000 A 
ATOM     31  N   UNL     1      48.702   4.001  20.319  0.00  0.00    +0.000 N 
ATOM     32  C   UNL     1      48.926   4.564  19.086  0.00  0.00    +0.000 A 
ATOM     33  O   UNL     1      49.313   3.888  18.138  0.00  0.00    +0.000 OA
ATOM     34  C   UNL     1      48.646   5.988  19.011  0.00  0.00    +0.000 A 
ATOM     35  H   UNL     1      48.884   3.012  20.399  0.00  0.00    +0.000 HD
ENDBRANCH  22  25
ENDBRANCH  20  21
ENDBRANCH   4  20
TORSDOF 8
ENDMDL
MODEL 2
REMARK VINA RESULT:    -8.400      1.246      2.058
REMARK INTER + INTRA:         -12.966
REMARK INTER:                 -11.908
REMARK INTRA:                  -1.058
REMARK UNBOUND:                -0.883
REMARK  Name = 
REMARK  8 active torsions:
REMARK  status: ('A' for Active; 'I' for Inactive)
REMARK    1  A    between atoms: N_1  and  C_2
REMARK    2  A    between atoms: C_2  and  C_3
REMARK    3  A    between atoms: C_2  and  C_24
REMARK    4  A    between atoms: C_3  and  C_4
REMARK    5  A    between atoms: C_7  and  C_8
REMARK    6  A    between atoms: C_8  and  N_9
REMARK    7  A    between atoms: C_10  and  C_12
REMARK    8  A    between atoms: C_24  and  C_26
REMARK                            x       y       z     vdW  Elec       q    Type
REMARK                         _______ _______ _______ _____ _____    ______ ____
ROOT
ATOM      1  C   UNL     1      45.645   4.602  12.099  0.00  0.00    +0.000 A 
ATOM      2  C   UNL     1      46.113   4.083  13.314  0.00  0.00    +0.000 A 
ATOM      3  C   UNL     1      47.007   4.811  14.105  0.00  0.00    +0.000 A 
ATOM      4  C   UNL     1      47.455   6.072  13.693  0.00  0.00    +0.000 A 
ATOM      5  C   UNL     1      47.021   6.570  12.456  0.00  0.00    +0.000 A 
ATOM      6  C   UNL     1      46.118   5.848  11.672  0.00  0.00    +0.000 A 
ENDROOT
BRANCH   1   7
ATOM      7  C   UNL     1      44.617   3.845  11.285  0.00  0.00    +0.000 C 
BRANCH   7   8
ATOM      8  C   UNL     1      44.795   4.021   9.758  0.00  0.00    +0.000 C 
BRANCH   8   9
ATOM      9  N   UNL     1      43.648   4.699   9.118  0.00  0.00    +0.000 NA
ATOM     10  H   UNL     1      43.310   4.108   8.356  0.00  0.00    +0.000 HD
ATOM     11  H   UNL     1      43.987   5.553   8.670  0.00  0.00    +0.000 HD
ENDBRANCH   8   9
BRANCH   8  12
ATOM     12  C   UNL     1      44.970   2.650   9.088  0.00  0.00    +0.000 C 
ATOM     13  O   UNL     1      44.323   1.659   9.428  0.00  0.00    +0.000 OA
BRANCH  12  14
ATOM     14  C   UNL     1      45.949   2.516   7.983  0.00  0.00    +0.000 A 
ATOM     15  C   UNL     1      46.160   3.509   7.023  0.00  0.00    +0.000 A 
ATOM     16  C   UNL     1      47.090   3.293   6.008  0.00  0.00    +0.000 A 
ATOM     17  C   UNL     1      47.787   2.095   5.995  0.00  0.00    +0.000 A 
ATOM     18  N   UNL     1      47.612   1.118   6.910  0.00  0.00    +0.000 NA
ATOM     19  C   UNL     1      46.687   1.344   7.877  0.00  0.00    +0.000 A 
ENDBRANCH  12  14
ENDBRANCH   8  12
ENDBRANCH   7   8
ENDBRANCH   1   7
BRANCH   4  20
ATOM     20  C   UNL     1      48.420   6.866  14.534  0.00  0.00    +0.000 C 
BRANCH  20  21
ATOM     21  N   UNL     1      48.219   6.607  15.936  0.00  0.00    +0.000 N 
ATOM     22  C   UNL     1      49.237   6.142  16.727  0.00  0.00    +0.000 C 
ATOM     23  O   UNL     1      50.370   5.958  16.291  0.00  0.00    +0.000 OA
ATOM     24  H   UNL     1      47.259   6.516  16.254  0.00  0.00    +0.000 HD
BRANCH  22  25
ATOM     25  C   UNL     1      48.917   5.936  18.146  0.00  0.00    +0.000 A 
ATOM     26  C   UNL     1      49.174   4.707  18.735  0.00  0.00    +0.000 A 
ATOM     27  S   UNL     1      48.793   4.653  20.396  0.00  0.00    +0.000 S 
ATOM     28  C   UNL     1      48.223   6.255  20.374  0.00  0.00    +0.000 A 
ATOM     29  N   UNL     1      47.716   6.834  21.495  0.00  0.00    +0.000 NA
ATOM     30  C   UNL     1      47.299   8.043  21.331  0.00  0.00    +0.000 A 
ATOM     31  N   UNL     1      47.348   8.732  20.146  0.00  0.00    +0.000 N 
ATOM     32  C   UNL     1      47.871   8.198  18.993  0.00  0.00    +0.000 A 
ATOM     33  O   UNL     1      47.937   8.855  17.959  0.00  0.00    +0.000 OA
ATOM     34  C   UNL     1      48.347   6.830  19.122  0.00  0.00    +0.000 A 
ATOM     35  H   UNL     1      47.014   9.683  20.086  0.00  0.00    +0.000 HD
ENDBRANCH  22  25
ENDBRANCH  20  21
ENDBRANCH   4  20
TORSDOF 8
ENDMDL
MODEL 3
REMARK VINA RESULT:    -8.069      3.049      3.919
REMARK INTER + INTRA:         -12.489
REMARK INTER:                 -11.329
REMARK INTRA:                  -1.160
REMARK UNBOUND:                -0.883
REMARK  Name = 
REMARK  8 active torsions:
REMARK  status: ('A' for Active; 'I' for Inactive)
REMARK    1  A    between atoms: N_1  and  C_2
REMARK    2  A    between atoms: C_2  and  C_3
REMARK    3  A    between atoms: C_2  and  C_24
REMARK    4  A    between atoms: C_3  and  C_4
REMARK    5  A    between atoms: C_7  and  C_8
REMARK    6  A    between atoms: C_8  and  N_9
REMARK    7  A    between atoms: C_10  and  C_12
REMARK    8  A    between atoms: C_24  and  C_26
REMARK                            x       y       z     vdW  Elec       q    Type
REMARK                         _______ _______ _______ _____ _____    ______ ____
ROOT
ATOM      1  C   UNL     1      46.696   4.813  13.782  0.00  0.00    +0.000 A 
ATOM      2  C   UNL     1      47.362   5.980  13.381  0.00  0.00    +0.000 A 
ATOM      3  C   UNL     1      48.269   6.614  14.234  0.00  0.00    +0.000 A 
ATOM      4  C   UNL     1      48.525   6.097  15.510  0.00  0.00    +0.000 A 
ATOM      5  C   UNL     1      47.825   4.956  15.927  0.00  0.00    +0.000 A 
ATOM      6  C   UNL     1      46.928   4.314  15.069  0.00  0.00    +0.000 A 
ENDROOT
BRANCH   1   7
ATOM      7  C   UNL     1      45.775   4.086  12.825  0.00  0.00    +0.000 C 
BRANCH   7   8
ATOM      8  C   UNL     1      44.800   5.029  12.080  0.00  0.00    +0.000 C 
BRANCH   8   9
ATOM      9  N   UNL     1      43.797   5.644  12.973  0.00  0.00    +0.000 NA
ATOM     10  H   UNL     1      43.380   4.907  13.546  0.00  0.00    +0.000 HD
ATOM     11  H   UNL     1      43.033   6.007  12.400  0.00  0.00    +0.000 HD
ENDBRANCH   8   9
BRANCH   8  12
ATOM     12  C   UNL     1      44.049   4.250  10.989  0.00  0.00    +0.000 C 
ATOM     13  O   UNL     1      42.841   4.022  11.049  0.00  0.00    +0.000 OA
BRANCH  12  14
ATOM     14  C   UNL     1      44.808   3.762   9.812  0.00  0.00    +0.000 A 
ATOM     15  C   UNL     1      44.993   2.408   9.528  0.00  0.00    +0.000 A 
ATOM     16  C   UNL     1      45.736   2.038   8.408  0.00  0.00    +0.000 A 
ATOM     17  C   UNL     1      46.257   3.037   7.603  0.00  0.00    +0.000 A 
ATOM     18  N   UNL     1      46.092   4.355   7.843  0.00  0.00    +0.000 NA
ATOM     19  C   UNL     1      45.382   4.689   8.951  0.00  0.00    +0.000 A 
ENDBRANCH  12  14
ENDBRANCH   8  12
ENDBRANCH   7   8
ENDBRANCH   1   7
BRANCH   4  20
ATOM     20  C   UNL     1      49.498   6.772  16.440  0.00  0.00    +0.000 C 
BRANCH  20  21
ATOM     21  N   UNL     1      50.531   5.861  16.859  0.00  0.00    +0.000 N 
ATOM     22  C   UNL     1      50.609   5.417  18.154  0.00  0.00    +0.000 C 
ATOM     23  O   UNL     1      49.788   5.745  19.005  0.00  0.00    +0.000 OA
ATOM     24  H   UNL     1      51.342   5.775  16.253  0.00  0.00    +0.000 HD
BRANCH  22  25
ATOM     25  C   UNL     1      51.693   4.473  18.455  0.00  0.00    +0.000 A 
ATOM     26  C   UNL     1      52.783   4.896  19.202  0.00  0.00    +0.000 A 
ATOM     27  S   UNL     1      53.923   3.665  19.504  0.00  0.00    +0.000 S 
ATOM     28  C   UNL     1      53.025   2.536  18.603  0.00  0.00    +0.000 A 
ATOM     29  N   UNL     1      53.468   1.261  18.436  0.00  0.00    +0.000 NA
ATOM     30  C   UNL     1      52.702   0.520  17.712  0.00  0.00    +0.000 A 
ATOM     31  N   UNL     1      51.525   0.934  17.141  0.00  0.00    +0.000 N 
ATOM     32  C   UNL     1      51.026   2.204  17.300  0.00  0.00    +0.000 A 
ATOM     33  O   UNL     1      49.950   2.532  16.810  0.00  0.00    +0.000 OA
ATOM     34  C   UNL     1      51.859   3.086  18.101  0.00  0.00    +0.000 A 
ATOM     35  H   UNL     1      50.965   0.299  16.593  0.00  0.00    +0.000 HD
ENDBRANCH  22  25
ENDBRANCH  20  21
ENDBRANCH   4  20
TORSDOF 8
ENDMDL
MODEL 4
REMARK VINA RESULT:    -8.062      2.055      2.383
REMARK INTER + INTRA:         -12.480
REMARK INTER:                 -11.701
REMARK INTRA:                  -0.779
REMARK UNBOUND:                -0.883
REMARK  Name = 
REMARK  8 active torsions:
REMARK  status: ('A' for Active; 'I' for Inactive)
REMARK    1  A    between atoms: N_1  and  C_2
REMARK    2  A    between atoms: C_2  and  C_3
REMARK    3  A    between atoms: C_2  and  C_24
REMARK    4  A    between atoms: C_3  and  C_4
REMARK    5  A    between atoms: C_7  and  C_8
REMARK    6  A    between atoms: C_8  and  N_9
REMARK    7  A    between atoms: C_10  and  C_12
REMARK    8  A    between atoms: C_24  and  C_26
REMARK                            x       y       z     vdW  Elec       q    Type
REMARK                         _______ _______ _______ _____ _____    ______ ____
ROOT
ATOM      1  C   UNL     1      44.672   5.377  10.837  0.00  0.00    +0.000 A 
ATOM      2  C   UNL     1      45.889   5.889  10.367  0.00  0.00    +0.000 A 
ATOM      3  C   UNL     1      46.623   6.801  11.130  0.00  0.00    +0.000 A 
ATOM      4  C   UNL     1      46.151   7.225  12.378  0.00  0.00    +0.000 A 
ATOM      5  C   UNL     1      44.912   6.748  12.827  0.00  0.00    +0.000 A 
ATOM      6  C   UNL     1      44.185   5.825  12.071  0.00  0.00    +0.000 A 
ENDROOT
BRANCH   1   7
ATOM      7  C   UNL     1      43.920   4.329  10.044  0.00  0.00    +0.000 C 
BRANCH   7   8
ATOM      8  C   UNL     1      44.264   2.880  10.466  0.00  0.00    +0.000 C 
BRANCH   8   9
ATOM      9  N   UNL     1      45.499   2.792  11.273  0.00  0.00    +0.000 NA
ATOM     10  H   UNL     1      45.296   3.147  12.211  0.00  0.00    +0.000 HD
ATOM     11  H   UNL     1      46.187   3.439  10.882  0.00  0.00    +0.000 HD
ENDBRANCH   8   9
BRANCH   8  12
ATOM     12  C   UNL     1      44.448   2.001   9.220  0.00  0.00    +0.000 C 
ATOM     13  O   UNL     1      43.661   1.104   8.919  0.00  0.00    +0.000 OA
BRANCH  12  14
ATOM     14  C   UNL     1      45.617   2.248   8.340  0.00  0.00    +0.000 A 
ATOM     15  C   UNL     1      45.914   3.500   7.797  0.00  0.00    +0.000 A 
ATOM     16  C   UNL     1      47.024   3.638   6.966  0.00  0.00    +0.000 A 
ATOM     17  C   UNL     1      47.806   2.522   6.717  0.00  0.00    +0.000 A 
ATOM     18  N   UNL     1      47.551   1.300   7.231  0.00  0.00    +0.000 NA
ATOM     19  C   UNL     1      46.453   1.187   8.021  0.00  0.00    +0.000 A 
ENDBRANCH  12  14
ENDBRANCH   8  12
ENDBRANCH   7   8
ENDBRANCH   1   7
BRANCH   4  20
ATOM     20  C   UNL     1      46.931   8.210  13.209  0.00  0.00    +0.000 C 
BRANCH  20  21
ATOM     21  N   UNL     1      47.375   7.611  14.441  0.00  0.00    +0.000 N 
ATOM     22  C   UNL     1      48.474   6.793  14.479  0.00  0.00    +0.000 C 
ATOM     23  O   UNL     1      49.148   6.559  13.480  0.00  0.00    +0.000 OA
ATOM     24  H   UNL     1      46.710   7.589  15.207  0.00  0.00    +0.000 HD
BRANCH  22  25
ATOM     25  C   UNL     1      48.843   6.258  15.797  0.00  0.00    +0.000 A 
ATOM     26  C   UNL     1      49.820   6.896  16.547  0.00  0.00    +0.000 A 
ATOM     27  S   UNL     1      50.088   6.178  18.070  0.00  0.00    +0.000 S 
ATOM     28  C   UNL     1      48.945   4.958  17.758  0.00  0.00    +0.000 A 
ATOM     29  N   UNL     1      48.703   3.976  18.667  0.00  0.00    +0.000 NA
ATOM     30  C   UNL     1      47.830   3.105  18.293  0.00  0.00    +0.000 A 
ATOM     31  N   UNL     1      47.170   3.126  17.091  0.00  0.00    +0.000 N 
ATOM     32  C   UNL     1      47.365   4.109  16.150  0.00  0.00    +0.000 A 
ATOM     33  O   UNL     1      46.729   4.122  15.102  0.00  0.00    +0.000 OA
ATOM     34  C   UNL     1      48.348   5.113  16.520  0.00  0.00    +0.000 A 
ATOM     35  H   UNL     1      46.489   2.418  16.862  0.00  0.00    +0.000 HD
ENDBRANCH  22  25
ENDBRANCH  20  21
ENDBRANCH   4  20
TORSDOF 8
ENDMDL
MODEL 5
REMARK VINA RESULT:    -7.914      2.588      3.307
REMARK INTER + INTRA:         -12.266
REMARK INTER:                 -10.910
REMARK INTRA:                  -1.356
REMARK UNBOUND:                -0.883
REMARK  Name = 
REMARK  8 active torsions:
REMARK  status: ('A' for Active; 'I' for Inactive)
REMARK    1  A    between atoms: N_1  and  C_2
REMARK    2  A    between atoms: C_2  and  C_3
REMARK    3  A    between atoms: C_2  and  C_24
REMARK    4  A    between atoms: C_3  and  C_4
REMARK    5  A    between atoms: C_7  and  C_8
REMARK    6  A    between atoms: C_8  and  N_9
REMARK    7  A    between atoms: C_10  and  C_12
REMARK    8  A    between atoms: C_24  and  C_26
REMARK                            x       y       z     vdW  Elec       q    Type
REMARK                         _______ _______ _______ _____ _____    ______ ____
ROOT
ATOM      1  C   UNL     1      45.406   5.958  12.761  0.00  0.00    +0.000 A 
ATOM      2  C   UNL     1      46.527   5.296  13.280  0.00  0.00    +0.000 A 
ATOM      3  C   UNL     1      47.779   5.918  13.297  0.00  0.00    +0.000 A 
ATOM      4  C   UNL     1      47.936   7.213  12.789  0.00  0.00    +0.000 A 
ATOM      5  C   UNL     1      46.823   7.856  12.228  0.00  0.00    +0.000 A 
ATOM      6  C   UNL     1      45.569   7.241  12.224  0.00  0.00    +0.000 A 
ENDROOT
BRANCH   1   7
ATOM      7  C   UNL     1      44.037   5.312  12.818  0.00  0.00    +0.000 C 
BRANCH   7   8
ATOM      8  C   UNL     1      43.379   5.150  11.426  0.00  0.00    +0.000 C 
BRANCH   8   9
ATOM      9  N   UNL     1      41.923   5.401  11.445  0.00  0.00    +0.000 NA
ATOM     10  H   UNL     1      41.522   5.036  10.578  0.00  0.00    +0.000 HD
ATOM     11  H   UNL     1      41.769   6.411  11.410  0.00  0.00    +0.000 HD
ENDBRANCH   8   9
BRANCH   8  12
ATOM     12  C   UNL     1      43.609   3.725  10.901  0.00  0.00    +0.000 C 
ATOM     13  O   UNL     1      43.041   2.743  11.378  0.00  0.00    +0.000 OA
BRANCH  12  14
ATOM     14  C   UNL     1      44.544   3.526   9.767  0.00  0.00    +0.000 A 
ATOM     15  C   UNL     1      44.931   2.266   9.306  0.00  0.00    +0.000 A 
ATOM     16  C   UNL     1      45.829   2.172   8.245  0.00  0.00    +0.000 A 
ATOM     17  C   UNL     1      46.300   3.343   7.672  0.00  0.00    +0.000 A 
ATOM     18  N   UNL     1      45.942   4.576   8.088  0.00  0.00    +0.000 NA
ATOM     19  C   UNL     1      45.082   4.641   9.136  0.00  0.00    +0.000 A 
ENDBRANCH  12  14
ENDBRANCH   8  12
ENDBRANCH   7   8
ENDBRANCH   1   7
BRANCH   4  20
ATOM     20  C   UNL     1      49.280   7.894  12.798  0.00  0.00    +0.000 C 
BRANCH  20  21
ATOM     21  N   UNL     1      50.167   7.274  13.747  0.00  0.00    +0.000 N 
ATOM     22  C   UNL     1      50.600   7.945  14.862  0.00  0.00    +0.000 C 
ATOM     23  O   UNL     1      50.228   9.086  15.121  0.00  0.00    +0.000 OA
ATOM     24  H   UNL     1      50.670   6.449  13.436  0.00  0.00    +0.000 HD
BRANCH  22  25
ATOM     25  C   UNL     1      51.485   7.201  15.768  0.00  0.00    +0.000 A 
ATOM     26  C   UNL     1      52.828   7.537  15.843  0.00  0.00    +0.000 A 
ATOM     27  S   UNL     1      53.701   6.612  16.979  0.00  0.00    +0.000 S 
ATOM     28  C   UNL     1      52.324   5.694  17.372  0.00  0.00    +0.000 A 
ATOM     29  N   UNL     1      52.390   4.686  18.281  0.00  0.00    +0.000 NA
ATOM     30  C   UNL     1      51.279   4.059  18.466  0.00  0.00    +0.000 A 
ATOM     31  N   UNL     1      50.101   4.351  17.827  0.00  0.00    +0.000 N 
ATOM     32  C   UNL     1      49.980   5.373  16.917  0.00  0.00    +0.000 A 
ATOM     33  O   UNL     1      48.902   5.634  16.392  0.00  0.00    +0.000 OA
ATOM     34  C   UNL     1      51.209   6.107  16.664  0.00  0.00    +0.000 A 
ATOM     35  H   UNL     1      49.262   3.827  18.025  0.00  0.00    +0.000 HD
ENDBRANCH  22  25
ENDBRANCH  20  21
ENDBRANCH   4  20
TORSDOF 8
ENDMDL
MODEL 6
REMARK VINA RESULT:    -7.884      1.308      1.860
REMARK INTER + INTRA:         -12.224
REMARK INTER:                 -11.191
REMARK INTRA:                  -1.032
REMARK UNBOUND:                -0.883
REMARK  Name = 
REMARK  8 active torsions:
REMARK  status: ('A' for Active; 'I' for Inactive)
REMARK    1  A    between atoms: N_1  and  C_2
REMARK    2  A    between atoms: C_2  and  C_3
REMARK    3  A    between atoms: C_2  and  C_24
REMARK    4  A    between atoms: C_3  and  C_4
REMARK    5  A    between atoms: C_7  and  C_8
REMARK    6  A    between atoms: C_8  and  N_9
REMARK    7  A    between atoms: C_10  and  C_12
REMARK    8  A    between atoms: C_24  and  C_26
REMARK                            x       y       z     vdW  Elec       q    Type
REMARK                         _______ _______ _______ _____ _____    ______ ____
ROOT
ATOM      1  C   UNL     1      45.572   5.529  13.066  0.00  0.00    +0.000 A 
ATOM      2  C   UNL     1      46.357   4.820  13.986  0.00  0.00    +0.000 A 
ATOM      3  C   UNL     1      47.535   5.374  14.495  0.00  0.00    +0.000 A 
ATOM      4  C   UNL     1      47.954   6.648  14.091  0.00  0.00    +0.000 A 
ATOM      5  C   UNL     1      47.191   7.337  13.137  0.00  0.00    +0.000 A 
ATOM      6  C   UNL     1      46.007   6.789  12.638  0.00  0.00    +0.000 A 
ENDROOT
BRANCH   1   7
ATOM      7  C   UNL     1      44.257   4.959  12.578  0.00  0.00    +0.000 C 
BRANCH   7   8
ATOM      8  C   UNL     1      44.075   5.065  11.045  0.00  0.00    +0.000 C 
BRANCH   8   9
ATOM      9  N   UNL     1      42.837   5.774  10.659  0.00  0.00    +0.000 NA
ATOM     10  H   UNL     1      42.214   5.106  10.199  0.00  0.00    +0.000 HD
ATOM     11  H   UNL     1      43.070   6.465   9.943  0.00  0.00    +0.000 HD
ENDBRANCH   8   9
BRANCH   8  12
ATOM     12  C   UNL     1      44.032   3.662  10.423  0.00  0.00    +0.000 C 
ATOM     13  O   UNL     1      43.256   2.789  10.810  0.00  0.00    +0.000 OA
BRANCH  12  14
ATOM     14  C   UNL     1      44.958   3.349   9.307  0.00  0.00    +0.000 A 
ATOM     15  C   UNL     1      45.397   2.055   9.016  0.00  0.00    +0.000 A 
ATOM     16  C   UNL     1      46.280   1.854   7.957  0.00  0.00    +0.000 A 
ATOM     17  C   UNL     1      46.684   2.953   7.217  0.00  0.00    +0.000 A 
ATOM     18  N   UNL     1      46.274   4.215   7.466  0.00  0.00    +0.000 NA
ATOM     19  C   UNL     1      45.430   4.387   8.515  0.00  0.00    +0.000 A 
ENDBRANCH  12  14
ENDBRANCH   8  12
ENDBRANCH   7   8
ENDBRANCH   1   7
BRANCH   4  20
ATOM     20  C   UNL     1      49.223   7.255  14.630  0.00  0.00    +0.000 C 
BRANCH  20  21
ATOM     21  N   UNL     1      49.185   7.343  16.066  0.00  0.00    +0.000 N 
ATOM     22  C   UNL     1      49.987   6.555  16.850  0.00  0.00    +0.000 C 
ATOM     23  O   UNL     1      50.795   5.765  16.370  0.00  0.00    +0.000 OA
ATOM     24  H   UNL     1      48.373   7.794  16.478  0.00  0.00    +0.000 HD
BRANCH  22  25
ATOM     25  C   UNL     1      49.874   6.750  18.302  0.00  0.00    +0.000 A 
ATOM     26  C   UNL     1      50.292   7.946  18.867  0.00  0.00    +0.000 A 
ATOM     27  S   UNL     1      50.044   8.028  20.552  0.00  0.00    +0.000 S 
ATOM     28  C   UNL     1      49.417   6.448  20.593  0.00  0.00    +0.000 A 
ATOM     29  N   UNL     1      49.028   5.878  21.764  0.00  0.00    +0.000 NA
ATOM     30  C   UNL     1      48.594   4.670  21.653  0.00  0.00    +0.000 A 
ATOM     31  N   UNL     1      48.507   3.976  20.473  0.00  0.00    +0.000 N 
ATOM     32  C   UNL     1      48.867   4.516  19.262  0.00  0.00    +0.000 A 
ATOM     33  O   UNL     1      48.740   3.883  18.219  0.00  0.00    +0.000 OA
ATOM     34  C   UNL     1      49.374   5.876  19.333  0.00  0.00    +0.000 A 
ATOM     35  H   UNL     1      48.148   3.033  20.453  0.00  0.00    +0.000 HD
ENDBRANCH  22  25
ENDBRANCH  20  21
ENDBRANCH   4  20
TORSDOF 8
ENDMDL
MODEL 7
REMARK VINA RESULT:    -7.497      3.043      9.340
REMARK INTER + INTRA:         -11.667
REMARK INTER:                  -9.907
REMARK INTRA:                  -1.760
REMARK UNBOUND:                -0.883
REMARK  Name = 
REMARK  8 active torsions:
REMARK  status: ('A' for Active; 'I' for Inactive)
REMARK    1  A    between atoms: N_1  and  C_2
REMARK    2  A    between atoms: C_2  and  C_3
REMARK    3  A    between atoms: C_2  and  C_24
REMARK    4  A    between atoms: C_3  and  C_4
REMARK    5  A    between atoms: C_7  and  C_8
REMARK    6  A    between atoms: C_8  and  N_9
REMARK    7  A    between atoms: C_10  and  C_12
REMARK    8  A    between atoms: C_24  and  C_26
REMARK                            x       y       z     vdW  Elec       q    Type
REMARK                         _______ _______ _______ _____ _____    ______ ____
ROOT
ATOM      1  C   UNL     1      48.859   8.053  16.342  0.00  0.00    +0.000 A 
ATOM      2  C   UNL     1      48.107   9.058  15.718  0.00  0.00    +0.000 A 
ATOM      3  C   UNL     1      47.761   8.958  14.367  0.00  0.00    +0.000 A 
ATOM      4  C   UNL     1      48.165   7.850  13.611  0.00  0.00    +0.000 A 
ATOM      5  C   UNL     1      48.955   6.868  14.224  0.00  0.00    +0.000 A 
ATOM      6  C   UNL     1      49.289   6.962  15.578  0.00  0.00    +0.000 A 
ENDROOT
BRANCH   1   7
ATOM      7  C   UNL     1      49.162   8.128  17.823  0.00  0.00    +0.000 C 
BRANCH   7   8
ATOM      8  C   UNL     1      48.003   7.615  18.711  0.00  0.00    +0.000 C 
BRANCH   8   9
ATOM      9  N   UNL     1      47.665   8.543  19.810  0.00  0.00    +0.000 NA
ATOM     10  H   UNL     1      47.796   9.500  19.475  0.00  0.00    +0.000 HD
ATOM     11  H   UNL     1      48.351   8.421  20.558  0.00  0.00    +0.000 HD
ENDBRANCH   8   9
BRANCH   8  12
ATOM     12  C   UNL     1      48.378   6.261  19.332  0.00  0.00    +0.000 C 
ATOM     13  O   UNL     1      48.733   6.144  20.505  0.00  0.00    +0.000 OA
BRANCH  12  14
ATOM     14  C   UNL     1      48.300   5.044  18.487  0.00  0.00    +0.000 A 
ATOM     15  C   UNL     1      49.402   4.232  18.212  0.00  0.00    +0.000 A 
ATOM     16  C   UNL     1      49.242   3.115  17.393  0.00  0.00    +0.000 A 
ATOM     17  C   UNL     1      47.981   2.842  16.889  0.00  0.00    +0.000 A 
ATOM     18  N   UNL     1      46.893   3.602  17.140  0.00  0.00    +0.000 NA
ATOM     19  C   UNL     1      47.080   4.695  17.923  0.00  0.00    +0.000 A 
ENDBRANCH  12  14
ENDBRANCH   8  12
ENDBRANCH   7   8
ENDBRANCH   1   7
BRANCH   4  20
ATOM     20  C   UNL     1      47.802   7.731  12.154  0.00  0.00    +0.000 C 
BRANCH  20  21
ATOM     21  N   UNL     1      47.065   6.519  11.902  0.00  0.00    +0.000 N 
ATOM     22  C   UNL     1      45.701   6.474  12.032  0.00  0.00    +0.000 C 
ATOM     23  O   UNL     1      45.042   7.465  12.334  0.00  0.00    +0.000 OA
ATOM     24  H   UNL     1      47.595   5.653  11.896  0.00  0.00    +0.000 HD
BRANCH  22  25
ATOM     25  C   UNL     1      45.060   5.189  11.727  0.00  0.00    +0.000 A 
ATOM     26  C   UNL     1      44.366   4.515  12.721  0.00  0.00    +0.000 A 
ATOM     27  S   UNL     1      43.640   3.068  12.187  0.00  0.00    +0.000 S 
ATOM     28  C   UNL     1      44.273   3.264  10.620  0.00  0.00    +0.000 A 
ATOM     29  N   UNL     1      44.046   2.337   9.652  0.00  0.00    +0.000 NA
ATOM     30  C   UNL     1      44.603   2.599   8.520  0.00  0.00    +0.000 A 
ATOM     31  N   UNL     1      45.365   3.710   8.262  0.00  0.00    +0.000 N 
ATOM     32  C   UNL     1      45.604   4.684   9.201  0.00  0.00    +0.000 A 
ATOM     33  O   UNL     1      46.257   5.686   8.928  0.00  0.00    +0.000 OA
ATOM     34  C   UNL     1      45.006   4.431  10.501  0.00  0.00    +0.000 A 
ATOM     35  H   UNL     1      45.765   3.862   7.349  0.00  0.00    +0.000 HD
ENDBRANCH  22  25
ENDBRANCH  20  21
ENDBRANCH   4  20
TORSDOF 8
ENDMDL
MODEL 8
REMARK VINA RESULT:    -7.421      4.733      7.164
REMARK INTER + INTRA:         -11.558
REMARK INTER:                 -10.222
REMARK INTRA:                  -1.336
REMARK UNBOUND:                -0.883
REMARK  Name = 
REMARK  8 active torsions:
REMARK  status: ('A' for Active; 'I' for Inactive)
REMARK    1  A    between atoms: N_1  and  C_2
REMARK    2  A    between atoms: C_2  and  C_3
REMARK    3  A    between atoms: C_2  and  C_24
REMARK    4  A    between atoms: C_3  and  C_4
REMARK    5  A    between atoms: C_7  and  C_8
REMARK    6  A    between atoms: C_8  and  N_9
REMARK    7  A    between atoms: C_10  and  C_12
REMARK    8  A    between atoms: C_24  and  C_26
REMARK                            x       y       z     vdW  Elec       q    Type
REMARK                         _______ _______ _______ _____ _____    ______ ____
ROOT
ATOM      1  C   UNL     1      45.539   5.653  12.769  0.00  0.00    +0.000 A 
ATOM      2  C   UNL     1      46.463   5.296  13.761  0.00  0.00    +0.000 A 
ATOM      3  C   UNL     1      47.750   5.841  13.768  0.00  0.00    +0.000 A 
ATOM      4  C   UNL     1      48.141   6.752  12.779  0.00  0.00    +0.000 A 
ATOM      5  C   UNL     1      47.231   7.074  11.762  0.00  0.00    +0.000 A 
ATOM      6  C   UNL     1      45.940   6.539  11.762  0.00  0.00    +0.000 A 
ENDROOT
BRANCH   1   7
ATOM      7  C   UNL     1      44.122   5.122  12.812  0.00  0.00    +0.000 C 
BRANCH   7   8
ATOM      8  C   UNL     1      43.468   5.012  11.413  0.00  0.00    +0.000 C 
BRANCH   8   9
ATOM      9  N   UNL     1      42.021   5.312  11.429  0.00  0.00    +0.000 NA
ATOM     10  H   UNL     1      41.750   5.642  10.500  0.00  0.00    +0.000 HD
ATOM     11  H   UNL     1      41.861   6.104  12.055  0.00  0.00    +0.000 HD
ENDBRANCH   8   9
BRANCH   8  12
ATOM     12  C   UNL     1      43.653   3.592  10.858  0.00  0.00    +0.000 C 
ATOM     13  O   UNL     1      43.074   2.614  11.331  0.00  0.00    +0.000 OA
BRANCH  12  14
ATOM     14  C   UNL     1      44.557   3.393   9.699  0.00  0.00    +0.000 A 
ATOM     15  C   UNL     1      45.032   2.140   9.306  0.00  0.00    +0.000 A 
ATOM     16  C   UNL     1      45.893   2.047   8.214  0.00  0.00    +0.000 A 
ATOM     17  C   UNL     1      46.239   3.210   7.545  0.00  0.00    +0.000 A 
ATOM     18  N   UNL     1      45.794   4.435   7.894  0.00  0.00    +0.000 NA
ATOM     19  C   UNL     1      44.973   4.502   8.973  0.00  0.00    +0.000 A 
ENDBRANCH  12  14
ENDBRANCH   8  12
ENDBRANCH   7   8
ENDBRANCH   1   7
BRANCH   4  20
ATOM     20  C   UNL     1      49.526   7.345  12.773  0.00  0.00    +0.000 C 
BRANCH  20  21
ATOM     21  N   UNL     1      49.643   8.376  11.775  0.00  0.00    +0.000 N 
ATOM     22  C   UNL     1      49.587   9.704  12.113  0.00  0.00    +0.000 C 
ATOM     23  O   UNL     1      49.469  10.076  13.277  0.00  0.00    +0.000 OA
ATOM     24  H   UNL     1      49.494   8.101  10.810  0.00  0.00    +0.000 HD
BRANCH  22  25
ATOM     25  C   UNL     1      49.740  10.663  11.011  0.00  0.00    +0.000 A 
ATOM     26  C   UNL     1      48.687  11.504  10.682  0.00  0.00    +0.000 A 
ATOM     27  S   UNL     1      49.049  12.589   9.418  0.00  0.00    +0.000 S 
ATOM     28  C   UNL     1      50.609  11.938   9.231  0.00  0.00    +0.000 A 
ATOM     29  N   UNL     1      51.455  12.408   8.276  0.00  0.00    +0.000 NA
ATOM     30  C   UNL     1      52.595  11.809   8.230  0.00  0.00    +0.000 A 
ATOM     31  N   UNL     1      52.973  10.783   9.058  0.00  0.00    +0.000 N 
ATOM     32  C   UNL     1      52.162  10.289  10.052  0.00  0.00    +0.000 A 
ATOM     33  O   UNL     1      52.545   9.398  10.802  0.00  0.00    +0.000 OA
ATOM     34  C   UNL     1      50.858  10.924  10.139  0.00  0.00    +0.000 A 
ATOM     35  H   UNL     1      53.887  10.363   8.977  0.00  0.00    +0.000 HD
ENDBRANCH  22  25
ENDBRANCH  20  21
ENDBRANCH   4  20
TORSDOF 8
ENDMDL
MODEL 9
REMARK VINA RESULT:    -7.275      4.244      9.764
REMARK INTER + INTRA:         -11.347
REMARK INTER:                  -9.681
REMARK INTRA:                  -1.666
REMARK UNBOUND:                -0.883
REMARK  Name = 
REMARK  8 active torsions:
REMARK  status: ('A' for Active; 'I' for Inactive)
REMARK    1  A    between atoms: N_1  and  C_2
REMARK    2  A    between atoms: C_2  and  C_3
REMARK    3  A    between atoms: C_2  and  C_24
REMARK    4  A    between atoms: C_3  and  C_4
REMARK    5  A    between atoms: C_7  and  C_8
REMARK    6  A    between atoms: C_8  and  N_9
REMARK    7  A    between atoms: C_10  and  C_12
REMARK    8  A    between atoms: C_24  and  C_26
REMARK                            x       y       z     vdW  Elec       q    Type
REMARK                         _______ _______ _______ _____ _____    ______ ____
ROOT
ATOM      1  C   UNL     1      50.074   5.371  19.207  0.00  0.00    +0.000 A 
ATOM      2  C   UNL     1      49.258   4.348  19.711  0.00  0.00    +0.000 A 
ATOM      3  C   UNL     1      48.290   3.743  18.904  0.00  0.00    +0.000 A 
ATOM      4  C   UNL     1      48.114   4.153  17.577  0.00  0.00    +0.000 A 
ATOM      5  C   UNL     1      48.899   5.207  17.088  0.00  0.00    +0.000 A 
ATOM      6  C   UNL     1      49.876   5.802  17.890  0.00  0.00    +0.000 A 
ENDROOT
BRANCH   1   7
ATOM      7  C   UNL     1      51.174   5.967  20.059  0.00  0.00    +0.000 C 
BRANCH   7   8
ATOM      8  C   UNL     1      52.334   4.981  20.338  0.00  0.00    +0.000 C 
BRANCH   8   9
ATOM      9  N   UNL     1      53.374   5.550  21.220  0.00  0.00    +0.000 NA
ATOM     10  H   UNL     1      53.619   4.849  21.922  0.00  0.00    +0.000 HD
ATOM     11  H   UNL     1      52.965   6.327  21.743  0.00  0.00    +0.000 HD
ENDBRANCH   8   9
BRANCH   8  12
ATOM     12  C   UNL     1      53.003   4.572  19.018  0.00  0.00    +0.000 C 
ATOM     13  O   UNL     1      53.608   5.372  18.305  0.00  0.00    +0.000 OA
BRANCH  12  14
ATOM     14  C   UNL     1      52.923   3.154  18.589  0.00  0.00    +0.000 A 
ATOM     15  C   UNL     1      51.891   2.652  17.793  0.00  0.00    +0.000 A 
ATOM     16  C   UNL     1      51.886   1.301  17.451  0.00  0.00    +0.000 A 
ATOM     17  C   UNL     1      52.922   0.501  17.906  0.00  0.00    +0.000 A 
ATOM     18  N   UNL     1      53.938   0.955  18.670  0.00  0.00    +0.000 NA
ATOM     19  C   UNL     1      53.909   2.269  19.006  0.00  0.00    +0.000 A 
ENDBRANCH  12  14
ENDBRANCH   8  12
ENDBRANCH   7   8
ENDBRANCH   1   7
BRANCH   4  20
ATOM     20  C   UNL     1      47.073   3.512  16.698  0.00  0.00    +0.000 C 
BRANCH  20  21
ATOM     21  N   UNL     1      46.588   4.439  15.708  0.00  0.00    +0.000 N 
ATOM     22  C   UNL     1      46.777   4.216  14.369  0.00  0.00    +0.000 C 
ATOM     23  O   UNL     1      47.334   3.206  13.949  0.00  0.00    +0.000 OA
ATOM     24  H   UNL     1      46.354   5.373  16.030  0.00  0.00    +0.000 HD
BRANCH  22  25
ATOM     25  C   UNL     1      46.219   5.222  13.456  0.00  0.00    +0.000 A 
ATOM     26  C   UNL     1      46.988   6.316  13.088  0.00  0.00    +0.000 A 
ATOM     27  S   UNL     1      46.210   7.357  11.984  0.00  0.00    +0.000 S 
ATOM     28  C   UNL     1      44.799   6.409  12.000  0.00  0.00    +0.000 A 
ATOM     29  N   UNL     1      43.707   6.766  11.272  0.00  0.00    +0.000 NA
ATOM     30  C   UNL     1      42.700   5.971  11.394  0.00  0.00    +0.000 A 
ATOM     31  N   UNL     1      42.684   4.844  12.175  0.00  0.00    +0.000 N 
ATOM     32  C   UNL     1      43.769   4.431  12.911  0.00  0.00    +0.000 A 
ATOM     33  O   UNL     1      43.736   3.396  13.568  0.00  0.00    +0.000 OA
ATOM     34  C   UNL     1      44.930   5.300  12.816  0.00  0.00    +0.000 A 
ATOM     35  H   UNL     1      41.865   4.256  12.219  0.00  0.00    +0.000 HD
ENDBRANCH  22  25
ENDBRANCH  20  21
ENDBRANCH   4  20
TORSDOF 8
ENDMDL
