MODEL 1
REMARK VINA RESULT:    -7.468      0.000      0.000
REMARK INTER + INTRA:          -9.702
REMARK INTER:                  -8.778
REMARK INTRA:                  -0.924
REMARK UNBOUND:                -0.924
REMARK  Name = 
REMARK  3 active torsions:
REMARK  status: ('A' for Active; 'I' for Inactive)
REMARK    1  A    between atoms: N_6  and  C_7
REMARK    2  A    between atoms: C_7  and  C_8
REMARK    3  A    between atoms: C_12  and  N_13
REMARK                            x       y       z     vdW  Elec       q    Type
REMARK                         _______ _______ _______ _____ _____    ______ ____
ROOT
ATOM      1  C   UNL     1      43.871   5.026  11.659  0.00  0.00    +0.000 C 
ATOM      2  C   UNL     1      42.496   5.145  12.316  0.00  0.00    +0.000 C 
ATOM      3  C   UNL     1      42.928   6.173  11.330  0.00  0.00    +0.000 C 
ENDROOT
BRANCH   1   9
ATOM      4  I   UNL     1      47.389   2.226   5.906  0.00  0.00    +0.000 I 
ATOM      5  C   UNL     1      46.354   2.846   7.582  0.00  0.00    +0.000 A 
ATOM      6  C   UNL     1      46.143   4.190   7.843  0.00  0.00    +0.000 A 
ATOM      7  C   UNL     1      45.403   4.563   8.972  0.00  0.00    +0.000 A 
ATOM      8  C   UNL     1      44.887   3.577   9.803  0.00  0.00    +0.000 A 
ATOM      9  N   UNL     1      44.045   3.809  10.880  0.00  0.00    +0.000 N 
ATOM     10  N   UNL     1      45.110   2.264   9.564  0.00  0.00    +0.000 NA
ATOM     11  C   UNL     1      45.835   1.925   8.473  0.00  0.00    +0.000 A 
ATOM     12  H   UNL     1      43.882   2.919  11.342  0.00  0.00    +0.000 HD
ENDBRANCH   1   9
BRANCH   1  13
ATOM     13  C   UNL     1      45.099   5.457  12.466  0.00  0.00    +0.000 A 
ATOM     14  C   UNL     1      45.699   4.582  13.383  0.00  0.00    +0.000 A 
ATOM     15  C   UNL     1      46.983   4.824  13.863  0.00  0.00    +0.000 A 
ATOM     16  C   UNL     1      47.690   5.942  13.419  0.00  0.00    +0.000 A 
ATOM     17  C   UNL     1      47.099   6.883  12.570  0.00  0.00    +0.000 A 
ATOM     18  C   UNL     1      45.778   6.655  12.171  0.00  0.00    +0.000 A 
BRANCH  17  19
ATOM     19  N   UNL     1      47.798   7.946  12.049  0.00  0.00    +0.000 N 
ATOM     20  C   UNL     1      49.160   7.805  11.527  0.00  0.00    +0.000 C 
ATOM     21  C   UNL     1      50.115   8.694  12.329  0.00  0.00    +0.000 C 
ATOM     22  O   UNL     1      49.665  10.060  12.357  0.00  0.00    +0.000 OA
ATOM     23  C   UNL     1      48.354  10.147  12.949  0.00  0.00    +0.000 C 
ATOM     24  C   UNL     1      47.315   9.323  12.168  0.00  0.00    +0.000 C 
ENDBRANCH  17  19
ENDBRANCH   1  13
TORSDOF 3
ENDMDL
MODEL 2
REMARK VINA RESULT:    -7.313      2.160      3.205
REMARK INTER + INTRA:          -9.519
REMARK INTER:                  -8.825
REMARK INTRA:                  -0.694
REMARK UNBOUND:                -0.924
REMARK  Name = 
REMARK  3 active torsions:
REMARK  status: ('A' for Active; 'I' for Inactive)
REMARK    1  A    between atoms: N_6  and  C_7
REMARK    2  A    between atoms: C_7  and  C_8
REMARK    3  A    between atoms: C_12  and  N_13
REMARK                            x       y       z     vdW  Elec       q    Type
REMARK                         _______ _______ _______ _____ _____    ______ ____
ROOT
ATOM      1  C   UNL     1      43.930   4.893  11.739  0.00  0.00    +0.000 C 
ATOM      2  C   UNL     1      42.848   4.754  12.810  0.00  0.00    +0.000 C 
ATOM      3  C   UNL     1      42.703   5.791  11.752  0.00  0.00    +0.000 C 
ENDROOT
BRANCH   1   9
ATOM      4  I   UNL     1      47.310   2.317   5.802  0.00  0.00    +0.000 I 
ATOM      5  C   UNL     1      46.320   2.872   7.527  0.00  0.00    +0.000 A 
ATOM      6  C   UNL     1      46.081   4.203   7.825  0.00  0.00    +0.000 A 
ATOM      7  C   UNL     1      45.373   4.531   8.989  0.00  0.00    +0.000 A 
ATOM      8  C   UNL     1      44.917   3.513   9.816  0.00  0.00    +0.000 A 
ATOM      9  N   UNL     1      44.109   3.698  10.928  0.00  0.00    +0.000 N 
ATOM     10  N   UNL     1      45.169   2.213   9.540  0.00  0.00    +0.000 NA
ATOM     11  C   UNL     1      45.862   1.917   8.416  0.00  0.00    +0.000 A 
ATOM     12  H   UNL     1      43.990   2.794  11.377  0.00  0.00    +0.000 HD
ENDBRANCH   1   9
BRANCH   1  13
ATOM     13  C   UNL     1      45.225   5.622  12.110  0.00  0.00    +0.000 A 
ATOM     14  C   UNL     1      45.452   6.941  11.691  0.00  0.00    +0.000 A 
ATOM     15  C   UNL     1      46.442   7.717  12.286  0.00  0.00    +0.000 A 
ATOM     16  C   UNL     1      47.210   7.185  13.322  0.00  0.00    +0.000 A 
ATOM     17  C   UNL     1      47.074   5.850  13.713  0.00  0.00    +0.000 A 
ATOM     18  C   UNL     1      46.128   5.071  13.039  0.00  0.00    +0.000 A 
BRANCH  17  19
ATOM     19  N   UNL     1      47.755   5.324  14.785  0.00  0.00    +0.000 N 
ATOM     20  C   UNL     1      47.384   4.044  15.396  0.00  0.00    +0.000 C 
ATOM     21  C   UNL     1      46.999   4.265  16.862  0.00  0.00    +0.000 C 
ATOM     22  O   UNL     1      48.039   4.948  17.584  0.00  0.00    +0.000 OA
ATOM     23  C   UNL     1      48.309   6.231  16.985  0.00  0.00    +0.000 C 
ATOM     24  C   UNL     1      48.759   6.097  15.519  0.00  0.00    +0.000 C 
ENDBRANCH  17  19
ENDBRANCH   1  13
TORSDOF 3
ENDMDL
MODEL 3
REMARK VINA RESULT:    -6.787      3.180      6.480
REMARK INTER + INTRA:          -8.901
REMARK INTER:                  -8.022
REMARK INTRA:                  -0.879
REMARK UNBOUND:                -0.924
REMARK  Name = 
REMARK  3 active torsions:
REMARK  status: ('A' for Active; 'I' for Inactive)
REMARK    1  A    between atoms: N_6  and  C_7
REMARK    2  A    between atoms: C_7  and  C_8
REMARK    3  A    between atoms: C_12  and  N_13
REMARK                            x       y       z     vdW  Elec       q    Type
REMARK                         _______ _______ _______ _____ _____    ______ ____
ROOT
ATOM      1  C   UNL     1      46.347   4.983  13.678  0.00  0.00    +0.000 C 
ATOM      2  C   UNL     1      46.669   4.078  14.867  0.00  0.00    +0.000 C 
ATOM      3  C   UNL     1      47.413   3.902  13.590  0.00  0.00    +0.000 C 
ENDROOT
BRANCH   1   9
ATOM      4  I   UNL     1      49.564  10.963  10.995  0.00  0.00    +0.000 I 
ATOM      5  C   UNL     1      48.562   9.382  11.868  0.00  0.00    +0.000 A 
ATOM      6  C   UNL     1      48.849   8.070  11.528  0.00  0.00    +0.000 A 
ATOM      7  C   UNL     1      48.171   7.029  12.172  0.00  0.00    +0.000 A 
ATOM      8  C   UNL     1      47.230   7.331  13.148  0.00  0.00    +0.000 A 
ATOM      9  N   UNL     1      46.578   6.396  13.938  0.00  0.00    +0.000 N 
ATOM     10  N   UNL     1      46.931   8.611  13.467  0.00  0.00    +0.000 NA
ATOM     11  C   UNL     1      47.591   9.604  12.826  0.00  0.00    +0.000 A 
ATOM     12  H   UNL     1      45.903   6.893  14.511  0.00  0.00    +0.000 HD
ENDBRANCH   1   9
BRANCH   1  13
ATOM     13  C   UNL     1      45.095   4.674  12.852  0.00  0.00    +0.000 A 
ATOM     14  C   UNL     1      43.869   5.289  13.148  0.00  0.00    +0.000 A 
ATOM     15  C   UNL     1      42.828   5.283  12.224  0.00  0.00    +0.000 A 
ATOM     16  C   UNL     1      43.006   4.673  10.983  0.00  0.00    +0.000 A 
ATOM     17  C   UNL     1      44.181   3.978  10.679  0.00  0.00    +0.000 A 
ATOM     18  C   UNL     1      45.178   3.930  11.659  0.00  0.00    +0.000 A 
BRANCH  17  19
ATOM     19  N   UNL     1      44.418   3.442   9.435  0.00  0.00    +0.000 N 
ATOM     20  C   UNL     1      44.531   1.998   9.214  0.00  0.00    +0.000 C 
ATOM     21  C   UNL     1      45.921   1.667   8.663  0.00  0.00    +0.000 C 
ATOM     22  O   UNL     1      46.218   2.438   7.484  0.00  0.00    +0.000 OA
ATOM     23  C   UNL     1      46.168   3.847   7.779  0.00  0.00    +0.000 C 
ATOM     24  C   UNL     1      44.781   4.278   8.289  0.00  0.00    +0.000 C 
ENDBRANCH  17  19
ENDBRANCH   1  13
TORSDOF 3
ENDMDL
MODEL 4
REMARK VINA RESULT:    -6.397      1.185      1.691
REMARK INTER + INTRA:          -8.443
REMARK INTER:                  -7.695
REMARK INTRA:                  -0.748
REMARK UNBOUND:                -0.924
REMARK  Name = 
REMARK  3 active torsions:
REMARK  status: ('A' for Active; 'I' for Inactive)
REMARK    1  A    between atoms: N_6  and  C_7
REMARK    2  A    between atoms: C_7  and  C_8
REMARK    3  A    between atoms: C_12  and  N_13
REMARK                            x       y       z     vdW  Elec       q    Type
REMARK                         _______ _______ _______ _____ _____    ______ ____
ROOT
ATOM      1  C   UNL     1      43.683   5.163  11.809  0.00  0.00    +0.000 C 
ATOM      2  C   UNL     1      42.369   5.141  12.590  0.00  0.00    +0.000 C 
ATOM      3  C   UNL     1      42.582   6.180  11.545  0.00  0.00    +0.000 C 
ENDROOT
BRANCH   1   9
ATOM      4  I   UNL     1      47.380   2.513   6.098  0.00  0.00    +0.000 I 
ATOM      5  C   UNL     1      46.304   3.089   7.764  0.00  0.00    +0.000 A 
ATOM      6  C   UNL     1      46.013   4.421   8.009  0.00  0.00    +0.000 A 
ATOM      7  C   UNL     1      45.249   4.762   9.132  0.00  0.00    +0.000 A 
ATOM      8  C   UNL     1      44.789   3.757   9.973  0.00  0.00    +0.000 A 
ATOM      9  N   UNL     1      43.931   3.950  11.045  0.00  0.00    +0.000 N 
ATOM     10  N   UNL     1      45.090   2.457   9.749  0.00  0.00    +0.000 NA
ATOM     11  C   UNL     1      45.838   2.149   8.663  0.00  0.00    +0.000 A 
ATOM     12  H   UNL     1      43.820   3.058  11.516  0.00  0.00    +0.000 HD
ENDBRANCH   1   9
BRANCH   1  13
ATOM     13  C   UNL     1      44.918   5.763  12.488  0.00  0.00    +0.000 A 
ATOM     14  C   UNL     1      46.009   4.954  12.838  0.00  0.00    +0.000 A 
ATOM     15  C   UNL     1      47.246   5.517  13.136  0.00  0.00    +0.000 A 
ATOM     16  C   UNL     1      47.411   6.901  13.074  0.00  0.00    +0.000 A 
ATOM     17  C   UNL     1      46.331   7.748  12.811  0.00  0.00    +0.000 A 
ATOM     18  C   UNL     1      45.081   7.157  12.597  0.00  0.00    +0.000 A 
BRANCH  17  19
ATOM     19  N   UNL     1      46.481   9.106  12.658  0.00  0.00    +0.000 N 
ATOM     20  C   UNL     1      45.408   9.958  12.135  0.00  0.00    +0.000 C 
ATOM     21  C   UNL     1      45.873  10.640  10.846  0.00  0.00    +0.000 C 
ATOM     22  O   UNL     1      47.108  11.353  11.041  0.00  0.00    +0.000 OA
ATOM     23  C   UNL     1      48.144  10.454  11.481  0.00  0.00    +0.000 C 
ATOM     24  C   UNL     1      47.781   9.763  12.808  0.00  0.00    +0.000 C 
ENDBRANCH  17  19
ENDBRANCH   1  13
TORSDOF 3
ENDMDL
MODEL 5
REMARK VINA RESULT:    -6.143      4.476      7.778
REMARK INTER + INTRA:          -8.144
REMARK INTER:                  -7.377
REMARK INTRA:                  -0.767
REMARK UNBOUND:                -0.924
REMARK  Name = 
REMARK  3 active torsions:
REMARK  status: ('A' for Active; 'I' for Inactive)
REMARK    1  A    between atoms: N_6  and  C_7
REMARK    2  A    between atoms: C_7  and  C_8
REMARK    3  A    between atoms: C_12  and  N_13
REMARK                            x       y       z     vdW  Elec       q    Type
REMARK                         _______ _______ _______ _____ _____    ______ ____
ROOT
ATOM      1  C   UNL     1      49.212   7.878  12.772  0.00  0.00    +0.000 C 
ATOM      2  C   UNL     1      49.986   7.823  11.454  0.00  0.00    +0.000 C 
ATOM      3  C   UNL     1      49.653   9.144  12.054  0.00  0.00    +0.000 C 
ENDROOT
BRANCH   1   9
ATOM      4  I   UNL     1      49.257   7.279  20.048  0.00  0.00    +0.000 I 
ATOM      5  C   UNL     1      49.354   7.302  17.985  0.00  0.00    +0.000 A 
ATOM      6  C   UNL     1      48.762   8.313  17.247  0.00  0.00    +0.000 A 
ATOM      7  C   UNL     1      48.885   8.308  15.852  0.00  0.00    +0.000 A 
ATOM      8  C   UNL     1      49.607   7.293  15.237  0.00  0.00    +0.000 A 
ATOM      9  N   UNL     1      49.900   7.238  13.882  0.00  0.00    +0.000 N 
ATOM     10  N   UNL     1      50.167   6.292  15.953  0.00  0.00    +0.000 NA
ATOM     11  C   UNL     1      50.029   6.310  17.299  0.00  0.00    +0.000 A 
ATOM     12  H   UNL     1      50.377   6.359  13.706  0.00  0.00    +0.000 HD
ENDBRANCH   1   9
BRANCH   1  13
ATOM     13  C   UNL     1      47.698   7.649  12.732  0.00  0.00    +0.000 A 
ATOM     14  C   UNL     1      46.807   8.733  12.732  0.00  0.00    +0.000 A 
ATOM     15  C   UNL     1      45.477   8.561  12.362  0.00  0.00    +0.000 A 
ATOM     16  C   UNL     1      45.023   7.301  11.972  0.00  0.00    +0.000 A 
ATOM     17  C   UNL     1      45.855   6.179  12.037  0.00  0.00    +0.000 A 
ATOM     18  C   UNL     1      47.164   6.369  12.492  0.00  0.00    +0.000 A 
BRANCH  17  19
ATOM     19  N   UNL     1      45.462   4.944  11.578  0.00  0.00    +0.000 N 
ATOM     20  C   UNL     1      45.138   4.699  10.170  0.00  0.00    +0.000 C 
ATOM     21  C   UNL     1      43.681   4.242  10.048  0.00  0.00    +0.000 C 
ATOM     22  O   UNL     1      43.413   3.106  10.889  0.00  0.00    +0.000 OA
ATOM     23  C   UNL     1      43.675   3.427  12.269  0.00  0.00    +0.000 C 
ATOM     24  C   UNL     1      45.140   3.846  12.492  0.00  0.00    +0.000 C 
ENDBRANCH  17  19
ENDBRANCH   1  13
TORSDOF 3
ENDMDL
MODEL 6
REMARK VINA RESULT:    -5.392      4.099      6.565
REMARK INTER + INTRA:          -7.262
REMARK INTER:                  -6.381
REMARK INTRA:                  -0.881
REMARK UNBOUND:                -0.924
REMARK  Name = 
REMARK  3 active torsions:
REMARK  status: ('A' for Active; 'I' for Inactive)
REMARK    1  A    between atoms: N_6  and  C_7
REMARK    2  A    between atoms: C_7  and  C_8
REMARK    3  A    between atoms: C_12  and  N_13
REMARK                            x       y       z     vdW  Elec       q    Type
REMARK                         _______ _______ _______ _____ _____    ______ ____
ROOT
ATOM      1  C   UNL     1      48.837   8.325  14.021  0.00  0.00    +0.000 C 
ATOM      2  C   UNL     1      49.746   9.383  13.396  0.00  0.00    +0.000 C 
ATOM      3  C   UNL     1      50.193   7.964  13.435  0.00  0.00    +0.000 C 
ENDROOT
BRANCH   1   9
ATOM      4  I   UNL     1      43.673   3.485  12.225  0.00  0.00    +0.000 I 
ATOM      5  C   UNL     1      45.013   4.986  12.693  0.00  0.00    +0.000 A 
ATOM      6  C   UNL     1      46.325   4.701  13.033  0.00  0.00    +0.000 A 
ATOM      7  C   UNL     1      47.208   5.753  13.307  0.00  0.00    +0.000 A 
ATOM      8  C   UNL     1      46.753   7.062  13.223  0.00  0.00    +0.000 A 
ATOM      9  N   UNL     1      47.551   8.189  13.353  0.00  0.00    +0.000 N 
ATOM     10  N   UNL     1      45.466   7.343  12.913  0.00  0.00    +0.000 NA
ATOM     11  C   UNL     1      44.626   6.313  12.660  0.00  0.00    +0.000 A 
ATOM     12  H   UNL     1      46.945   9.002  13.314  0.00  0.00    +0.000 HD
ENDBRANCH   1   9
BRANCH   1  13
ATOM     13  C   UNL     1      48.785   8.226  15.549  0.00  0.00    +0.000 A 
ATOM     14  C   UNL     1      48.323   9.300  16.323  0.00  0.00    +0.000 A 
ATOM     15  C   UNL     1      47.956   9.114  17.653  0.00  0.00    +0.000 A 
ATOM     16  C   UNL     1      48.034   7.843  18.222  0.00  0.00    +0.000 A 
ATOM     17  C   UNL     1      48.567   6.762  17.512  0.00  0.00    +0.000 A 
ATOM     18  C   UNL     1      49.005   6.999  16.204  0.00  0.00    +0.000 A 
BRANCH  17  19
ATOM     19  N   UNL     1      48.577   5.483  18.015  0.00  0.00    +0.000 N 
ATOM     20  C   UNL     1      49.801   4.846  18.509  0.00  0.00    +0.000 C 
ATOM     21  C   UNL     1      50.098   3.591  17.683  0.00  0.00    +0.000 C 
ATOM     22  O   UNL     1      48.972   2.695  17.661  0.00  0.00    +0.000 OA
ATOM     23  C   UNL     1      47.819   3.350  17.097  0.00  0.00    +0.000 C 
ATOM     24  C   UNL     1      47.416   4.598  17.902  0.00  0.00    +0.000 C 
ENDBRANCH  17  19
ENDBRANCH   1  13
TORSDOF 3
ENDMDL
MODEL 7
REMARK VINA RESULT:    -5.347      3.405      6.928
REMARK INTER + INTRA:          -7.208
REMARK INTER:                  -6.434
REMARK INTRA:                  -0.775
REMARK UNBOUND:                -0.924
REMARK  Name = 
REMARK  3 active torsions:
REMARK  status: ('A' for Active; 'I' for Inactive)
REMARK    1  A    between atoms: N_6  and  C_7
REMARK    2  A    between atoms: C_7  and  C_8
REMARK    3  A    between atoms: C_12  and  N_13
REMARK                            x       y       z     vdW  Elec       q    Type
REMARK                         _______ _______ _______ _____ _____    ______ ____
ROOT
ATOM      1  C   UNL     1      48.372   8.120  13.916  0.00  0.00    +0.000 C 
ATOM      2  C   UNL     1      48.463   8.080  15.441  0.00  0.00    +0.000 C 
ATOM      3  C   UNL     1      48.910   6.901  14.649  0.00  0.00    +0.000 C 
ENDROOT
BRANCH   1   9
ATOM      4  I   UNL     1      53.365   9.435   8.754  0.00  0.00    +0.000 I 
ATOM      5  C   UNL     1      51.926   9.244  10.222  0.00  0.00    +0.000 A 
ATOM      6  C   UNL     1      51.633   8.015  10.789  0.00  0.00    +0.000 A 
ATOM      7  C   UNL     1      50.675   7.939  11.808  0.00  0.00    +0.000 A 
ATOM      8  C   UNL     1      50.044   9.100  12.236  0.00  0.00    +0.000 A 
ATOM      9  N   UNL     1      49.169   9.176  13.309  0.00  0.00    +0.000 N 
ATOM     10  N   UNL     1      50.311  10.298  11.669  0.00  0.00    +0.000 NA
ATOM     11  C   UNL     1      51.234  10.350  10.680  0.00  0.00    +0.000 A 
ATOM     12  H   UNL     1      48.812  10.127  13.349  0.00  0.00    +0.000 HD
ENDBRANCH   1   9
BRANCH   1  13
ATOM     13  C   UNL     1      47.005   7.889  13.266  0.00  0.00    +0.000 A 
ATOM     14  C   UNL     1      46.227   8.969  12.824  0.00  0.00    +0.000 A 
ATOM     15  C   UNL     1      45.165   8.770  11.946  0.00  0.00    +0.000 A 
ATOM     16  C   UNL     1      44.876   7.485  11.488  0.00  0.00    +0.000 A 
ATOM     17  C   UNL     1      45.572   6.371  11.968  0.00  0.00    +0.000 A 
ATOM     18  C   UNL     1      46.579   6.594  12.912  0.00  0.00    +0.000 A 
BRANCH  17  19
ATOM     19  N   UNL     1      45.367   5.105  11.471  0.00  0.00    +0.000 N 
ATOM     20  C   UNL     1      45.279   4.834  10.034  0.00  0.00    +0.000 C 
ATOM     21  C   UNL     1      43.906   4.242   9.703  0.00  0.00    +0.000 C 
ATOM     22  O   UNL     1      43.622   3.085  10.510  0.00  0.00    +0.000 OA
ATOM     23  C   UNL     1      43.646   3.427  11.909  0.00  0.00    +0.000 C 
ATOM     24  C   UNL     1      45.016   3.980  12.341  0.00  0.00    +0.000 C 
ENDBRANCH  17  19
ENDBRANCH   1  13
TORSDOF 3
ENDMDL
MODEL 8
REMARK VINA RESULT:    -5.270      3.611      7.076
REMARK INTER + INTRA:          -7.118
REMARK INTER:                  -6.476
REMARK INTRA:                  -0.642
REMARK UNBOUND:                -0.924
REMARK  Name = 
REMARK  3 active torsions:
REMARK  status: ('A' for Active; 'I' for Inactive)
REMARK    1  A    between atoms: N_6  and  C_7
REMARK    2  A    between atoms: C_7  and  C_8
REMARK    3  A    between atoms: C_12  and  N_13
REMARK                            x       y       z     vdW  Elec       q    Type
REMARK                         _______ _______ _______ _____ _____    ______ ____
ROOT
ATOM      1  C   UNL     1      47.924   8.499  12.362  0.00  0.00    +0.000 C 
ATOM      2  C   UNL     1      46.811   9.485  12.005  0.00  0.00    +0.000 C 
ATOM      3  C   UNL     1      47.407   9.517  13.369  0.00  0.00    +0.000 C 
ENDROOT
BRANCH   1   9
ATOM      4  I   UNL     1      55.220   8.366  12.582  0.00  0.00    +0.000 I 
ATOM      5  C   UNL     1      53.170   8.392  12.338  0.00  0.00    +0.000 A 
ATOM      6  C   UNL     1      52.318   8.579  13.414  0.00  0.00    +0.000 A 
ATOM      7  C   UNL     1      50.935   8.626  13.195  0.00  0.00    +0.000 A 
ATOM      8  C   UNL     1      50.446   8.493  11.902  0.00  0.00    +0.000 A 
ATOM      9  N   UNL     1      49.116   8.638  11.539  0.00  0.00    +0.000 N 
ATOM     10  N   UNL     1      51.274   8.287  10.852  0.00  0.00    +0.000 NA
ATOM     11  C   UNL     1      52.606   8.235  11.086  0.00  0.00    +0.000 A 
ATOM     12  H   UNL     1      49.040   8.421  10.550  0.00  0.00    +0.000 HD
ENDBRANCH   1   9
BRANCH   1  13
ATOM     13  C   UNL     1      47.533   7.057  12.696  0.00  0.00    +0.000 A 
ATOM     14  C   UNL     1      47.931   6.466  13.905  0.00  0.00    +0.000 A 
ATOM     15  C   UNL     1      47.316   5.306  14.366  0.00  0.00    +0.000 A 
ATOM     16  C   UNL     1      46.283   4.728  13.628  0.00  0.00    +0.000 A 
ATOM     17  C   UNL     1      45.913   5.236  12.379  0.00  0.00    +0.000 A 
ATOM     18  C   UNL     1      46.605   6.355  11.903  0.00  0.00    +0.000 A 
BRANCH  17  19
ATOM     19  N   UNL     1      44.843   4.741  11.671  0.00  0.00    +0.000 N 
ATOM     20  C   UNL     1      43.618   4.275  12.327  0.00  0.00    +0.000 C 
ATOM     21  C   UNL     1      43.396   2.793  12.014  0.00  0.00    +0.000 C 
ATOM     22  O   UNL     1      43.399   2.547  10.596  0.00  0.00    +0.000 OA
ATOM     23  C   UNL     1      44.655   2.953  10.017  0.00  0.00    +0.000 C 
ATOM     24  C   UNL     1      44.932   4.451  10.238  0.00  0.00    +0.000 C 
ENDBRANCH  17  19
ENDBRANCH   1  13
TORSDOF 3
ENDMDL
MODEL 9
REMARK VINA RESULT:    -5.092      6.054      8.132
REMARK INTER + INTRA:          -6.909
REMARK INTER:                  -5.964
REMARK INTRA:                  -0.945
REMARK UNBOUND:                -0.924
REMARK  Name = 
REMARK  3 active torsions:
REMARK  status: ('A' for Active; 'I' for Inactive)
REMARK    1  A    between atoms: N_6  and  C_7
REMARK    2  A    between atoms: C_7  and  C_8
REMARK    3  A    between atoms: C_12  and  N_13
REMARK                            x       y       z     vdW  Elec       q    Type
REMARK                         _______ _______ _______ _____ _____    ______ ____
ROOT
ATOM      1  C   UNL     1      48.171   5.296  17.599  0.00  0.00    +0.000 C 
ATOM      2  C   UNL     1      47.062   5.445  18.641  0.00  0.00    +0.000 C 
ATOM      3  C   UNL     1      48.337   6.192  18.816  0.00  0.00    +0.000 C 
ENDROOT
BRANCH   1   9
ATOM      4  I   UNL     1      50.652   8.569  11.563  0.00  0.00    +0.000 I 
ATOM      5  C   UNL     1      49.806   7.588  13.171  0.00  0.00    +0.000 A 
ATOM      6  C   UNL     1      50.368   7.659  14.435  0.00  0.00    +0.000 A 
ATOM      7  C   UNL     1      49.740   7.007  15.504  0.00  0.00    +0.000 A 
ATOM      8  C   UNL     1      48.559   6.311  15.277  0.00  0.00    +0.000 A 
ATOM      9  N   UNL     1      47.781   5.727  16.264  0.00  0.00    +0.000 N 
ATOM     10  N   UNL     1      48.020   6.222  14.039  0.00  0.00    +0.000 NA
ATOM     11  C   UNL     1      48.648   6.851  13.018  0.00  0.00    +0.000 A 
ATOM     12  H   UNL     1      47.021   5.233  15.806  0.00  0.00    +0.000 HD
ENDBRANCH   1   9
BRANCH   1  13
ATOM     13  C   UNL     1      49.041   4.037  17.643  0.00  0.00    +0.000 A 
ATOM     14  C   UNL     1      48.600   2.838  17.065  0.00  0.00    +0.000 A 
ATOM     15  C   UNL     1      49.493   1.803  16.801  0.00  0.00    +0.000 A 
ATOM     16  C   UNL     1      50.847   1.963  17.100  0.00  0.00    +0.000 A 
ATOM     17  C   UNL     1      51.315   3.108  17.752  0.00  0.00    +0.000 A 
ATOM     18  C   UNL     1      50.379   4.095  18.079  0.00  0.00    +0.000 A 
BRANCH  17  19
ATOM     19  N   UNL     1      52.652   3.330  17.980  0.00  0.00    +0.000 N 
ATOM     20  C   UNL     1      53.509   2.337  18.634  0.00  0.00    +0.000 C 
ATOM     21  C   UNL     1      54.083   2.923  19.928  0.00  0.00    +0.000 C 
ATOM     22  O   UNL     1      54.756   4.172  19.688  0.00  0.00    +0.000 OA
ATOM     23  C   UNL     1      53.847   5.132  19.117  0.00  0.00    +0.000 C 
ATOM     24  C   UNL     1      53.264   4.645  17.778  0.00  0.00    +0.000 C 
ENDBRANCH  17  19
ENDBRANCH   1  13
TORSDOF 3
ENDMDL
