MODEL 1
REMARK VINA RESULT:    -6.861      0.000      0.000
REMARK INTER + INTRA:         -10.186
REMARK INTER:                  -9.267
REMARK INTRA:                  -0.919
REMARK UNBOUND:                -0.919
REMARK  Name = 
REMARK  6 active torsions:
REMARK  status: ('A' for Active; 'I' for Inactive)
REMARK    1  A    between atoms: C_2  and  C_3
REMARK    2  A    between atoms: C_7  and  C_8
REMARK    3  A    between atoms: C_8  and  C_9
REMARK    4  A    between atoms: C_12  and  C_13
REMARK    5  A    between atoms: C_13  and  N_14
REMARK    6  A    between atoms: C_15  and  C_17
REMARK                            x       y       z     vdW  Elec       q    Type
REMARK                         _______ _______ _______ _____ _____    ______ ____
ROOT
ATOM      1  C   UNL     1      49.766   7.157  16.290  0.00  0.00    +0.000 C 
ENDROOT
BRANCH   1   5
ATOM      2  C   UNL     1      47.006   5.454  13.516  0.00  0.00    +0.000 A 
ATOM      3  C   UNL     1      47.111   4.900  14.784  0.00  0.00    +0.000 A 
ATOM      4  C   UNL     1      48.009   5.451  15.686  0.00  0.00    +0.000 A 
ATOM      5  C   UNL     1      48.802   6.552  15.319  0.00  0.00    +0.000 A 
ATOM      6  C   UNL     1      48.763   7.035  14.009  0.00  0.00    +0.000 A 
ATOM      7  C   UNL     1      47.867   6.489  13.112  0.00  0.00    +0.000 A 
BRANCH   2   8
ATOM      8  C   UNL     1      45.975   4.977  12.551  0.00  0.00    +0.000 C 
BRANCH   8  13
ATOM      9  C   UNL     1      43.266   4.826  10.943  0.00  0.00    +0.000 C 
ATOM     10  C   UNL     1      43.876   4.484   9.586  0.00  0.00    +0.000 C 
ATOM     11  O   UNL     1      45.303   4.429   9.631  0.00  0.00    +0.000 OA
ATOM     12  C   UNL     1      45.907   5.647  10.075  0.00  0.00    +0.000 C 
ATOM     13  C   UNL     1      45.474   6.002  11.505  0.00  0.00    +0.000 C 
ATOM     14  C   UNL     1      43.930   6.092  11.521  0.00  0.00    +0.000 C 
BRANCH   9  16
ATOM     15  N   UNL     1      43.679   2.741  12.736  0.00  0.00    +0.000 NA
ATOM     16  C   UNL     1      43.492   3.686  11.923  0.00  0.00    +0.000 C 
ENDBRANCH   9  16
ENDBRANCH   8  13
ENDBRANCH   2   8
ENDBRANCH   1   5
BRANCH   1  17
ATOM     17  N   UNL     1      50.719   6.160  16.680  0.00  0.00    +0.000 N 
ATOM     18  C   UNL     1      50.947   5.849  17.985  0.00  0.00    +0.000 C 
ATOM     19  O   UNL     1      50.338   6.389  18.905  0.00  0.00    +0.000 OA
ATOM     20  H   UNL     1      51.392   5.885  15.973  0.00  0.00    +0.000 HD
BRANCH  18  21
ATOM     21  C   UNL     1      51.907   4.767  18.216  0.00  0.00    +0.000 A 
ATOM     22  C   UNL     1      53.129   5.054  18.806  0.00  0.00    +0.000 A 
ATOM     23  S   UNL     1      54.084   3.673  19.093  0.00  0.00    +0.000 S 
ATOM     24  C   UNL     1      52.915   2.650  18.397  0.00  0.00    +0.000 A 
ATOM     25  N   UNL     1      53.116   1.306  18.323  0.00  0.00    +0.000 NA
ATOM     26  C   UNL     1      52.154   0.654  17.760  0.00  0.00    +0.000 A 
ATOM     27  N   UNL     1      51.011   1.216  17.256  0.00  0.00    +0.000 N 
ATOM     28  C   UNL     1      50.760   2.564  17.316  0.00  0.00    +0.000 A 
ATOM     29  O   UNL     1      49.724   3.046  16.866  0.00  0.00    +0.000 OA
ATOM     30  C   UNL     1      51.812   3.347  17.954  0.00  0.00    +0.000 A 
ATOM     31  H   UNL     1      50.295   0.651  16.825  0.00  0.00    +0.000 HD
ENDBRANCH  18  21
ENDBRANCH   1  17
TORSDOF 6
ENDMDL
MODEL 2
REMARK VINA RESULT:    -6.832      3.018      9.666
REMARK INTER + INTRA:         -10.148
REMARK INTER:                  -9.494
REMARK INTRA:                  -0.654
REMARK UNBOUND:                -0.919
REMARK  Name = 
REMARK  6 active torsions:
REMARK  status: ('A' for Active; 'I' for Inactive)
REMARK    1  A    between atoms: C_2  and  C_3
REMARK    2  A    between atoms: C_7  and  C_8
REMARK    3  A    between atoms: C_8  and  C_9
REMARK    4  A    between atoms: C_12  and  C_13
REMARK    5  A    between atoms: C_13  and  N_14
REMARK    6  A    between atoms: C_15  and  C_17
REMARK                            x       y       z     vdW  Elec       q    Type
REMARK                         _______ _______ _______ _____ _____    ______ ____
ROOT
ATOM      1  C   UNL     1      47.260   3.548  16.735  0.00  0.00    +0.000 C 
ENDROOT
BRANCH   1   5
ATOM      2  C   UNL     1      51.363   4.272  17.659  0.00  0.00    +0.000 A 
ATOM      3  C   UNL     1      50.558   5.342  17.296  0.00  0.00    +0.000 A 
ATOM      4  C   UNL     1      49.224   5.108  16.993  0.00  0.00    +0.000 A 
ATOM      5  C   UNL     1      48.699   3.806  17.051  0.00  0.00    +0.000 A 
ATOM      6  C   UNL     1      49.542   2.724  17.317  0.00  0.00    +0.000 A 
ATOM      7  C   UNL     1      50.868   2.957  17.621  0.00  0.00    +0.000 A 
BRANCH   2   8
ATOM      8  C   UNL     1      52.769   4.484  18.108  0.00  0.00    +0.000 C 
BRANCH   8  13
ATOM      9  C   UNL     1      54.236   4.149  20.879  0.00  0.00    +0.000 C 
ATOM     10  C   UNL     1      52.995   4.265  21.760  0.00  0.00    +0.000 C 
ATOM     11  O   UNL     1      51.808   4.499  20.998  0.00  0.00    +0.000 OA
ATOM     12  C   UNL     1      51.871   5.679  20.193  0.00  0.00    +0.000 C 
ATOM     13  C   UNL     1      53.003   5.596  19.158  0.00  0.00    +0.000 C 
ATOM     14  C   UNL     1      54.325   5.357  19.925  0.00  0.00    +0.000 C 
BRANCH   9  16
ATOM     15  N   UNL     1      54.109   1.840  19.336  0.00  0.00    +0.000 NA
ATOM     16  C   UNL     1      54.166   2.886  20.035  0.00  0.00    +0.000 C 
ENDBRANCH   9  16
ENDBRANCH   8  13
ENDBRANCH   2   8
ENDBRANCH   1   5
BRANCH   1  17
ATOM     17  N   UNL     1      46.818   4.506  15.765  0.00  0.00    +0.000 N 
ATOM     18  C   UNL     1      46.826   4.239  14.430  0.00  0.00    +0.000 C 
ATOM     19  O   UNL     1      47.192   3.157  13.979  0.00  0.00    +0.000 OA
ATOM     20  H   UNL     1      46.747   5.466  16.085  0.00  0.00    +0.000 HD
BRANCH  18  21
ATOM     21  C   UNL     1      46.288   5.298  13.574  0.00  0.00    +0.000 A 
ATOM     22  C   UNL     1      47.067   6.411  13.295  0.00  0.00    +0.000 A 
ATOM     23  S   UNL     1      46.332   7.497  12.207  0.00  0.00    +0.000 S 
ATOM     24  C   UNL     1      44.929   6.539  12.107  0.00  0.00    +0.000 A 
ATOM     25  N   UNL     1      43.881   6.911  11.324  0.00  0.00    +0.000 NA
ATOM     26  C   UNL     1      42.879   6.097  11.353  0.00  0.00    +0.000 A 
ATOM     27  N   UNL     1      42.819   4.948  12.097  0.00  0.00    +0.000 N 
ATOM     28  C   UNL     1      43.854   4.527  12.894  0.00  0.00    +0.000 A 
ATOM     29  O   UNL     1      43.782   3.488  13.545  0.00  0.00    +0.000 OA
ATOM     30  C   UNL     1      45.018   5.406  12.889  0.00  0.00    +0.000 A 
ATOM     31  H   UNL     1      42.004   4.353  12.077  0.00  0.00    +0.000 HD
ENDBRANCH  18  21
ENDBRANCH   1  17
TORSDOF 6
ENDMDL
MODEL 3
REMARK VINA RESULT:    -6.489      3.393      9.773
REMARK INTER + INTRA:          -9.684
REMARK INTER:                  -8.715
REMARK INTRA:                  -0.969
REMARK UNBOUND:                -0.919
REMARK  Name = 
REMARK  6 active torsions:
REMARK  status: ('A' for Active; 'I' for Inactive)
REMARK    1  A    between atoms: C_2  and  C_3
REMARK    2  A    between atoms: C_7  and  C_8
REMARK    3  A    between atoms: C_8  and  C_9
REMARK    4  A    between atoms: C_12  and  C_13
REMARK    5  A    between atoms: C_13  and  N_14
REMARK    6  A    between atoms: C_15  and  C_17
REMARK                            x       y       z     vdW  Elec       q    Type
REMARK                         _______ _______ _______ _____ _____    ______ ____
ROOT
ATOM      1  C   UNL     1      47.150   3.441  16.781  0.00  0.00    +0.000 C 
ENDROOT
BRANCH   1   5
ATOM      2  C   UNL     1      51.070   4.444  18.141  0.00  0.00    +0.000 A 
ATOM      3  C   UNL     1      50.835   3.166  17.655  0.00  0.00    +0.000 A 
ATOM      4  C   UNL     1      49.561   2.838  17.214  0.00  0.00    +0.000 A 
ATOM      5  C   UNL     1      48.524   3.786  17.263  0.00  0.00    +0.000 A 
ATOM      6  C   UNL     1      48.746   5.034  17.850  0.00  0.00    +0.000 A 
ATOM      7  C   UNL     1      50.014   5.362  18.285  0.00  0.00    +0.000 A 
BRANCH   2   8
ATOM      8  C   UNL     1      52.444   4.885  18.515  0.00  0.00    +0.000 C 
BRANCH   8  13
ATOM      9  C   UNL     1      53.514   5.487  21.420  0.00  0.00    +0.000 C 
ATOM     10  C   UNL     1      54.990   5.612  21.051  0.00  0.00    +0.000 C 
ATOM     11  O   UNL     1      55.223   5.377  19.660  0.00  0.00    +0.000 OA
ATOM     12  C   UNL     1      54.781   4.091  19.217  0.00  0.00    +0.000 C 
ATOM     13  C   UNL     1      53.265   3.921  19.404  0.00  0.00    +0.000 C 
ATOM     14  C   UNL     1      52.948   4.150  20.901  0.00  0.00    +0.000 C 
BRANCH   9  16
ATOM     15  N   UNL     1      52.053   7.549  20.260  0.00  0.00    +0.000 NA
ATOM     16  C   UNL     1      52.715   6.614  20.786  0.00  0.00    +0.000 C 
ENDBRANCH   9  16
ENDBRANCH   8  13
ENDBRANCH   2   8
ENDBRANCH   1   5
BRANCH   1  17
ATOM     17  N   UNL     1      46.740   4.415  15.813  0.00  0.00    +0.000 N 
ATOM     18  C   UNL     1      46.812   4.179  14.475  0.00  0.00    +0.000 C 
ATOM     19  O   UNL     1      47.214   3.114  14.017  0.00  0.00    +0.000 OA
ATOM     20  H   UNL     1      46.640   5.366  16.152  0.00  0.00    +0.000 HD
BRANCH  18  21
ATOM     21  C   UNL     1      46.297   5.250  13.619  0.00  0.00    +0.000 A 
ATOM     22  C   UNL     1      47.093   6.355  13.357  0.00  0.00    +0.000 A 
ATOM     23  S   UNL     1      46.385   7.457  12.267  0.00  0.00    +0.000 S 
ATOM     24  C   UNL     1      44.973   6.516  12.143  0.00  0.00    +0.000 A 
ATOM     25  N   UNL     1      43.939   6.907  11.350  0.00  0.00    +0.000 NA
ATOM     26  C   UNL     1      42.926   6.104  11.361  0.00  0.00    +0.000 A 
ATOM     27  N   UNL     1      42.844   4.952  12.096  0.00  0.00    +0.000 N 
ATOM     28  C   UNL     1      43.863   4.513  12.904  0.00  0.00    +0.000 A 
ATOM     29  O   UNL     1      43.771   3.472  13.547  0.00  0.00    +0.000 OA
ATOM     30  C   UNL     1      45.037   5.379  12.918  0.00  0.00    +0.000 A 
ATOM     31  H   UNL     1      42.022   4.367  12.063  0.00  0.00    +0.000 HD
ENDBRANCH  18  21
ENDBRANCH   1  17
TORSDOF 6
ENDMDL
MODEL 4
REMARK VINA RESULT:    -6.482      4.396      9.193
REMARK INTER + INTRA:          -9.675
REMARK INTER:                  -8.508
REMARK INTRA:                  -1.167
REMARK UNBOUND:                -0.919
REMARK  Name = 
REMARK  6 active torsions:
REMARK  status: ('A' for Active; 'I' for Inactive)
REMARK    1  A    between atoms: C_2  and  C_3
REMARK    2  A    between atoms: C_7  and  C_8
REMARK    3  A    between atoms: C_8  and  C_9
REMARK    4  A    between atoms: C_12  and  C_13
REMARK    5  A    between atoms: C_13  and  N_14
REMARK    6  A    between atoms: C_15  and  C_17
REMARK                            x       y       z     vdW  Elec       q    Type
REMARK                         _______ _______ _______ _____ _____    ______ ____
ROOT
ATOM      1  C   UNL     1      47.879   4.255  16.172  0.00  0.00    +0.000 C 
ENDROOT
BRANCH   1   5
ATOM      2  C   UNL     1      48.013   7.163  19.293  0.00  0.00    +0.000 A 
ATOM      3  C   UNL     1      49.002   7.175  18.321  0.00  0.00    +0.000 A 
ATOM      4  C   UNL     1      48.961   6.230  17.307  0.00  0.00    +0.000 A 
ATOM      5  C   UNL     1      47.934   5.272  17.268  0.00  0.00    +0.000 A 
ATOM      6  C   UNL     1      47.004   5.203  18.307  0.00  0.00    +0.000 A 
ATOM      7  C   UNL     1      47.042   6.146  19.315  0.00  0.00    +0.000 A 
BRANCH   2   8
ATOM      8  C   UNL     1      47.943   8.227  20.335  0.00  0.00    +0.000 C 
BRANCH   8  13
ATOM      9  C   UNL     1      48.543  11.296  19.929  0.00  0.00    +0.000 C 
ATOM     10  C   UNL     1      48.035  11.765  21.290  0.00  0.00    +0.000 C 
ATOM     11  O   UNL     1      47.511  10.690  22.073  0.00  0.00    +0.000 OA
ATOM     12  C   UNL     1      46.439   9.990  21.436  0.00  0.00    +0.000 C 
ATOM     13  C   UNL     1      46.893   9.342  20.119  0.00  0.00    +0.000 C 
ATOM     14  C   UNL     1      47.460  10.463  19.215  0.00  0.00    +0.000 C 
BRANCH   9  16
ATOM     15  N   UNL     1      50.796   9.696  20.243  0.00  0.00    +0.000 NA
ATOM     16  C   UNL     1      49.774  10.421  20.101  0.00  0.00    +0.000 C 
ENDBRANCH   9  16
ENDBRANCH   8  13
ENDBRANCH   2   8
ENDBRANCH   1   5
BRANCH   1  17
ATOM     17  N   UNL     1      46.943   4.692  15.179  0.00  0.00    +0.000 N 
ATOM     18  C   UNL     1      47.323   5.438  14.106  0.00  0.00    +0.000 C 
ATOM     19  O   UNL     1      48.490   5.764  13.913  0.00  0.00    +0.000 OA
ATOM     20  H   UNL     1      45.963   4.646  15.438  0.00  0.00    +0.000 HD
BRANCH  18  21
ATOM     21  C   UNL     1      46.258   5.752  13.150  0.00  0.00    +0.000 A 
ATOM     22  C   UNL     1      45.963   7.079  12.872  0.00  0.00    +0.000 A 
ATOM     23  S   UNL     1      44.772   7.269  11.669  0.00  0.00    +0.000 S 
ATOM     24  C   UNL     1      44.578   5.586  11.512  0.00  0.00    +0.000 A 
ATOM     25  N   UNL     1      43.687   5.063  10.627  0.00  0.00    +0.000 NA
ATOM     26  C   UNL     1      43.636   3.772  10.622  0.00  0.00    +0.000 A 
ATOM     27  N   UNL     1      44.386   2.952  11.423  0.00  0.00    +0.000 N 
ATOM     28  C   UNL     1      45.303   3.433  12.323  0.00  0.00    +0.000 A 
ATOM     29  O   UNL     1      45.972   2.678  13.024  0.00  0.00    +0.000 OA
ATOM     30  C   UNL     1      45.409   4.887  12.361  0.00  0.00    +0.000 A 
ATOM     31  H   UNL     1      44.298   1.948  11.372  0.00  0.00    +0.000 HD
ENDBRANCH  18  21
ENDBRANCH   1  17
TORSDOF 6
ENDMDL
MODEL 5
REMARK VINA RESULT:    -6.383      4.047      9.364
REMARK INTER + INTRA:          -9.541
REMARK INTER:                  -8.702
REMARK INTRA:                  -0.839
REMARK UNBOUND:                -0.919
REMARK  Name = 
REMARK  6 active torsions:
REMARK  status: ('A' for Active; 'I' for Inactive)
REMARK    1  A    between atoms: C_2  and  C_3
REMARK    2  A    between atoms: C_7  and  C_8
REMARK    3  A    between atoms: C_8  and  C_9
REMARK    4  A    between atoms: C_12  and  C_13
REMARK    5  A    between atoms: C_13  and  N_14
REMARK    6  A    between atoms: C_15  and  C_17
REMARK                            x       y       z     vdW  Elec       q    Type
REMARK                         _______ _______ _______ _____ _____    ______ ____
ROOT
ATOM      1  C   UNL     1      47.418   3.542  16.622  0.00  0.00    +0.000 C 
ENDROOT
BRANCH   1   5
ATOM      2  C   UNL     1      48.594   5.726  20.096  0.00  0.00    +0.000 A 
ATOM      3  C   UNL     1      49.359   4.641  19.695  0.00  0.00    +0.000 A 
ATOM      4  C   UNL     1      48.977   3.928  18.567  0.00  0.00    +0.000 A 
ATOM      5  C   UNL     1      47.831   4.300  17.844  0.00  0.00    +0.000 A 
ATOM      6  C   UNL     1      47.012   5.329  18.316  0.00  0.00    +0.000 A 
ATOM      7  C   UNL     1      47.393   6.040  19.436  0.00  0.00    +0.000 A 
BRANCH   2   8
ATOM      8  C   UNL     1      49.025   6.596  21.228  0.00  0.00    +0.000 C 
BRANCH   8  13
ATOM      9  C   UNL     1      49.431   9.681  21.738  0.00  0.00    +0.000 C 
ATOM     10  C   UNL     1      49.544  10.097  20.274  0.00  0.00    +0.000 C 
ATOM     11  O   UNL     1      49.465   8.980  19.385  0.00  0.00    +0.000 OA
ATOM     12  C   UNL     1      50.465   7.988  19.625  0.00  0.00    +0.000 C 
ATOM     13  C   UNL     1      50.339   7.389  21.034  0.00  0.00    +0.000 C 
ATOM     14  C   UNL     1      50.433   8.552  22.049  0.00  0.00    +0.000 C 
BRANCH   9  16
ATOM     15  N   UNL     1      46.872   8.733  22.273  0.00  0.00    +0.000 NA
ATOM     16  C   UNL     1      48.032   9.163  22.031  0.00  0.00    +0.000 C 
ENDBRANCH   9  16
ENDBRANCH   8  13
ENDBRANCH   2   8
ENDBRANCH   1   5
BRANCH   1  17
ATOM     17  N   UNL     1      46.852   4.457  15.677  0.00  0.00    +0.000 N 
ATOM     18  C   UNL     1      46.809   4.185  14.344  0.00  0.00    +0.000 C 
ATOM     19  O   UNL     1      47.234   3.133  13.875  0.00  0.00    +0.000 OA
ATOM     20  H   UNL     1      46.724   5.411  15.999  0.00  0.00    +0.000 HD
BRANCH  18  21
ATOM     21  C   UNL     1      46.145   5.194  13.517  0.00  0.00    +0.000 A 
ATOM     22  C   UNL     1      46.769   6.413  13.296  0.00  0.00    +0.000 A 
ATOM     23  S   UNL     1      45.909   7.432  12.234  0.00  0.00    +0.000 S 
ATOM     24  C   UNL     1      44.652   6.296  12.070  0.00  0.00    +0.000 A 
ATOM     25  N   UNL     1      43.575   6.554  11.280  0.00  0.00    +0.000 NA
ATOM     26  C   UNL     1      42.692   5.610  11.258  0.00  0.00    +0.000 A 
ATOM     27  N   UNL     1      42.779   4.436  11.957  0.00  0.00    +0.000 N 
ATOM     28  C   UNL     1      43.849   4.128  12.760  0.00  0.00    +0.000 A 
ATOM     29  O   UNL     1      43.910   3.064  13.370  0.00  0.00    +0.000 OA
ATOM     30  C   UNL     1      44.882   5.157  12.810  0.00  0.00    +0.000 A 
ATOM     31  H   UNL     1      42.053   3.737  11.899  0.00  0.00    +0.000 HD
ENDBRANCH  18  21
ENDBRANCH   1  17
TORSDOF 6
ENDMDL
MODEL 6
REMARK VINA RESULT:    -6.375      5.934      9.215
REMARK INTER + INTRA:          -9.531
REMARK INTER:                  -8.618
REMARK INTRA:                  -0.912
REMARK UNBOUND:                -0.919
REMARK  Name = 
REMARK  6 active torsions:
REMARK  status: ('A' for Active; 'I' for Inactive)
REMARK    1  A    between atoms: C_2  and  C_3
REMARK    2  A    between atoms: C_7  and  C_8
REMARK    3  A    between atoms: C_8  and  C_9
REMARK    4  A    between atoms: C_12  and  C_13
REMARK    5  A    between atoms: C_13  and  N_14
REMARK    6  A    between atoms: C_15  and  C_17
REMARK                            x       y       z     vdW  Elec       q    Type
REMARK                         _______ _______ _______ _____ _____    ______ ____
ROOT
ATOM      1  C   UNL     1      46.541   8.347  12.980  0.00  0.00    +0.000 C 
ENDROOT
BRANCH   1   5
ATOM      2  C   UNL     1      50.498   8.525  11.390  0.00  0.00    +0.000 A 
ATOM      3  C   UNL     1      49.740   9.686  11.436  0.00  0.00    +0.000 A 
ATOM      4  C   UNL     1      48.453   9.629  11.950  0.00  0.00    +0.000 A 
ATOM      5  C   UNL     1      47.925   8.413  12.416  0.00  0.00    +0.000 A 
ATOM      6  C   UNL     1      48.657   7.233  12.270  0.00  0.00    +0.000 A 
ATOM      7  C   UNL     1      49.939   7.289  11.761  0.00  0.00    +0.000 A 
BRANCH   2   8
ATOM      8  C   UNL     1      51.925   8.553  10.959  0.00  0.00    +0.000 C 
BRANCH   8  13
ATOM      9  C   UNL     1      54.520   6.837  10.445  0.00  0.00    +0.000 C 
ATOM     10  C   UNL     1      55.190   7.803   9.471  0.00  0.00    +0.000 C 
ATOM     11  O   UNL     1      54.384   8.954   9.209  0.00  0.00    +0.000 OA
ATOM     12  C   UNL     1      53.095   8.639   8.678  0.00  0.00    +0.000 C 
ATOM     13  C   UNL     1      52.273   7.790   9.659  0.00  0.00    +0.000 C 
ATOM     14  C   UNL     1      53.088   6.514   9.973  0.00  0.00    +0.000 C 
BRANCH   9  16
ATOM     15  N   UNL     1      54.356   7.981  12.975  0.00  0.00    +0.000 NA
ATOM     16  C   UNL     1      54.430   7.463  11.828  0.00  0.00    +0.000 C 
ENDBRANCH   9  16
ENDBRANCH   8  13
ENDBRANCH   2   8
ENDBRANCH   1   5
BRANCH   1  17
ATOM     17  N   UNL     1      46.001   7.043  12.737  0.00  0.00    +0.000 N 
ATOM     18  C   UNL     1      45.031   6.824  11.807  0.00  0.00    +0.000 C 
ATOM     19  O   UNL     1      44.574   7.725  11.110  0.00  0.00    +0.000 OA
ATOM     20  H   UNL     1      46.180   6.345  13.451  0.00  0.00    +0.000 HD
BRANCH  18  21
ATOM     21  C   UNL     1      44.629   5.426  11.635  0.00  0.00    +0.000 A 
ATOM     22  C   UNL     1      43.941   4.784  12.654  0.00  0.00    +0.000 A 
ATOM     23  S   UNL     1      43.463   3.198  12.255  0.00  0.00    +0.000 S 
ATOM     24  C   UNL     1      44.198   3.301  10.723  0.00  0.00    +0.000 A 
ATOM     25  N   UNL     1      44.156   2.254   9.855  0.00  0.00    +0.000 NA
ATOM     26  C   UNL     1      44.765   2.465   8.736  0.00  0.00    +0.000 A 
ATOM     27  N   UNL     1      45.419   3.621   8.402  0.00  0.00    +0.000 N 
ATOM     28  C   UNL     1      45.481   4.706   9.241  0.00  0.00    +0.000 A 
ATOM     29  O   UNL     1      46.066   5.736   8.917  0.00  0.00    +0.000 OA
ATOM     30  C   UNL     1      44.798   4.524  10.516  0.00  0.00    +0.000 A 
ATOM     31  H   UNL     1      45.879   3.724   7.509  0.00  0.00    +0.000 HD
ENDBRANCH  18  21
ENDBRANCH   1  17
TORSDOF 6
ENDMDL
MODEL 7
REMARK VINA RESULT:    -6.370      3.383      8.917
REMARK INTER + INTRA:          -9.524
REMARK INTER:                  -8.567
REMARK INTRA:                  -0.957
REMARK UNBOUND:                -0.919
REMARK  Name = 
REMARK  6 active torsions:
REMARK  status: ('A' for Active; 'I' for Inactive)
REMARK    1  A    between atoms: C_2  and  C_3
REMARK    2  A    between atoms: C_7  and  C_8
REMARK    3  A    between atoms: C_8  and  C_9
REMARK    4  A    between atoms: C_12  and  C_13
REMARK    5  A    between atoms: C_13  and  N_14
REMARK    6  A    between atoms: C_15  and  C_17
REMARK                            x       y       z     vdW  Elec       q    Type
REMARK                         _______ _______ _______ _____ _____    ______ ____
ROOT
ATOM      1  C   UNL     1      47.491   7.905  11.774  0.00  0.00    +0.000 C 
ENDROOT
BRANCH   1   5
ATOM      2  C   UNL     1      49.517   7.972  15.531  0.00  0.00    +0.000 A 
ATOM      3  C   UNL     1      48.304   8.635  15.410  0.00  0.00    +0.000 A 
ATOM      4  C   UNL     1      47.645   8.616  14.189  0.00  0.00    +0.000 A 
ATOM      5  C   UNL     1      48.200   7.937  13.091  0.00  0.00    +0.000 A 
ATOM      6  C   UNL     1      49.469   7.362  13.195  0.00  0.00    +0.000 A 
ATOM      7  C   UNL     1      50.123   7.377  14.410  0.00  0.00    +0.000 A 
BRANCH   2   8
ATOM      8  C   UNL     1      50.206   7.861  16.848  0.00  0.00    +0.000 C 
BRANCH   8  13
ATOM      9  C   UNL     1      51.378   5.295  18.256  0.00  0.00    +0.000 C 
ATOM     10  C   UNL     1      50.469   4.277  17.572  0.00  0.00    +0.000 C 
ATOM     11  O   UNL     1      49.529   4.896  16.691  0.00  0.00    +0.000 OA
ATOM     12  C   UNL     1      48.686   5.853  17.337  0.00  0.00    +0.000 C 
ATOM     13  C   UNL     1      49.501   7.011  17.932  0.00  0.00    +0.000 C 
ATOM     14  C   UNL     1      50.534   6.406  18.912  0.00  0.00    +0.000 C 
BRANCH   9  16
ATOM     15  N   UNL     1      53.068   6.483  16.394  0.00  0.00    +0.000 NA
ATOM     16  C   UNL     1      52.302   5.944  17.238  0.00  0.00    +0.000 C 
ENDBRANCH   9  16
ENDBRANCH   8  13
ENDBRANCH   2   8
ENDBRANCH   1   5
BRANCH   1  17
ATOM     17  N   UNL     1      46.804   6.654  11.647  0.00  0.00    +0.000 N 
ATOM     18  C   UNL     1      45.446   6.575  11.609  0.00  0.00    +0.000 C 
ATOM     19  O   UNL     1      44.729   7.571  11.662  0.00  0.00    +0.000 OA
ATOM     20  H   UNL     1      47.350   5.822  11.845  0.00  0.00    +0.000 HD
BRANCH  18  21
ATOM     21  C   UNL     1      44.898   5.231  11.415  0.00  0.00    +0.000 A 
ATOM     22  C   UNL     1      44.194   4.627  12.446  0.00  0.00    +0.000 A 
ATOM     23  S   UNL     1      43.541   3.111  12.022  0.00  0.00    +0.000 S 
ATOM     24  C   UNL     1      44.217   3.191  10.462  0.00  0.00    +0.000 A 
ATOM     25  N   UNL     1      44.033   2.183   9.567  0.00  0.00    +0.000 NA
ATOM     26  C   UNL     1      44.612   2.370   8.428  0.00  0.00    +0.000 A 
ATOM     27  N   UNL     1      45.364   3.466   8.098  0.00  0.00    +0.000 N 
ATOM     28  C   UNL     1      45.570   4.511   8.964  0.00  0.00    +0.000 A 
ATOM     29  O   UNL     1      46.241   5.489   8.644  0.00  0.00    +0.000 OA
ATOM     30  C   UNL     1      44.928   4.355  10.264  0.00  0.00    +0.000 A 
ATOM     31  H   UNL     1      45.793   3.553   7.188  0.00  0.00    +0.000 HD
ENDBRANCH  18  21
ENDBRANCH   1  17
TORSDOF 6
ENDMDL
MODEL 8
REMARK VINA RESULT:    -6.342      4.469      9.116
REMARK INTER + INTRA:          -9.485
REMARK INTER:                  -8.336
REMARK INTRA:                  -1.149
REMARK UNBOUND:                -0.919
REMARK  Name = 
REMARK  6 active torsions:
REMARK  status: ('A' for Active; 'I' for Inactive)
REMARK    1  A    between atoms: C_2  and  C_3
REMARK    2  A    between atoms: C_7  and  C_8
REMARK    3  A    between atoms: C_8  and  C_9
REMARK    4  A    between atoms: C_12  and  C_13
REMARK    5  A    between atoms: C_13  and  N_14
REMARK    6  A    between atoms: C_15  and  C_17
REMARK                            x       y       z     vdW  Elec       q    Type
REMARK                         _______ _______ _______ _____ _____    ______ ____
ROOT
ATOM      1  C   UNL     1      47.469   7.854  12.098  0.00  0.00    +0.000 C 
ENDROOT
BRANCH   1   5
ATOM      2  C   UNL     1      48.968   8.048  16.090  0.00  0.00    +0.000 A 
ATOM      3  C   UNL     1      48.232   9.115  15.596  0.00  0.00    +0.000 A 
ATOM      4  C   UNL     1      47.746   9.055  14.298  0.00  0.00    +0.000 A 
ATOM      5  C   UNL     1      47.998   7.929  13.495  0.00  0.00    +0.000 A 
ATOM      6  C   UNL     1      48.825   6.907  13.966  0.00  0.00    +0.000 A 
ATOM      7  C   UNL     1      49.307   6.965  15.258  0.00  0.00    +0.000 A 
BRANCH   2   8
ATOM      8  C   UNL     1      49.411   8.010  17.512  0.00  0.00    +0.000 C 
BRANCH   8  13
ATOM      9  C   UNL     1      47.549   7.545  20.015  0.00  0.00    +0.000 C 
ATOM     10  C   UNL     1      48.663   7.391  21.047  0.00  0.00    +0.000 C 
ATOM     11  O   UNL     1      49.963   7.477  20.460  0.00  0.00    +0.000 OA
ATOM     12  C   UNL     1      50.193   6.505  19.437  0.00  0.00    +0.000 C 
ATOM     13  C   UNL     1      49.212   6.674  18.267  0.00  0.00    +0.000 C 
ATOM     14  C   UNL     1      47.777   6.575  18.838  0.00  0.00    +0.000 C 
BRANCH   9  16
ATOM     15  N   UNL     1      47.526  10.136  19.005  0.00  0.00    +0.000 NA
ATOM     16  C   UNL     1      47.536   8.961  19.463  0.00  0.00    +0.000 C 
ENDBRANCH   9  16
ENDBRANCH   8  13
ENDBRANCH   2   8
ENDBRANCH   1   5
BRANCH   1  17
ATOM     17  N   UNL     1      46.790   6.604  11.925  0.00  0.00    +0.000 N 
ATOM     18  C   UNL     1      45.436   6.527  11.805  0.00  0.00    +0.000 C 
ATOM     19  O   UNL     1      44.718   7.523  11.817  0.00  0.00    +0.000 OA
ATOM     20  H   UNL     1      47.322   5.771  12.153  0.00  0.00    +0.000 HD
BRANCH  18  21
ATOM     21  C   UNL     1      44.900   5.184  11.573  0.00  0.00    +0.000 A 
ATOM     22  C   UNL     1      44.221   4.536  12.594  0.00  0.00    +0.000 A 
ATOM     23  S   UNL     1      43.578   3.028  12.130  0.00  0.00    +0.000 S 
ATOM     24  C   UNL     1      44.224   3.171  10.562  0.00  0.00    +0.000 A 
ATOM     25  N   UNL     1      44.035   2.193   9.635  0.00  0.00    +0.000 NA
ATOM     26  C   UNL     1      44.590   2.427   8.493  0.00  0.00    +0.000 A 
ATOM     27  N   UNL     1      45.324   3.542   8.188  0.00  0.00    +0.000 N 
ATOM     28  C   UNL     1      45.535   4.559   9.087  0.00  0.00    +0.000 A 
ATOM     29  O   UNL     1      46.188   5.554   8.789  0.00  0.00    +0.000 OA
ATOM     30  C   UNL     1      44.918   4.349  10.391  0.00  0.00    +0.000 A 
ATOM     31  H   UNL     1      45.735   3.666   7.275  0.00  0.00    +0.000 HD
ENDBRANCH  18  21
ENDBRANCH   1  17
TORSDOF 6
ENDMDL
MODEL 9
REMARK VINA RESULT:    -6.211      4.200      5.768
REMARK INTER + INTRA:          -9.308
REMARK INTER:                  -8.311
REMARK INTRA:                  -0.998
REMARK UNBOUND:                -0.919
REMARK  Name = 
REMARK  6 active torsions:
REMARK  status: ('A' for Active; 'I' for Inactive)
REMARK    1  A    between atoms: C_2  and  C_3
REMARK    2  A    between atoms: C_7  and  C_8
REMARK    3  A    between atoms: C_8  and  C_9
REMARK    4  A    between atoms: C_12  and  C_13
REMARK    5  A    between atoms: C_13  and  N_14
REMARK    6  A    between atoms: C_15  and  C_17
REMARK                            x       y       z     vdW  Elec       q    Type
REMARK                         _______ _______ _______ _____ _____    ______ ____
ROOT
ATOM      1  C   UNL     1      46.305   4.873  13.420  0.00  0.00    +0.000 C 
ENDROOT
BRANCH   1   5
ATOM      2  C   UNL     1      45.081   8.639  11.826  0.00  0.00    +0.000 A 
ATOM      3  C   UNL     1      44.445   7.486  11.390  0.00  0.00    +0.000 A 
ATOM      4  C   UNL     1      44.843   6.261  11.905  0.00  0.00    +0.000 A 
ATOM      5  C   UNL     1      45.877   6.190  12.854  0.00  0.00    +0.000 A 
ATOM      6  C   UNL     1      46.580   7.344  13.208  0.00  0.00    +0.000 A 
ATOM      7  C   UNL     1      46.182   8.563  12.699  0.00  0.00    +0.000 A 
BRANCH   2   8
ATOM      8  C   UNL     1      44.614   9.987  11.395  0.00  0.00    +0.000 C 
BRANCH   8  13
ATOM      9  C   UNL     1      43.812  12.083   9.180  0.00  0.00    +0.000 C 
ATOM     10  C   UNL     1      42.809  12.867  10.022  0.00  0.00    +0.000 C 
ATOM     11  O   UNL     1      42.656  12.319  11.333  0.00  0.00    +0.000 OA
ATOM     12  C   UNL     1      42.238  10.952  11.335  0.00  0.00    +0.000 C 
ATOM     13  C   UNL     1      43.265  10.047  10.640  0.00  0.00    +0.000 C 
ATOM     14  C   UNL     1      43.465  10.581   9.202  0.00  0.00    +0.000 C 
BRANCH   9  16
ATOM     15  N   UNL     1      46.378  12.391  10.207  0.00  0.00    +0.000 NA
ATOM     16  C   UNL     1      45.215  12.251   9.741  0.00  0.00    +0.000 C 
ENDBRANCH   9  16
ENDBRANCH   8  13
ENDBRANCH   2   8
ENDBRANCH   1   5
BRANCH   1  17
ATOM     17  N   UNL     1      46.877   5.089  14.716  0.00  0.00    +0.000 N 
ATOM     18  C   UNL     1      47.493   4.092  15.409  0.00  0.00    +0.000 C 
ATOM     19  O   UNL     1      47.613   2.957  14.959  0.00  0.00    +0.000 OA
ATOM     20  H   UNL     1      46.582   5.930  15.201  0.00  0.00    +0.000 HD
BRANCH  18  21
ATOM     21  C   UNL     1      48.080   4.488  16.691  0.00  0.00    +0.000 A 
ATOM     22  C   UNL     1      47.707   3.817  17.847  0.00  0.00    +0.000 A 
ATOM     23  S   UNL     1      48.554   4.332  19.232  0.00  0.00    +0.000 S 
ATOM     24  C   UNL     1      49.414   5.500  18.343  0.00  0.00    +0.000 A 
ATOM     25  N   UNL     1      50.327   6.308  18.947  0.00  0.00    +0.000 NA
ATOM     26  C   UNL     1      50.896   7.155  18.155  0.00  0.00    +0.000 A 
ATOM     27  N   UNL     1      50.634   7.280  16.817  0.00  0.00    +0.000 N 
ATOM     28  C   UNL     1      49.728   6.483  16.162  0.00  0.00    +0.000 A 
ATOM     29  O   UNL     1      49.516   6.606  14.959  0.00  0.00    +0.000 OA
ATOM     30  C   UNL     1      49.065   5.499  17.010  0.00  0.00    +0.000 A 
ATOM     31  H   UNL     1      51.112   7.965  16.251  0.00  0.00    +0.000 HD
ENDBRANCH  18  21
ENDBRANCH   1  17
TORSDOF 6
ENDMDL
