MODEL 1
REMARK VINA RESULT:    -6.888      0.000      0.000
REMARK INTER + INTRA:          -9.008
REMARK INTER:                  -8.096
REMARK INTRA:                  -0.912
REMARK UNBOUND:                -0.912
REMARK  Name = 
REMARK  5 active torsions:
REMARK  status: ('A' for Active; 'I' for Inactive)
REMARK    1  A    between atoms: C_1  and  C_2
REMARK    2  A    between atoms: C_4  and  C_5
REMARK    3  A    between atoms: N_8  and  C_9
REMARK    4  A    between atoms: C_9  and  C_10
REMARK    5  A    between atoms: C_15  and  C_16
REMARK                            x       y       z     vdW  Elec       q    Type
REMARK                         _______ _______ _______ _____ _____    ______ ____
ROOT
ATOM      1  C   UNL     1      47.338   7.901  12.280  0.00  0.00    +0.000 A 
ATOM      2  C   UNL     1      46.707   9.152  12.322  0.00  0.00    +0.000 A 
ATOM      3  C   UNL     1      45.392   9.310  11.904  0.00  0.00    +0.000 A 
ATOM      4  C   UNL     1      44.672   8.211  11.452  0.00  0.00    +0.000 A 
ATOM      5  F   UNL     1      43.445   8.454  10.977  0.00  0.00    +0.000 F 
ATOM      6  C   UNL     1      45.213   6.919  11.464  0.00  0.00    +0.000 A 
ATOM      7  C   UNL     1      46.558   6.799  11.878  0.00  0.00    +0.000 A 
ENDROOT
BRANCH   6   8
ATOM      8  C   UNL     1      44.480   5.666  10.989  0.00  0.00    +0.000 C 
ATOM      9  C   UNL     1      43.006   5.505  11.403  0.00  0.00    +0.000 C 
ATOM     10  C   UNL     1      42.848   5.097  12.872  0.00  0.00    +0.000 C 
ATOM     11  N   UNL     1      43.601   3.882  13.197  0.00  0.00    +0.000 NA
ATOM     12  C   UNL     1      45.015   4.022  12.854  0.00  0.00    +0.000 C 
ATOM     13  C   UNL     1      45.210   4.362  11.378  0.00  0.00    +0.000 C 
ATOM     14  H   UNL     1      43.202   3.099  12.681  0.00  0.00    +0.000 HD
ENDBRANCH   6   8
BRANCH   1  15
ATOM     15  C   UNL     1      48.833   7.765  12.572  0.00  0.00    +0.000 C 
ATOM     16  C   UNL     1      49.793   7.669  11.390  0.00  0.00    +0.000 C 
ATOM     17  C   UNL     1      49.691   8.945  12.152  0.00  0.00    +0.000 C 
BRANCH  15  25
ATOM     18  C   UNL     1      48.001   9.810  17.538  0.00  0.00    +0.000 C 
ATOM     19  C   UNL     1      48.481   8.510  16.966  0.00  0.00    +0.000 A 
ATOM     20  C   UNL     1      48.757   7.415  17.781  0.00  0.00    +0.000 A 
ATOM     21  C   UNL     1      49.170   6.230  17.188  0.00  0.00    +0.000 A 
ATOM     22  C   UNL     1      49.545   5.035  18.013  0.00  0.00    +0.000 C 
ATOM     23  N   UNL     1      49.277   6.084  15.846  0.00  0.00    +0.000 NA
ATOM     24  C   UNL     1      49.011   7.143  15.052  0.00  0.00    +0.000 A 
ATOM     25  N   UNL     1      49.176   6.900  13.695  0.00  0.00    +0.000 N 
ATOM     26  C   UNL     1      48.638   8.368  15.581  0.00  0.00    +0.000 A 
ATOM     27  H   UNL     1      49.338   5.908  13.551  0.00  0.00    +0.000 HD
ENDBRANCH  15  25
ENDBRANCH   1  15
TORSDOF 3
ENDMDL
MODEL 2
REMARK VINA RESULT:    -6.384      3.395      7.783
REMARK INTER + INTRA:          -8.416
REMARK INTER:                  -7.964
REMARK INTRA:                  -0.452
REMARK UNBOUND:                -0.912
REMARK  Name = 
REMARK  5 active torsions:
REMARK  status: ('A' for Active; 'I' for Inactive)
REMARK    1  A    between atoms: C_1  and  C_2
REMARK    2  A    between atoms: C_4  and  C_5
REMARK    3  A    between atoms: N_8  and  C_9
REMARK    4  A    between atoms: C_9  and  C_10
REMARK    5  A    between atoms: C_15  and  C_16
REMARK                            x       y       z     vdW  Elec       q    Type
REMARK                         _______ _______ _______ _____ _____    ______ ____
ROOT
ATOM      1  C   UNL     1      45.408   4.567  11.953  0.00  0.00    +0.000 A 
ATOM      2  C   UNL     1      45.660   3.917  13.170  0.00  0.00    +0.000 A 
ATOM      3  C   UNL     1      46.682   4.337  14.011  0.00  0.00    +0.000 A 
ATOM      4  C   UNL     1      47.464   5.432  13.661  0.00  0.00    +0.000 A 
ATOM      5  F   UNL     1      48.488   5.718  14.472  0.00  0.00    +0.000 F 
ATOM      6  C   UNL     1      47.211   6.177  12.503  0.00  0.00    +0.000 A 
ATOM      7  C   UNL     1      46.176   5.711  11.662  0.00  0.00    +0.000 A 
ENDROOT
BRANCH   6   8
ATOM      8  C   UNL     1      48.022   7.392  12.058  0.00  0.00    +0.000 C 
ATOM      9  C   UNL     1      49.023   7.986  13.066  0.00  0.00    +0.000 C 
ATOM     10  C   UNL     1      48.336   8.792  14.173  0.00  0.00    +0.000 C 
ATOM     11  N   UNL     1      47.469   9.846  13.639  0.00  0.00    +0.000 NA
ATOM     12  C   UNL     1      46.478   9.305  12.711  0.00  0.00    +0.000 C 
ATOM     13  C   UNL     1      47.135   8.552  11.556  0.00  0.00    +0.000 C 
ATOM     14  H   UNL     1      48.045  10.535  13.158  0.00  0.00    +0.000 HD
ENDBRANCH   6   8
BRANCH   1  15
ATOM     15  C   UNL     1      44.403   3.997  10.952  0.00  0.00    +0.000 C 
ATOM     16  C   UNL     1      42.915   4.152  11.255  0.00  0.00    +0.000 C 
ATOM     17  C   UNL     1      43.549   5.022  10.225  0.00  0.00    +0.000 C 
BRANCH  15  25
ATOM     18  C   UNL     1      46.922   4.169   6.139  0.00  0.00    +0.000 C 
ATOM     19  C   UNL     1      46.502   3.104   7.108  0.00  0.00    +0.000 A 
ATOM     20  C   UNL     1      46.831   1.767   6.904  0.00  0.00    +0.000 A 
ATOM     21  C   UNL     1      46.438   0.831   7.851  0.00  0.00    +0.000 A 
ATOM     22  C   UNL     1      46.705  -0.632   7.660  0.00  0.00    +0.000 C 
ATOM     23  N   UNL     1      45.781   1.173   8.985  0.00  0.00    +0.000 NA
ATOM     24  C   UNL     1      45.459   2.469   9.187  0.00  0.00    +0.000 A 
ATOM     25  N   UNL     1      44.764   2.712  10.363  0.00  0.00    +0.000 N 
ATOM     26  C   UNL     1      45.781   3.447   8.259  0.00  0.00    +0.000 A 
ATOM     27  H   UNL     1      44.752   1.866  10.924  0.00  0.00    +0.000 HD
ENDBRANCH  15  25
ENDBRANCH   1  15
TORSDOF 3
ENDMDL
MODEL 3
REMARK VINA RESULT:    -6.210      3.061      6.003
REMARK INTER + INTRA:          -8.211
REMARK INTER:                  -7.985
REMARK INTRA:                  -0.226
REMARK UNBOUND:                -0.912
REMARK  Name = 
REMARK  5 active torsions:
REMARK  status: ('A' for Active; 'I' for Inactive)
REMARK    1  A    between atoms: C_1  and  C_2
REMARK    2  A    between atoms: C_4  and  C_5
REMARK    3  A    between atoms: N_8  and  C_9
REMARK    4  A    between atoms: C_9  and  C_10
REMARK    5  A    between atoms: C_15  and  C_16
REMARK                            x       y       z     vdW  Elec       q    Type
REMARK                         _______ _______ _______ _____ _____    ______ ____
ROOT
ATOM      1  C   UNL     1      46.822   8.089  12.578  0.00  0.00    +0.000 A 
ATOM      2  C   UNL     1      47.718   7.627  13.551  0.00  0.00    +0.000 A 
ATOM      3  C   UNL     1      47.778   6.282  13.894  0.00  0.00    +0.000 A 
ATOM      4  C   UNL     1      46.952   5.366  13.254  0.00  0.00    +0.000 A 
ATOM      5  F   UNL     1      46.996   4.106  13.702  0.00  0.00    +0.000 F 
ATOM      6  C   UNL     1      46.095   5.748  12.214  0.00  0.00    +0.000 A 
ATOM      7  C   UNL     1      46.047   7.125  11.904  0.00  0.00    +0.000 A 
ENDROOT
BRANCH   6   8
ATOM      8  C   UNL     1      45.165   4.797  11.462  0.00  0.00    +0.000 C 
ATOM      9  C   UNL     1      44.120   5.421  10.520  0.00  0.00    +0.000 C 
ATOM     10  C   UNL     1      42.944   6.047  11.277  0.00  0.00    +0.000 C 
ATOM     11  N   UNL     1      42.300   5.097  12.189  0.00  0.00    +0.000 NA
ATOM     12  C   UNL     1      43.261   4.519  13.126  0.00  0.00    +0.000 C 
ATOM     13  C   UNL     1      44.414   3.827  12.401  0.00  0.00    +0.000 C 
ATOM     14  H   UNL     1      41.870   4.353  11.641  0.00  0.00    +0.000 HD
ENDBRANCH   6   8
BRANCH   1  15
ATOM     15  C   UNL     1      46.635   9.586  12.330  0.00  0.00    +0.000 C 
ATOM     16  C   UNL     1      47.752  10.533  12.761  0.00  0.00    +0.000 C 
ATOM     17  C   UNL     1      47.584  10.205  11.317  0.00  0.00    +0.000 C 
BRANCH  15  25
ATOM     18  C   UNL     1      43.715  10.824   7.917  0.00  0.00    +0.000 C 
ATOM     19  C   UNL     1      43.496  10.828   9.400  0.00  0.00    +0.000 A 
ATOM     20  C   UNL     1      42.253  11.133   9.950  0.00  0.00    +0.000 A 
ATOM     21  C   UNL     1      42.107  11.092  11.330  0.00  0.00    +0.000 A 
ATOM     22  C   UNL     1      40.814  11.472  11.988  0.00  0.00    +0.000 C 
ATOM     23  N   UNL     1      43.113  10.728  12.160  0.00  0.00    +0.000 NA
ATOM     24  C   UNL     1      44.319  10.433  11.632  0.00  0.00    +0.000 A 
ATOM     25  N   UNL     1      45.290  10.099  12.565  0.00  0.00    +0.000 N 
ATOM     26  C   UNL     1      44.547  10.498  10.266  0.00  0.00    +0.000 A 
ATOM     27  H   UNL     1      44.856  10.007  13.479  0.00  0.00    +0.000 HD
ENDBRANCH  15  25
ENDBRANCH   1  15
TORSDOF 3
ENDMDL
MODEL 4
REMARK VINA RESULT:    -6.113      2.510      4.632
REMARK INTER + INTRA:          -8.097
REMARK INTER:                  -8.114
REMARK INTRA:                   0.017
REMARK UNBOUND:                -0.912
REMARK  Name = 
REMARK  5 active torsions:
REMARK  status: ('A' for Active; 'I' for Inactive)
REMARK    1  A    between atoms: C_1  and  C_2
REMARK    2  A    between atoms: C_4  and  C_5
REMARK    3  A    between atoms: N_8  and  C_9
REMARK    4  A    between atoms: C_9  and  C_10
REMARK    5  A    between atoms: C_15  and  C_16
REMARK                            x       y       z     vdW  Elec       q    Type
REMARK                         _______ _______ _______ _____ _____    ______ ____
ROOT
ATOM      1  C   UNL     1      47.702   5.294  15.147  0.00  0.00    +0.000 A 
ATOM      2  C   UNL     1      48.340   6.473  14.737  0.00  0.00    +0.000 A 
ATOM      3  C   UNL     1      48.110   7.016  13.480  0.00  0.00    +0.000 A 
ATOM      4  C   UNL     1      47.219   6.399  12.610  0.00  0.00    +0.000 A 
ATOM      5  F   UNL     1      47.120   6.923  11.383  0.00  0.00    +0.000 F 
ATOM      6  C   UNL     1      46.485   5.267  12.988  0.00  0.00    +0.000 A 
ATOM      7  C   UNL     1      46.757   4.732  14.266  0.00  0.00    +0.000 A 
ENDROOT
BRANCH   6   8
ATOM      8  C   UNL     1      45.486   4.541  12.090  0.00  0.00    +0.000 C 
ATOM      9  C   UNL     1      44.899   5.323  10.900  0.00  0.00    +0.000 C 
ATOM     10  C   UNL     1      43.840   6.344  11.331  0.00  0.00    +0.000 C 
ATOM     11  N   UNL     1      42.764   5.732  12.116  0.00  0.00    +0.000 NA
ATOM     12  C   UNL     1      43.288   5.018  13.278  0.00  0.00    +0.000 C 
ATOM     13  C   UNL     1      44.298   3.945  12.876  0.00  0.00    +0.000 C 
ATOM     14  H   UNL     1      42.250   5.084  11.521  0.00  0.00    +0.000 HD
ENDBRANCH   6   8
BRANCH   1  15
ATOM     15  C   UNL     1      48.090   4.606  16.456  0.00  0.00    +0.000 C 
ATOM     16  C   UNL     1      46.974   4.194  17.412  0.00  0.00    +0.000 C 
ATOM     17  C   UNL     1      47.655   3.156  16.587  0.00  0.00    +0.000 C 
BRANCH  15  25
ATOM     18  C   UNL     1      52.015   1.023  17.592  0.00  0.00    +0.000 C 
ATOM     19  C   UNL     1      51.818   2.502  17.743  0.00  0.00    +0.000 A 
ATOM     20  C   UNL     1      52.837   3.326  18.213  0.00  0.00    +0.000 A 
ATOM     21  C   UNL     1      52.602   4.691  18.303  0.00  0.00    +0.000 A 
ATOM     22  C   UNL     1      53.635   5.625  18.860  0.00  0.00    +0.000 C 
ATOM     23  N   UNL     1      51.435   5.257  17.915  0.00  0.00    +0.000 NA
ATOM     24  C   UNL     1      50.443   4.462  17.460  0.00  0.00    +0.000 A 
ATOM     25  N   UNL     1      49.279   5.134  17.115  0.00  0.00    +0.000 N 
ATOM     26  C   UNL     1      50.595   3.087  17.388  0.00  0.00    +0.000 A 
ATOM     27  H   UNL     1      49.451   6.135  17.143  0.00  0.00    +0.000 HD
ENDBRANCH  15  25
ENDBRANCH   1  15
TORSDOF 3
ENDMDL
MODEL 5
REMARK VINA RESULT:    -6.057      2.891      6.676
REMARK INTER + INTRA:          -8.032
REMARK INTER:                  -7.988
REMARK INTRA:                  -0.044
REMARK UNBOUND:                -0.912
REMARK  Name = 
REMARK  5 active torsions:
REMARK  status: ('A' for Active; 'I' for Inactive)
REMARK    1  A    between atoms: C_1  and  C_2
REMARK    2  A    between atoms: C_4  and  C_5
REMARK    3  A    between atoms: N_8  and  C_9
REMARK    4  A    between atoms: C_9  and  C_10
REMARK    5  A    between atoms: C_15  and  C_16
REMARK                            x       y       z     vdW  Elec       q    Type
REMARK                         _______ _______ _______ _____ _____    ______ ____
ROOT
ATOM      1  C   UNL     1      48.480   7.143  14.254  0.00  0.00    +0.000 A 
ATOM      2  C   UNL     1      49.652   7.876  14.021  0.00  0.00    +0.000 A 
ATOM      3  C   UNL     1      50.740   7.788  14.879  0.00  0.00    +0.000 A 
ATOM      4  C   UNL     1      50.685   6.945  15.984  0.00  0.00    +0.000 A 
ATOM      5  F   UNL     1      51.731   6.984  16.817  0.00  0.00    +0.000 F 
ATOM      6  C   UNL     1      49.579   6.122  16.228  0.00  0.00    +0.000 A 
ATOM      7  C   UNL     1      48.484   6.251  15.345  0.00  0.00    +0.000 A 
ENDROOT
BRANCH   6   8
ATOM      8  C   UNL     1      49.451   5.169  17.415  0.00  0.00    +0.000 C 
ATOM      9  C   UNL     1      48.524   3.951  17.253  0.00  0.00    +0.000 C 
ATOM     10  C   UNL     1      47.040   4.327  17.336  0.00  0.00    +0.000 C 
ATOM     11  N   UNL     1      46.716   5.050  18.569  0.00  0.00    +0.000 NA
ATOM     12  C   UNL     1      47.553   6.238  18.728  0.00  0.00    +0.000 C 
ATOM     13  C   UNL     1      49.040   5.888  18.718  0.00  0.00    +0.000 C 
ATOM     14  H   UNL     1      46.855   4.426  19.362  0.00  0.00    +0.000 HD
ENDBRANCH   6   8
BRANCH   1  15
ATOM     15  C   UNL     1      47.227   7.376  13.410  0.00  0.00    +0.000 C 
ATOM     16  C   UNL     1      46.646   8.786  13.356  0.00  0.00    +0.000 C 
ATOM     17  C   UNL     1      47.414   8.263  12.191  0.00  0.00    +0.000 C 
BRANCH  15  25
ATOM     18  C   UNL     1      45.858   5.088   8.674  0.00  0.00    +0.000 C 
ATOM     19  C   UNL     1      45.498   4.896  10.117  0.00  0.00    +0.000 A 
ATOM     20  C   UNL     1      44.665   3.858  10.526  0.00  0.00    +0.000 A 
ATOM     21  C   UNL     1      44.392   3.716  11.880  0.00  0.00    +0.000 A 
ATOM     22  C   UNL     1      43.452   2.659  12.379  0.00  0.00    +0.000 C 
ATOM     23  N   UNL     1      44.935   4.523  12.822  0.00  0.00    +0.000 NA
ATOM     24  C   UNL     1      45.742   5.531  12.431  0.00  0.00    +0.000 A 
ATOM     25  N   UNL     1      46.226   6.317  13.467  0.00  0.00    +0.000 N 
ATOM     26  C   UNL     1      46.020   5.757  11.092  0.00  0.00    +0.000 A 
ATOM     27  H   UNL     1      45.981   5.886  14.354  0.00  0.00    +0.000 HD
ENDBRANCH  15  25
ENDBRANCH   1  15
TORSDOF 3
ENDMDL
MODEL 6
REMARK VINA RESULT:    -5.926      4.011      8.780
REMARK INTER + INTRA:          -7.877
REMARK INTER:                  -7.337
REMARK INTRA:                  -0.540
REMARK UNBOUND:                -0.912
REMARK  Name = 
REMARK  5 active torsions:
REMARK  status: ('A' for Active; 'I' for Inactive)
REMARK    1  A    between atoms: C_1  and  C_2
REMARK    2  A    between atoms: C_4  and  C_5
REMARK    3  A    between atoms: N_8  and  C_9
REMARK    4  A    between atoms: C_9  and  C_10
REMARK    5  A    between atoms: C_15  and  C_16
REMARK                            x       y       z     vdW  Elec       q    Type
REMARK                         _______ _______ _______ _____ _____    ______ ____
ROOT
ATOM      1  C   UNL     1      49.227   3.854  17.386  0.00  0.00    +0.000 A 
ATOM      2  C   UNL     1      49.185   2.488  17.070  0.00  0.00    +0.000 A 
ATOM      3  C   UNL     1      50.341   1.719  17.045  0.00  0.00    +0.000 A 
ATOM      4  C   UNL     1      51.566   2.298  17.355  0.00  0.00    +0.000 A 
ATOM      5  F   UNL     1      52.646   1.522  17.217  0.00  0.00    +0.000 F 
ATOM      6  C   UNL     1      51.667   3.635  17.760  0.00  0.00    +0.000 A 
ATOM      7  C   UNL     1      50.474   4.392  17.758  0.00  0.00    +0.000 A 
ENDROOT
BRANCH   6   8
ATOM      8  C   UNL     1      52.976   4.335  18.121  0.00  0.00    +0.000 C 
ATOM      9  C   UNL     1      54.167   3.450  18.531  0.00  0.00    +0.000 C 
ATOM     10  C   UNL     1      54.023   2.889  19.949  0.00  0.00    +0.000 C 
ATOM     11  N   UNL     1      53.807   3.941  20.946  0.00  0.00    +0.000 NA
ATOM     12  C   UNL     1      52.654   4.772  20.606  0.00  0.00    +0.000 C 
ATOM     13  C   UNL     1      52.799   5.403  19.223  0.00  0.00    +0.000 C 
ATOM     14  H   UNL     1      54.643   4.522  20.998  0.00  0.00    +0.000 HD
ENDBRANCH   6   8
BRANCH   1  15
ATOM     15  C   UNL     1      47.984   4.732  17.240  0.00  0.00    +0.000 C 
ATOM     16  C   UNL     1      47.344   5.292  18.507  0.00  0.00    +0.000 C 
ATOM     17  C   UNL     1      48.160   6.187  17.640  0.00  0.00    +0.000 C 
BRANCH  15  25
ATOM     18  C   UNL     1      48.279   7.247  12.432  0.00  0.00    +0.000 C 
ATOM     19  C   UNL     1      47.462   6.141  13.030  0.00  0.00    +0.000 A 
ATOM     20  C   UNL     1      46.548   5.419  12.268  0.00  0.00    +0.000 A 
ATOM     21  C   UNL     1      45.843   4.387  12.873  0.00  0.00    +0.000 A 
ATOM     22  C   UNL     1      44.798   3.614  12.125  0.00  0.00    +0.000 C 
ATOM     23  N   UNL     1      46.037   4.031  14.165  0.00  0.00    +0.000 NA
ATOM     24  C   UNL     1      46.921   4.729  14.908  0.00  0.00    +0.000 A 
ATOM     25  N   UNL     1      47.028   4.304  16.225  0.00  0.00    +0.000 N 
ATOM     26  C   UNL     1      47.625   5.799  14.379  0.00  0.00    +0.000 A 
ATOM     27  H   UNL     1      46.506   3.440  16.340  0.00  0.00    +0.000 HD
ENDBRANCH  15  25
ENDBRANCH   1  15
TORSDOF 3
ENDMDL
MODEL 7
REMARK VINA RESULT:    -5.912      2.373      4.038
REMARK INTER + INTRA:          -7.861
REMARK INTER:                  -7.515
REMARK INTRA:                  -0.345
REMARK UNBOUND:                -0.912
REMARK  Name = 
REMARK  5 active torsions:
REMARK  status: ('A' for Active; 'I' for Inactive)
REMARK    1  A    between atoms: C_1  and  C_2
REMARK    2  A    between atoms: C_4  and  C_5
REMARK    3  A    between atoms: N_8  and  C_9
REMARK    4  A    between atoms: C_9  and  C_10
REMARK    5  A    between atoms: C_15  and  C_16
REMARK                            x       y       z     vdW  Elec       q    Type
REMARK                         _______ _______ _______ _____ _____    ______ ____
ROOT
ATOM      1  C   UNL     1      47.470   5.192  15.324  0.00  0.00    +0.000 A 
ATOM      2  C   UNL     1      48.273   6.259  14.895  0.00  0.00    +0.000 A 
ATOM      3  C   UNL     1      48.212   6.725  13.588  0.00  0.00    +0.000 A 
ATOM      4  C   UNL     1      47.331   6.144  12.684  0.00  0.00    +0.000 A 
ATOM      5  F   UNL     1      47.396   6.579  11.421  0.00  0.00    +0.000 F 
ATOM      6  C   UNL     1      46.442   5.132  13.069  0.00  0.00    +0.000 A 
ATOM      7  C   UNL     1      46.543   4.670  14.400  0.00  0.00    +0.000 A 
ENDROOT
BRANCH   6   8
ATOM      8  C   UNL     1      45.444   4.452  12.134  0.00  0.00    +0.000 C 
ATOM      9  C   UNL     1      44.920   5.268  10.938  0.00  0.00    +0.000 C 
ATOM     10  C   UNL     1      43.886   6.321  11.352  0.00  0.00    +0.000 C 
ATOM     11  N   UNL     1      42.767   5.740  12.098  0.00  0.00    +0.000 NA
ATOM     12  C   UNL     1      43.231   4.994  13.266  0.00  0.00    +0.000 C 
ATOM     13  C   UNL     1      44.214   3.890  12.879  0.00  0.00    +0.000 C 
ATOM     14  H   UNL     1      42.247   5.117  11.481  0.00  0.00    +0.000 HD
ENDBRANCH   6   8
BRANCH   1  15
ATOM     15  C   UNL     1      47.666   4.569  16.706  0.00  0.00    +0.000 C 
ATOM     16  C   UNL     1      47.329   3.091  16.886  0.00  0.00    +0.000 C 
ATOM     17  C   UNL     1      48.755   3.514  16.801  0.00  0.00    +0.000 C 
BRANCH  15  25
ATOM     18  C   UNL     1      51.604   7.620  18.878  0.00  0.00    +0.000 C 
ATOM     19  C   UNL     1      50.135   7.419  19.106  0.00  0.00    +0.000 A 
ATOM     20  C   UNL     1      49.431   8.189  20.028  0.00  0.00    +0.000 A 
ATOM     21  C   UNL     1      48.067   7.974  20.172  0.00  0.00    +0.000 A 
ATOM     22  C   UNL     1      47.264   8.725  21.193  0.00  0.00    +0.000 C 
ATOM     23  N   UNL     1      47.388   7.073  19.425  0.00  0.00    +0.000 NA
ATOM     24  C   UNL     1      48.066   6.324  18.530  0.00  0.00    +0.000 A 
ATOM     25  N   UNL     1      47.285   5.412  17.834  0.00  0.00    +0.000 N 
ATOM     26  C   UNL     1      49.436   6.455  18.368  0.00  0.00    +0.000 A 
ATOM     27  H   UNL     1      46.306   5.585  18.041  0.00  0.00    +0.000 HD
ENDBRANCH  15  25
ENDBRANCH   1  15
TORSDOF 3
ENDMDL
MODEL 8
REMARK VINA RESULT:    -5.585      1.599      4.042
REMARK INTER + INTRA:          -7.476
REMARK INTER:                  -7.366
REMARK INTRA:                  -0.111
REMARK UNBOUND:                -0.912
REMARK  Name = 
REMARK  5 active torsions:
REMARK  status: ('A' for Active; 'I' for Inactive)
REMARK    1  A    between atoms: C_1  and  C_2
REMARK    2  A    between atoms: C_4  and  C_5
REMARK    3  A    between atoms: N_8  and  C_9
REMARK    4  A    between atoms: C_9  and  C_10
REMARK    5  A    between atoms: C_15  and  C_16
REMARK                            x       y       z     vdW  Elec       q    Type
REMARK                         _______ _______ _______ _____ _____    ______ ____
ROOT
ATOM      1  C   UNL     1      47.300   7.561  13.127  0.00  0.00    +0.000 A 
ATOM      2  C   UNL     1      46.750   8.850  13.142  0.00  0.00    +0.000 A 
ATOM      3  C   UNL     1      45.571   9.137  12.467  0.00  0.00    +0.000 A 
ATOM      4  C   UNL     1      44.905   8.132  11.775  0.00  0.00    +0.000 A 
ATOM      5  F   UNL     1      43.830   8.502  11.071  0.00  0.00    +0.000 F 
ATOM      6  C   UNL     1      45.354   6.806  11.790  0.00  0.00    +0.000 A 
ATOM      7  C   UNL     1      46.566   6.553  12.472  0.00  0.00    +0.000 A 
ENDROOT
BRANCH   6   8
ATOM      8  C   UNL     1      44.672   5.650  11.060  0.00  0.00    +0.000 C 
ATOM      9  C   UNL     1      43.168   5.439  11.312  0.00  0.00    +0.000 C 
ATOM     10  C   UNL     1      42.883   4.805  12.678  0.00  0.00    +0.000 C 
ATOM     11  N   UNL     1      43.611   3.548  12.871  0.00  0.00    +0.000 NA
ATOM     12  C   UNL     1      45.049   3.727  12.681  0.00  0.00    +0.000 C 
ATOM     13  C   UNL     1      45.372   4.295  11.301  0.00  0.00    +0.000 C 
ATOM     14  H   UNL     1      43.263   2.860  12.206  0.00  0.00    +0.000 HD
ENDBRANCH   6   8
BRANCH   1  15
ATOM     15  C   UNL     1      48.683   7.290  13.720  0.00  0.00    +0.000 C 
ATOM     16  C   UNL     1      49.054   7.981  15.029  0.00  0.00    +0.000 C 
ATOM     17  C   UNL     1      48.693   6.535  15.039  0.00  0.00    +0.000 C 
BRANCH  15  25
ATOM     18  C   UNL     1      49.826  11.833  10.966  0.00  0.00    +0.000 C 
ATOM     19  C   UNL     1      50.379  10.442  11.042  0.00  0.00    +0.000 A 
ATOM     20  C   UNL     1      51.526  10.077  10.342  0.00  0.00    +0.000 A 
ATOM     21  C   UNL     1      52.005   8.780  10.477  0.00  0.00    +0.000 A 
ATOM     22  C   UNL     1      53.197   8.306   9.701  0.00  0.00    +0.000 C 
ATOM     23  N   UNL     1      51.423   7.869  11.292  0.00  0.00    +0.000 NA
ATOM     24  C   UNL     1      50.310   8.218  11.971  0.00  0.00    +0.000 A 
ATOM     25  N   UNL     1      49.775   7.207  12.756  0.00  0.00    +0.000 N 
ATOM     26  C   UNL     1      49.753   9.481  11.847  0.00  0.00    +0.000 A 
ATOM     27  H   UNL     1      50.419   6.422  12.774  0.00  0.00    +0.000 HD
ENDBRANCH  15  25
ENDBRANCH   1  15
TORSDOF 3
ENDMDL
MODEL 9
REMARK VINA RESULT:    -5.466      3.216      6.785
REMARK INTER + INTRA:          -7.336
REMARK INTER:                  -6.697
REMARK INTRA:                  -0.640
REMARK UNBOUND:                -0.912
REMARK  Name = 
REMARK  5 active torsions:
REMARK  status: ('A' for Active; 'I' for Inactive)
REMARK    1  A    between atoms: C_1  and  C_2
REMARK    2  A    between atoms: C_4  and  C_5
REMARK    3  A    between atoms: N_8  and  C_9
REMARK    4  A    between atoms: C_9  and  C_10
REMARK    5  A    between atoms: C_15  and  C_16
REMARK                            x       y       z     vdW  Elec       q    Type
REMARK                         _______ _______ _______ _____ _____    ______ ____
ROOT
ATOM      1  C   UNL     1      50.159   7.099  16.636  0.00  0.00    +0.000 A 
ATOM      2  C   UNL     1      51.551   7.152  16.476  0.00  0.00    +0.000 A 
ATOM      3  C   UNL     1      52.358   6.081  16.837  0.00  0.00    +0.000 A 
ATOM      4  C   UNL     1      51.785   4.923  17.350  0.00  0.00    +0.000 A 
ATOM      5  F   UNL     1      52.629   3.972  17.765  0.00  0.00    +0.000 F 
ATOM      6  C   UNL     1      50.397   4.773  17.457  0.00  0.00    +0.000 A 
ATOM      7  C   UNL     1      49.608   5.888  17.097  0.00  0.00    +0.000 A 
ENDROOT
BRANCH   6   8
ATOM      8  C   UNL     1      49.698   3.530  18.005  0.00  0.00    +0.000 C 
ATOM      9  C   UNL     1      49.211   2.482  16.988  0.00  0.00    +0.000 C 
ATOM     10  C   UNL     1      47.944   2.925  16.248  0.00  0.00    +0.000 C 
ATOM     11  N   UNL     1      46.859   3.283  17.166  0.00  0.00    +0.000 NA
ATOM     12  C   UNL     1      47.280   4.309  18.117  0.00  0.00    +0.000 C 
ATOM     13  C   UNL     1      48.503   3.870  18.921  0.00  0.00    +0.000 C 
ATOM     14  H   UNL     1      46.567   2.448  17.673  0.00  0.00    +0.000 HD
ENDBRANCH   6   8
BRANCH   1  15
ATOM     15  C   UNL     1      49.295   8.339  16.404  0.00  0.00    +0.000 C 
ATOM     16  C   UNL     1      48.978   9.232  17.601  0.00  0.00    +0.000 C 
ATOM     17  C   UNL     1      49.995   9.672  16.605  0.00  0.00    +0.000 C 
BRANCH  15  25
ATOM     18  C   UNL     1      50.602   7.695  11.168  0.00  0.00    +0.000 C 
ATOM     19  C   UNL     1      49.341   7.708  11.979  0.00  0.00    +0.000 A 
ATOM     20  C   UNL     1      48.105   7.425  11.403  0.00  0.00    +0.000 A 
ATOM     21  C   UNL     1      46.977   7.424  12.213  0.00  0.00    +0.000 A 
ATOM     22  C   UNL     1      45.609   7.191  11.644  0.00  0.00    +0.000 C 
ATOM     23  N   UNL     1      47.036   7.648  13.547  0.00  0.00    +0.000 NA
ATOM     24  C   UNL     1      48.232   7.924  14.110  0.00  0.00    +0.000 A 
ATOM     25  N   UNL     1      48.184   8.165  15.475  0.00  0.00    +0.000 N 
ATOM     26  C   UNL     1      49.391   7.985  13.352  0.00  0.00    +0.000 A 
ATOM     27  H   UNL     1      47.253   7.948  15.819  0.00  0.00    +0.000 HD
ENDBRANCH  15  25
ENDBRANCH   1  15
TORSDOF 3
ENDMDL
