MODEL 1
REMARK VINA RESULT:    -7.417      0.000      0.000
REMARK INTER + INTRA:         -10.648
REMARK INTER:                  -9.585
REMARK INTRA:                  -1.063
REMARK UNBOUND:                -1.063
REMARK  Name = 
REMARK  5 active torsions:
REMARK  status: ('A' for Active; 'I' for Inactive)
REMARK    1  A    between atoms: C_2  and  C_20
REMARK    2  A    between atoms: N_3  and  C_4
REMARK    3  A    between atoms: C_4  and  C_5
REMARK    4  A    between atoms: C_8  and  C_9
REMARK    5  A    between atoms: C_9  and  N_10
REMARK                            x       y       z     vdW  Elec       q    Type
REMARK                         _______ _______ _______ _____ _____    ______ ____
ROOT
ATOM      1  C   UNL     1      46.967   4.974  14.583  0.00  0.00    +0.000 C 
ENDROOT
BRANCH   1   2
ATOM      2  C   UNL     1      46.304   4.662  13.266  0.00  0.00    +0.000 A 
ATOM      3  C   UNL     1      45.862   3.362  12.989  0.00  0.00    +0.000 A 
ATOM      4  C   UNL     1      45.205   3.073  11.790  0.00  0.00    +0.000 A 
ATOM      5  C   UNL     1      44.998   4.073  10.831  0.00  0.00    +0.000 A 
ATOM      6  C   UNL     1      45.457   5.370  11.099  0.00  0.00    +0.000 A 
ATOM      7  C   UNL     1      46.114   5.660  12.299  0.00  0.00    +0.000 A 
BRANCH   5   8
ATOM      8  C   UNL     1      44.308   3.755   9.522  0.00  0.00    +0.000 C 
BRANCH   8   9
ATOM      9  N   UNL     1      45.022   4.368   8.406  0.00  0.00    +0.000 N 
ATOM     10  C   UNL     1      45.836   3.462   7.700  0.00  0.00    +0.000 A 
ATOM     11  C   UNL     1      46.559   3.930   6.603  0.00  0.00    +0.000 A 
ATOM     12  C   UNL     1      47.369   3.052   5.881  0.00  0.00    +0.000 A 
ATOM     13  C   UNL     1      47.436   1.722   6.271  0.00  0.00    +0.000 A 
ATOM     14  C   UNL     1      46.677   1.342   7.360  0.00  0.00    +0.000 A 
ATOM     15 CL   UNL     1      46.698  -0.278   7.927  0.00  0.00    +0.000 Cl
ATOM     16  N   UNL     1      45.884   2.168   8.070  0.00  0.00    +0.000 NA
ATOM     17  H   UNL     1      45.578   5.162   8.705  0.00  0.00    +0.000 HD
ENDBRANCH   8   9
ENDBRANCH   5   8
ENDBRANCH   1   2
BRANCH   1  20
ATOM     18  O   UNL     1      49.172   5.651  16.185  0.00  0.00    +0.000 OA
ATOM     19  C   UNL     1      48.788   6.454  15.339  0.00  0.00    +0.000 C 
ATOM     20  N   UNL     1      47.700   6.215  14.541  0.00  0.00    +0.000 N 
ATOM     21  H   UNL     1      47.504   6.833  13.761  0.00  0.00    +0.000 HD
BRANCH  19  22
ATOM     22  C   UNL     1      49.456   7.747  15.171  0.00  0.00    +0.000 A 
ATOM     23  C   UNL     1      49.654   8.575  16.266  0.00  0.00    +0.000 A 
ATOM     24  S   UNL     1      50.473  10.022  15.896  0.00  0.00    +0.000 S 
ATOM     25  C   UNL     1      50.619   9.585  14.257  0.00  0.00    +0.000 A 
ATOM     26  N   UNL     1      51.282  10.383  13.376  0.00  0.00    +0.000 NA
ATOM     27  C   UNL     1      51.358   9.905  12.177  0.00  0.00    +0.000 A 
ATOM     28  N   UNL     1      50.810   8.717  11.777  0.00  0.00    +0.000 N 
ATOM     29  C   UNL     1      50.046   7.928  12.607  0.00  0.00    +0.000 A 
ATOM     30  O   UNL     1      49.422   6.968  12.174  0.00  0.00    +0.000 OA
ATOM     31  C   UNL     1      50.005   8.374  13.987  0.00  0.00    +0.000 A 
ATOM     32  H   UNL     1      50.860   8.424  10.809  0.00  0.00    +0.000 HD
ENDBRANCH  19  22
ENDBRANCH   1  20
TORSDOF 5
ENDMDL
MODEL 2
REMARK VINA RESULT:    -7.280      1.594      2.363
REMARK INTER + INTRA:         -10.471
REMARK INTER:                  -9.681
REMARK INTRA:                  -0.790
REMARK UNBOUND:                -1.063
REMARK  Name = 
REMARK  5 active torsions:
REMARK  status: ('A' for Active; 'I' for Inactive)
REMARK    1  A    between atoms: C_2  and  C_20
REMARK    2  A    between atoms: N_3  and  C_4
REMARK    3  A    between atoms: C_4  and  C_5
REMARK    4  A    between atoms: C_8  and  C_9
REMARK    5  A    between atoms: C_9  and  N_10
REMARK                            x       y       z     vdW  Elec       q    Type
REMARK                         _______ _______ _______ _____ _____    ______ ____
ROOT
ATOM      1  C   UNL     1      47.072   5.159  14.539  0.00  0.00    +0.000 C 
ENDROOT
BRANCH   1   2
ATOM      2  C   UNL     1      46.392   4.788  13.246  0.00  0.00    +0.000 A 
ATOM      3  C   UNL     1      45.910   3.487  13.050  0.00  0.00    +0.000 A 
ATOM      4  C   UNL     1      45.238   3.146  11.874  0.00  0.00    +0.000 A 
ATOM      5  C   UNL     1      45.054   4.092  10.856  0.00  0.00    +0.000 A 
ATOM      6  C   UNL     1      45.552   5.390  11.044  0.00  0.00    +0.000 A 
ATOM      7  C   UNL     1      46.226   5.731  12.222  0.00  0.00    +0.000 A 
BRANCH   5   8
ATOM      8  C   UNL     1      44.348   3.717   9.572  0.00  0.00    +0.000 C 
BRANCH   8   9
ATOM      9  N   UNL     1      45.004   4.340   8.427  0.00  0.00    +0.000 N 
ATOM     10  C   UNL     1      45.804   3.447   7.689  0.00  0.00    +0.000 A 
ATOM     11  C   UNL     1      46.472   3.926   6.562  0.00  0.00    +0.000 A 
ATOM     12  C   UNL     1      47.267   3.061   5.808  0.00  0.00    +0.000 A 
ATOM     13  C   UNL     1      47.373   1.733   6.197  0.00  0.00    +0.000 A 
ATOM     14  C   UNL     1      46.667   1.341   7.317  0.00  0.00    +0.000 A 
ATOM     15 CL   UNL     1      46.740  -0.276   7.884  0.00  0.00    +0.000 Cl
ATOM     16  N   UNL     1      45.890   2.155   8.059  0.00  0.00    +0.000 NA
ATOM     17  H   UNL     1      45.558   5.145   8.702  0.00  0.00    +0.000 HD
ENDBRANCH   8   9
ENDBRANCH   5   8
ENDBRANCH   1   2
BRANCH   1  20
ATOM     18  O   UNL     1      49.380   5.998  15.902  0.00  0.00    +0.000 OA
ATOM     19  C   UNL     1      48.810   6.793  15.159  0.00  0.00    +0.000 C 
ATOM     20  N   UNL     1      47.661   6.474  14.484  0.00  0.00    +0.000 N 
ATOM     21  H   UNL     1      47.305   7.103  13.773  0.00  0.00    +0.000 HD
BRANCH  19  22
ATOM     22  C   UNL     1      49.314   8.159  14.991  0.00  0.00    +0.000 A 
ATOM     23  C   UNL     1      50.182   8.457  13.952  0.00  0.00    +0.000 A 
ATOM     24  S   UNL     1      50.642  10.096  13.887  0.00  0.00    +0.000 S 
ATOM     25  C   UNL     1      49.674  10.478  15.234  0.00  0.00    +0.000 A 
ATOM     26  N   UNL     1      49.573  11.759  15.682  0.00  0.00    +0.000 NA
ATOM     27  C   UNL     1      48.766  11.912  16.681  0.00  0.00    +0.000 A 
ATOM     28  N   UNL     1      48.074  10.897  17.285  0.00  0.00    +0.000 N 
ATOM     29  C   UNL     1      48.224   9.576  16.931  0.00  0.00    +0.000 A 
ATOM     30  O   UNL     1      47.734   8.678  17.604  0.00  0.00    +0.000 OA
ATOM     31  C   UNL     1      49.050   9.359  15.757  0.00  0.00    +0.000 A 
ATOM     32  H   UNL     1      47.498  11.077  18.097  0.00  0.00    +0.000 HD
ENDBRANCH  19  22
ENDBRANCH   1  20
TORSDOF 5
ENDMDL
MODEL 3
REMARK VINA RESULT:    -7.195      5.930     10.191
REMARK INTER + INTRA:         -10.360
REMARK INTER:                  -9.552
REMARK INTRA:                  -0.808
REMARK UNBOUND:                -1.063
REMARK  Name = 
REMARK  5 active torsions:
REMARK  status: ('A' for Active; 'I' for Inactive)
REMARK    1  A    between atoms: C_2  and  C_20
REMARK    2  A    between atoms: N_3  and  C_4
REMARK    3  A    between atoms: C_4  and  C_5
REMARK    4  A    between atoms: C_8  and  C_9
REMARK    5  A    between atoms: C_9  and  N_10
REMARK                            x       y       z     vdW  Elec       q    Type
REMARK                         _______ _______ _______ _____ _____    ______ ____
ROOT
ATOM      1  C   UNL     1      47.188   3.357  16.950  0.00  0.00    +0.000 C 
ENDROOT
BRANCH   1   2
ATOM      2  C   UNL     1      48.675   3.285  17.184  0.00  0.00    +0.000 A 
ATOM      3  C   UNL     1      49.366   4.397  17.682  0.00  0.00    +0.000 A 
ATOM      4  C   UNL     1      50.736   4.326  17.946  0.00  0.00    +0.000 A 
ATOM      5  C   UNL     1      51.451   3.147  17.694  0.00  0.00    +0.000 A 
ATOM      6  C   UNL     1      50.764   2.039  17.178  0.00  0.00    +0.000 A 
ATOM      7  C   UNL     1      49.392   2.111  16.914  0.00  0.00    +0.000 A 
BRANCH   5   8
ATOM      8  C   UNL     1      52.939   3.077  17.957  0.00  0.00    +0.000 C 
BRANCH   8   9
ATOM      9  N   UNL     1      53.197   2.627  19.321  0.00  0.00    +0.000 N 
ATOM     10  C   UNL     1      53.796   3.612  20.130  0.00  0.00    +0.000 A 
ATOM     11  C   UNL     1      54.078   3.302  21.459  0.00  0.00    +0.000 A 
ATOM     12  C   UNL     1      54.666   4.263  22.285  0.00  0.00    +0.000 A 
ATOM     13  C   UNL     1      54.955   5.515  21.762  0.00  0.00    +0.000 A 
ATOM     14  C   UNL     1      54.628   5.741  20.440  0.00  0.00    +0.000 A 
ATOM     15 CL   UNL     1      54.953   7.253  19.697  0.00  0.00    +0.000 Cl
ATOM     16  N   UNL     1      54.058   4.833  19.623  0.00  0.00    +0.000 NA
ATOM     17  H   UNL     1      53.762   1.784  19.340  0.00  0.00    +0.000 HD
ENDBRANCH   8   9
ENDBRANCH   5   8
ENDBRANCH   1   2
BRANCH   1  20
ATOM     18  O   UNL     1      47.313   3.091  14.156  0.00  0.00    +0.000 OA
ATOM     19  C   UNL     1      46.900   4.146  14.632  0.00  0.00    +0.000 C 
ATOM     20  N   UNL     1      46.839   4.368  15.983  0.00  0.00    +0.000 N 
ATOM     21  H   UNL     1      46.360   5.188  16.336  0.00  0.00    +0.000 HD
BRANCH  19  22
ATOM     22  C   UNL     1      46.489   5.252  13.764  0.00  0.00    +0.000 A 
ATOM     23  C   UNL     1      47.348   6.316  13.539  0.00  0.00    +0.000 A 
ATOM     24  S   UNL     1      46.722   7.497  12.482  0.00  0.00    +0.000 S 
ATOM     25  C   UNL     1      45.283   6.615  12.262  0.00  0.00    +0.000 A 
ATOM     26  N   UNL     1      44.315   7.056  11.413  0.00  0.00    +0.000 NA
ATOM     27  C   UNL     1      43.300   6.264  11.306  0.00  0.00    +0.000 A 
ATOM     28  N   UNL     1      43.154   5.088  11.990  0.00  0.00    +0.000 N 
ATOM     29  C   UNL     1      44.058   4.655  12.933  0.00  0.00    +0.000 A 
ATOM     30  O   UNL     1      43.813   3.697  13.655  0.00  0.00    +0.000 OA
ATOM     31  C   UNL     1      45.260   5.462  13.026  0.00  0.00    +0.000 A 
ATOM     32  H   UNL     1      42.308   4.539  11.900  0.00  0.00    +0.000 HD
ENDBRANCH  19  22
ENDBRANCH   1  20
TORSDOF 5
ENDMDL
MODEL 4
REMARK VINA RESULT:    -7.129      2.717      4.578
REMARK INTER + INTRA:         -10.275
REMARK INTER:                  -9.187
REMARK INTRA:                  -1.088
REMARK UNBOUND:                -1.063
REMARK  Name = 
REMARK  5 active torsions:
REMARK  status: ('A' for Active; 'I' for Inactive)
REMARK    1  A    between atoms: C_2  and  C_20
REMARK    2  A    between atoms: N_3  and  C_4
REMARK    3  A    between atoms: C_4  and  C_5
REMARK    4  A    between atoms: C_8  and  C_9
REMARK    5  A    between atoms: C_9  and  N_10
REMARK                            x       y       z     vdW  Elec       q    Type
REMARK                         _______ _______ _______ _____ _____    ______ ____
ROOT
ATOM      1  C   UNL     1      47.902   8.666  14.411  0.00  0.00    +0.000 C 
ENDROOT
BRANCH   1   2
ATOM      2  C   UNL     1      47.030   8.105  13.317  0.00  0.00    +0.000 A 
ATOM      3  C   UNL     1      47.407   6.936  12.644  0.00  0.00    +0.000 A 
ATOM      4  C   UNL     1      46.582   6.383  11.661  0.00  0.00    +0.000 A 
ATOM      5  C   UNL     1      45.374   7.001  11.312  0.00  0.00    +0.000 A 
ATOM      6  C   UNL     1      45.005   8.181  11.972  0.00  0.00    +0.000 A 
ATOM      7  C   UNL     1      45.831   8.735  12.957  0.00  0.00    +0.000 A 
BRANCH   5   8
ATOM      8  C   UNL     1      44.492   6.415  10.230  0.00  0.00    +0.000 C 
BRANCH   8   9
ATOM      9  N   UNL     1      44.081   5.060  10.583  0.00  0.00    +0.000 N 
ATOM     10  C   UNL     1      44.596   4.077   9.717  0.00  0.00    +0.000 A 
ATOM     11  C   UNL     1      44.282   2.741   9.962  0.00  0.00    +0.000 A 
ATOM     12  C   UNL     1      44.785   1.746   9.122  0.00  0.00    +0.000 A 
ATOM     13  C   UNL     1      45.595   2.109   8.057  0.00  0.00    +0.000 A 
ATOM     14  C   UNL     1      45.867   3.453   7.896  0.00  0.00    +0.000 A 
ATOM     15 CL   UNL     1      46.851   4.006   6.604  0.00  0.00    +0.000 Cl
ATOM     16  N   UNL     1      45.398   4.432   8.694  0.00  0.00    +0.000 NA
ATOM     17  H   UNL     1      43.071   4.974  10.632  0.00  0.00    +0.000 HD
ENDBRANCH   8   9
ENDBRANCH   5   8
ENDBRANCH   1   2
BRANCH   1  20
ATOM     18  O   UNL     1      50.321   7.292  14.800  0.00  0.00    +0.000 OA
ATOM     19  C   UNL     1      49.394   7.091  15.581  0.00  0.00    +0.000 C 
ATOM     20  N   UNL     1      48.172   7.696  15.442  0.00  0.00    +0.000 N 
ATOM     21  H   UNL     1      47.486   7.618  16.184  0.00  0.00    +0.000 HD
BRANCH  19  22
ATOM     22  C   UNL     1      49.537   6.145  16.691  0.00  0.00    +0.000 A 
ATOM     23  C   UNL     1      50.482   6.372  17.680  0.00  0.00    +0.000 A 
ATOM     24  S   UNL     1      50.490   5.192  18.909  0.00  0.00    +0.000 S 
ATOM     25  C   UNL     1      49.209   4.342  18.178  0.00  0.00    +0.000 A 
ATOM     26  N   UNL     1      48.682   3.232  18.761  0.00  0.00    +0.000 NA
ATOM     27  C   UNL     1      47.684   2.717  18.122  0.00  0.00    +0.000 A 
ATOM     28  N   UNL     1      47.183   3.198  16.942  0.00  0.00    +0.000 N 
ATOM     29  C   UNL     1      47.748   4.255  16.267  0.00  0.00    +0.000 A 
ATOM     30  O   UNL     1      47.392   4.546  15.131  0.00  0.00    +0.000 OA
ATOM     31  C   UNL     1      48.816   4.925  16.985  0.00  0.00    +0.000 A 
ATOM     32  H   UNL     1      46.431   2.716  16.466  0.00  0.00    +0.000 HD
ENDBRANCH  19  22
ENDBRANCH   1  20
TORSDOF 5
ENDMDL
MODEL 5
REMARK VINA RESULT:    -7.127      4.184      7.696
REMARK INTER + INTRA:         -10.273
REMARK INTER:                  -9.357
REMARK INTRA:                  -0.916
REMARK UNBOUND:                -1.063
REMARK  Name = 
REMARK  5 active torsions:
REMARK  status: ('A' for Active; 'I' for Inactive)
REMARK    1  A    between atoms: C_2  and  C_20
REMARK    2  A    between atoms: N_3  and  C_4
REMARK    3  A    between atoms: C_4  and  C_5
REMARK    4  A    between atoms: C_8  and  C_9
REMARK    5  A    between atoms: C_9  and  N_10
REMARK                            x       y       z     vdW  Elec       q    Type
REMARK                         _______ _______ _______ _____ _____    ______ ____
ROOT
ATOM      1  C   UNL     1      46.547   8.396  12.885  0.00  0.00    +0.000 C 
ENDROOT
BRANCH   1   2
ATOM      2  C   UNL     1      47.977   8.518  12.427  0.00  0.00    +0.000 A 
ATOM      3  C   UNL     1      48.790   7.380  12.338  0.00  0.00    +0.000 A 
ATOM      4  C   UNL     1      50.103   7.476  11.871  0.00  0.00    +0.000 A 
ATOM      5  C   UNL     1      50.641   8.717  11.506  0.00  0.00    +0.000 A 
ATOM      6  C   UNL     1      49.835   9.859  11.612  0.00  0.00    +0.000 A 
ATOM      7  C   UNL     1      48.520   9.763  12.080  0.00  0.00    +0.000 A 
BRANCH   5   8
ATOM      8  C   UNL     1      52.071   8.825  11.023  0.00  0.00    +0.000 C 
BRANCH   8   9
ATOM      9  N   UNL     1      52.709   7.513  11.016  0.00  0.00    +0.000 N 
ATOM     10  C   UNL     1      53.007   7.044   9.723  0.00  0.00    +0.000 A 
ATOM     11  C   UNL     1      53.631   5.805   9.590  0.00  0.00    +0.000 A 
ATOM     12  C   UNL     1      53.944   5.319   8.319  0.00  0.00    +0.000 A 
ATOM     13  C   UNL     1      53.629   6.087   7.208  0.00  0.00    +0.000 A 
ATOM     14  C   UNL     1      53.025   7.308   7.432  0.00  0.00    +0.000 A 
ATOM     15 CL   UNL     1      52.586   8.328   6.124  0.00  0.00    +0.000 Cl
ATOM     16  N   UNL     1      52.716   7.801   8.647  0.00  0.00    +0.000 NA
ATOM     17  H   UNL     1      52.153   6.821  11.508  0.00  0.00    +0.000 HD
ENDBRANCH   8   9
ENDBRANCH   5   8
ENDBRANCH   1   2
BRANCH   1  20
ATOM     18  O   UNL     1      44.549   7.697  11.038  0.00  0.00    +0.000 OA
ATOM     19  C   UNL     1      45.061   6.812  11.719  0.00  0.00    +0.000 C 
ATOM     20  N   UNL     1      46.017   7.073  12.665  0.00  0.00    +0.000 N 
ATOM     21  H   UNL     1      46.516   6.305  13.100  0.00  0.00    +0.000 HD
BRANCH  19  22
ATOM     22  C   UNL     1      44.634   5.416  11.583  0.00  0.00    +0.000 A 
ATOM     23  C   UNL     1      43.958   4.792  12.619  0.00  0.00    +0.000 A 
ATOM     24  S   UNL     1      43.510   3.184  12.279  0.00  0.00    +0.000 S 
ATOM     25  C   UNL     1      44.182   3.268  10.717  0.00  0.00    +0.000 A 
ATOM     26  N   UNL     1      44.092   2.217   9.859  0.00  0.00    +0.000 NA
ATOM     27  C   UNL     1      44.602   2.437   8.692  0.00  0.00    +0.000 A 
ATOM     28  N   UNL     1      45.215   3.602   8.317  0.00  0.00    +0.000 N 
ATOM     29  C   UNL     1      45.418   4.651   9.183  0.00  0.00    +0.000 A 
ATOM     30  O   UNL     1      46.125   5.603   8.874  0.00  0.00    +0.000 OA
ATOM     31  C   UNL     1      44.786   4.491  10.479  0.00  0.00    +0.000 A 
ATOM     32  H   UNL     1      45.641   3.691   7.403  0.00  0.00    +0.000 HD
ENDBRANCH  19  22
ENDBRANCH   1  20
TORSDOF 5
ENDMDL
MODEL 6
REMARK VINA RESULT:    -6.848      5.399      6.985
REMARK INTER + INTRA:          -9.913
REMARK INTER:                  -9.262
REMARK INTRA:                  -0.651
REMARK UNBOUND:                -1.063
REMARK  Name = 
REMARK  5 active torsions:
REMARK  status: ('A' for Active; 'I' for Inactive)
REMARK    1  A    between atoms: C_2  and  C_20
REMARK    2  A    between atoms: N_3  and  C_4
REMARK    3  A    between atoms: C_4  and  C_5
REMARK    4  A    between atoms: C_8  and  C_9
REMARK    5  A    between atoms: C_9  and  N_10
REMARK                            x       y       z     vdW  Elec       q    Type
REMARK                         _______ _______ _______ _____ _____    ______ ____
ROOT
ATOM      1  C   UNL     1      46.871   4.282  14.508  0.00  0.00    +0.000 C 
ENDROOT
BRANCH   1   2
ATOM      2  C   UNL     1      46.299   5.359  13.623  0.00  0.00    +0.000 A 
ATOM      3  C   UNL     1      47.087   6.454  13.244  0.00  0.00    +0.000 A 
ATOM      4  C   UNL     1      46.581   7.434  12.387  0.00  0.00    +0.000 A 
ATOM      5  C   UNL     1      45.266   7.353  11.908  0.00  0.00    +0.000 A 
ATOM      6  C   UNL     1      44.471   6.267  12.302  0.00  0.00    +0.000 A 
ATOM      7  C   UNL     1      44.978   5.287  13.161  0.00  0.00    +0.000 A 
BRANCH   5   8
ATOM      8  C   UNL     1      44.709   8.426  10.999  0.00  0.00    +0.000 C 
BRANCH   8   9
ATOM      9  N   UNL     1      43.268   8.562  11.190  0.00  0.00    +0.000 N 
ATOM     10  C   UNL     1      42.736   9.730  10.613  0.00  0.00    +0.000 A 
ATOM     11  C   UNL     1      41.366   9.962  10.720  0.00  0.00    +0.000 A 
ATOM     12  C   UNL     1      40.810  11.110  10.151  0.00  0.00    +0.000 A 
ATOM     13  C   UNL     1      41.640  12.000   9.484  0.00  0.00    +0.000 A 
ATOM     14  C   UNL     1      42.982  11.685   9.414  0.00  0.00    +0.000 A 
ATOM     15 CL   UNL     1      44.091  12.725   8.619  0.00  0.00    +0.000 Cl
ATOM     16  N   UNL     1      43.542  10.583   9.950  0.00  0.00    +0.000 NA
ATOM     17  H   UNL     1      43.013   8.522  12.172  0.00  0.00    +0.000 HD
ENDBRANCH   8   9
ENDBRANCH   5   8
ENDBRANCH   1   2
BRANCH   1  20
ATOM     18  O   UNL     1      46.568   3.192  17.079  0.00  0.00    +0.000 OA
ATOM     19  C   UNL     1      47.249   4.205  16.943  0.00  0.00    +0.000 C 
ATOM     20  N   UNL     1      47.420   4.818  15.729  0.00  0.00    +0.000 N 
ATOM     21  H   UNL     1      48.102   5.561  15.634  0.00  0.00    +0.000 HD
BRANCH  19  22
ATOM     22  C   UNL     1      47.886   4.843  18.098  0.00  0.00    +0.000 A 
ATOM     23  C   UNL     1      47.165   5.722  18.892  0.00  0.00    +0.000 A 
ATOM     24  S   UNL     1      48.050   6.346  20.207  0.00  0.00    +0.000 S 
ATOM     25  C   UNL     1      49.428   5.443  19.780  0.00  0.00    +0.000 A 
ATOM     26  N   UNL     1      50.553   5.480  20.544  0.00  0.00    +0.000 NA
ATOM     27  C   UNL     1      51.504   4.709  20.130  0.00  0.00    +0.000 A 
ATOM     28  N   UNL     1      51.439   3.926  19.009  0.00  0.00    +0.000 N 
ATOM     29  C   UNL     1      50.361   3.934  18.154  0.00  0.00    +0.000 A 
ATOM     30  O   UNL     1      50.406   3.365  17.070  0.00  0.00    +0.000 OA
ATOM     31  C   UNL     1      49.231   4.715  18.620  0.00  0.00    +0.000 A 
ATOM     32  H   UNL     1      52.239   3.384  18.711  0.00  0.00    +0.000 HD
ENDBRANCH  19  22
ENDBRANCH   1  20
TORSDOF 5
ENDMDL
MODEL 7
REMARK VINA RESULT:    -6.781      5.151     10.225
REMARK INTER + INTRA:          -9.826
REMARK INTER:                  -8.838
REMARK INTRA:                  -0.988
REMARK UNBOUND:                -1.063
REMARK  Name = 
REMARK  5 active torsions:
REMARK  status: ('A' for Active; 'I' for Inactive)
REMARK    1  A    between atoms: C_2  and  C_20
REMARK    2  A    between atoms: N_3  and  C_4
REMARK    3  A    between atoms: C_4  and  C_5
REMARK    4  A    between atoms: C_8  and  C_9
REMARK    5  A    between atoms: C_9  and  N_10
REMARK                            x       y       z     vdW  Elec       q    Type
REMARK                         _______ _______ _______ _____ _____    ______ ____
ROOT
ATOM      1  C   UNL     1      47.890   4.459  16.194  0.00  0.00    +0.000 C 
ENDROOT
BRANCH   1   2
ATOM      2  C   UNL     1      48.026   5.474  17.301  0.00  0.00    +0.000 A 
ATOM      3  C   UNL     1      48.888   6.568  17.153  0.00  0.00    +0.000 A 
ATOM      4  C   UNL     1      48.986   7.538  18.154  0.00  0.00    +0.000 A 
ATOM      5  C   UNL     1      48.243   7.421  19.336  0.00  0.00    +0.000 A 
ATOM      6  C   UNL     1      47.394   6.316  19.493  0.00  0.00    +0.000 A 
ATOM      7  C   UNL     1      47.296   5.345  18.490  0.00  0.00    +0.000 A 
BRANCH   5   8
ATOM      8  C   UNL     1      48.367   8.458  20.431  0.00  0.00    +0.000 C 
BRANCH   8   9
ATOM      9  N   UNL     1      47.047   8.889  20.880  0.00  0.00    +0.000 N 
ATOM     10  C   UNL     1      46.692  10.172  20.422  0.00  0.00    +0.000 A 
ATOM     11  C   UNL     1      45.446  10.686  20.776  0.00  0.00    +0.000 A 
ATOM     12  C   UNL     1      45.066  11.953  20.330  0.00  0.00    +0.000 A 
ATOM     13  C   UNL     1      45.943  12.678  19.535  0.00  0.00    +0.000 A 
ATOM     14  C   UNL     1      47.150  12.087  19.221  0.00  0.00    +0.000 A 
ATOM     15 CL   UNL     1      48.306  12.904  18.251  0.00  0.00    +0.000 Cl
ATOM     16  N   UNL     1      47.538  10.864  19.635  0.00  0.00    +0.000 NA
ATOM     17  H   UNL     1      46.963   8.854  21.891  0.00  0.00    +0.000 HD
ENDBRANCH   8   9
ENDBRANCH   5   8
ENDBRANCH   1   2
BRANCH   1  20
ATOM     18  O   UNL     1      48.486   5.759  13.776  0.00  0.00    +0.000 OA
ATOM     19  C   UNL     1      47.316   5.476  14.023  0.00  0.00    +0.000 C 
ATOM     20  N   UNL     1      46.938   4.872  15.193  0.00  0.00    +0.000 N 
ATOM     21  H   UNL     1      45.991   4.526  15.296  0.00  0.00    +0.000 HD
BRANCH  19  22
ATOM     22  C   UNL     1      46.246   5.817  13.082  0.00  0.00    +0.000 A 
ATOM     23  C   UNL     1      45.942   7.145  12.825  0.00  0.00    +0.000 A 
ATOM     24  S   UNL     1      44.695   7.359  11.685  0.00  0.00    +0.000 S 
ATOM     25  C   UNL     1      44.529   5.678  11.469  0.00  0.00    +0.000 A 
ATOM     26  N   UNL     1      43.646   5.172  10.567  0.00  0.00    +0.000 NA
ATOM     27  C   UNL     1      43.659   3.883  10.472  0.00  0.00    +0.000 A 
ATOM     28  N   UNL     1      44.458   3.057  11.216  0.00  0.00    +0.000 N 
ATOM     29  C   UNL     1      45.291   3.518  12.209  0.00  0.00    +0.000 A 
ATOM     30  O   UNL     1      45.853   2.746  12.976  0.00  0.00    +0.000 OA
ATOM     31  C   UNL     1      45.379   4.964  12.295  0.00  0.00    +0.000 A 
ATOM     32  H   UNL     1      44.382   2.051  11.130  0.00  0.00    +0.000 HD
ENDBRANCH  19  22
ENDBRANCH   1  20
TORSDOF 5
ENDMDL
MODEL 8
REMARK VINA RESULT:    -6.781      4.872      8.915
REMARK INTER + INTRA:          -9.826
REMARK INTER:                  -8.916
REMARK INTRA:                  -0.910
REMARK UNBOUND:                -1.063
REMARK  Name = 
REMARK  5 active torsions:
REMARK  status: ('A' for Active; 'I' for Inactive)
REMARK    1  A    between atoms: C_2  and  C_20
REMARK    2  A    between atoms: N_3  and  C_4
REMARK    3  A    between atoms: C_4  and  C_5
REMARK    4  A    between atoms: C_8  and  C_9
REMARK    5  A    between atoms: C_9  and  N_10
REMARK                            x       y       z     vdW  Elec       q    Type
REMARK                         _______ _______ _______ _____ _____    ______ ____
ROOT
ATOM      1  C   UNL     1      48.105   8.004  14.305  0.00  0.00    +0.000 C 
ENDROOT
BRANCH   1   2
ATOM      2  C   UNL     1      48.645   7.138  15.414  0.00  0.00    +0.000 A 
ATOM      3  C   UNL     1      48.202   5.816  15.555  0.00  0.00    +0.000 A 
ATOM      4  C   UNL     1      48.730   4.990  16.551  0.00  0.00    +0.000 A 
ATOM      5  C   UNL     1      49.694   5.476  17.444  0.00  0.00    +0.000 A 
ATOM      6  C   UNL     1      50.123   6.805  17.316  0.00  0.00    +0.000 A 
ATOM      7  C   UNL     1      49.595   7.631  16.318  0.00  0.00    +0.000 A 
BRANCH   5   8
ATOM      8  C   UNL     1      50.248   4.590  18.538  0.00  0.00    +0.000 C 
BRANCH   8   9
ATOM      9  N   UNL     1      50.229   3.191  18.122  0.00  0.00    +0.000 N 
ATOM     10  C   UNL     1      51.514   2.648  17.932  0.00  0.00    +0.000 A 
ATOM     11  C   UNL     1      51.623   1.313  17.545  0.00  0.00    +0.000 A 
ATOM     12  C   UNL     1      52.885   0.747  17.356  0.00  0.00    +0.000 A 
ATOM     13  C   UNL     1      54.012   1.530  17.562  0.00  0.00    +0.000 A 
ATOM     14  C   UNL     1      53.812   2.838  17.957  0.00  0.00    +0.000 A 
ATOM     15 CL   UNL     1      55.140   3.890  18.228  0.00  0.00    +0.000 Cl
ATOM     16  N   UNL     1      52.606   3.406  18.150  0.00  0.00    +0.000 NA
ATOM     17  H   UNL     1      49.676   3.056  17.282  0.00  0.00    +0.000 HD
ENDBRANCH   8   9
ENDBRANCH   5   8
ENDBRANCH   1   2
BRANCH   1  20
ATOM     18  O   UNL     1      47.818   6.691  11.839  0.00  0.00    +0.000 OA
ATOM     19  C   UNL     1      46.829   6.827  12.555  0.00  0.00    +0.000 C 
ATOM     20  N   UNL     1      46.878   7.484  13.757  0.00  0.00    +0.000 N 
ATOM     21  H   UNL     1      46.080   7.447  14.382  0.00  0.00    +0.000 HD
BRANCH  19  22
ATOM     22  C   UNL     1      45.520   6.324  12.133  0.00  0.00    +0.000 A 
ATOM     23  C   UNL     1      44.595   7.185  11.563  0.00  0.00    +0.000 A 
ATOM     24  S   UNL     1      43.140   6.428  11.103  0.00  0.00    +0.000 S 
ATOM     25  C   UNL     1      43.702   4.908  11.624  0.00  0.00    +0.000 A 
ATOM     26  N   UNL     1      42.944   3.790  11.465  0.00  0.00    +0.000 NA
ATOM     27  C   UNL     1      43.513   2.699  11.860  0.00  0.00    +0.000 A 
ATOM     28  N   UNL     1      44.760   2.632  12.423  0.00  0.00    +0.000 N 
ATOM     29  C   UNL     1      45.518   3.747  12.695  0.00  0.00    +0.000 A 
ATOM     30  O   UNL     1      46.543   3.671  13.360  0.00  0.00    +0.000 OA
ATOM     31  C   UNL     1      44.962   4.988  12.189  0.00  0.00    +0.000 A 
ATOM     32  H   UNL     1      45.127   1.751  12.760  0.00  0.00    +0.000 HD
ENDBRANCH  19  22
ENDBRANCH   1  20
TORSDOF 5
ENDMDL
MODEL 9
REMARK VINA RESULT:    -6.737      4.014      8.611
REMARK INTER + INTRA:          -9.769
REMARK INTER:                  -9.088
REMARK INTRA:                  -0.681
REMARK UNBOUND:                -1.063
REMARK  Name = 
REMARK  5 active torsions:
REMARK  status: ('A' for Active; 'I' for Inactive)
REMARK    1  A    between atoms: C_2  and  C_20
REMARK    2  A    between atoms: N_3  and  C_4
REMARK    3  A    between atoms: C_4  and  C_5
REMARK    4  A    between atoms: C_8  and  C_9
REMARK    5  A    between atoms: C_9  and  N_10
REMARK                            x       y       z     vdW  Elec       q    Type
REMARK                         _______ _______ _______ _____ _____    ______ ____
ROOT
ATOM      1  C   UNL     1      48.478   7.958  11.961  0.00  0.00    +0.000 C 
ENDROOT
BRANCH   1   2
ATOM      2  C   UNL     1      48.935   7.682  13.370  0.00  0.00    +0.000 A 
ATOM      3  C   UNL     1      50.288   7.806  13.711  0.00  0.00    +0.000 A 
ATOM      4  C   UNL     1      50.714   7.596  15.025  0.00  0.00    +0.000 A 
ATOM      5  C   UNL     1      49.800   7.233  16.023  0.00  0.00    +0.000 A 
ATOM      6  C   UNL     1      48.448   7.090  15.679  0.00  0.00    +0.000 A 
ATOM      7  C   UNL     1      48.021   7.300  14.363  0.00  0.00    +0.000 A 
BRANCH   5   8
ATOM      8  C   UNL     1      50.264   6.982  17.441  0.00  0.00    +0.000 C 
BRANCH   8   9
ATOM      9  N   UNL     1      51.319   5.974  17.463  0.00  0.00    +0.000 N 
ATOM     10  C   UNL     1      50.830   4.654  17.431  0.00  0.00    +0.000 A 
ATOM     11  C   UNL     1      51.746   3.603  17.435  0.00  0.00    +0.000 A 
ATOM     12  C   UNL     1      51.289   2.285  17.398  0.00  0.00    +0.000 A 
ATOM     13  C   UNL     1      49.923   2.047  17.354  0.00  0.00    +0.000 A 
ATOM     14  C   UNL     1      49.087   3.146  17.339  0.00  0.00    +0.000 A 
ATOM     15 CL   UNL     1      47.383   2.958  17.295  0.00  0.00    +0.000 Cl
ATOM     16  N   UNL     1      49.504   4.427  17.370  0.00  0.00    +0.000 NA
ATOM     17  H   UNL     1      51.934   6.089  18.262  0.00  0.00    +0.000 HD
ENDBRANCH   8   9
ENDBRANCH   5   8
ENDBRANCH   1   2
BRANCH   1  20
ATOM     18  O   UNL     1      45.680   7.857  11.739  0.00  0.00    +0.000 OA
ATOM     19  C   UNL     1      46.341   6.912  11.316  0.00  0.00    +0.000 C 
ATOM     20  N   UNL     1      47.707   6.869  11.417  0.00  0.00    +0.000 N 
ATOM     21  H   UNL     1      48.224   6.145  10.929  0.00  0.00    +0.000 HD
BRANCH  19  22
ATOM     22  C   UNL     1      45.688   5.746  10.716  0.00  0.00    +0.000 A 
ATOM     23  C   UNL     1      45.872   5.461   9.372  0.00  0.00    +0.000 A 
ATOM     24  S   UNL     1      45.066   4.054   8.850  0.00  0.00    +0.000 S 
ATOM     25  C   UNL     1      44.459   3.755  10.412  0.00  0.00    +0.000 A 
ATOM     26  N   UNL     1      43.713   2.648  10.673  0.00  0.00    +0.000 NA
ATOM     27  C   UNL     1      43.360   2.522  11.909  0.00  0.00    +0.000 A 
ATOM     28  N   UNL     1      43.664   3.416  12.900  0.00  0.00    +0.000 N 
ATOM     29  C   UNL     1      44.327   4.598  12.662  0.00  0.00    +0.000 A 
ATOM     30  O   UNL     1      44.425   5.457  13.530  0.00  0.00    +0.000 OA
ATOM     31  C   UNL     1      44.824   4.745  11.307  0.00  0.00    +0.000 A 
ATOM     32  H   UNL     1      43.312   3.285  13.840  0.00  0.00    +0.000 HD
ENDBRANCH  19  22
ENDBRANCH   1  20
TORSDOF 5
ENDMDL
