MODEL 1
REMARK VINA RESULT:    -7.098      0.000      0.000
REMARK INTER + INTRA:         -10.162
REMARK INTER:                  -9.381
REMARK INTRA:                  -0.781
REMARK UNBOUND:                -0.781
REMARK  Name = 
REMARK  6 active torsions:
REMARK  status: ('A' for Active; 'I' for Inactive)
REMARK    1  A    between atoms: N_1  and  C_2
REMARK    2  A    between atoms: C_2  and  C_3
REMARK    3  A    between atoms: C_7  and  N_8
REMARK    4  A    between atoms: N_8  and  C_9
REMARK    5  A    between atoms: C_9  and  C_10
REMARK    6  A    between atoms: C_10  and  C_11
REMARK                            x       y       z     vdW  Elec       q    Type
REMARK                         _______ _______ _______ _____ _____    ______ ____
ROOT
ATOM      1  C   UNL     1      46.534   2.274   7.664  0.00  0.00    +0.000 A 
ATOM      2  C   UNL     1      46.614   3.628   7.319  0.00  0.00    +0.000 A 
ATOM      3  C   UNL     1      45.941   4.584   8.073  0.00  0.00    +0.000 A 
ATOM      4  C   UNL     1      45.158   4.194   9.163  0.00  0.00    +0.000 A 
ATOM      5  C   UNL     1      45.009   2.846   9.505  0.00  0.00    +0.000 A 
ATOM      6  C   UNL     1      45.745   1.902   8.768  0.00  0.00    +0.000 A 
ENDROOT
BRANCH   5   7
ATOM      7  N   UNL     1      44.278   2.412  10.627  0.00  0.00    +0.000 N 
ATOM      8  H   UNL     1      43.894   1.484  10.458  0.00  0.00    +0.000 HD
BRANCH   7   9
ATOM      9  C   UNL     1      43.269   3.326  11.184  0.00  0.00    +0.000 C 
BRANCH   9  10
ATOM     10  C   UNL     1      43.508   3.531  12.681  0.00  0.00    +0.000 C 
BRANCH  10  11
ATOM     11  C   UNL     1      44.771   4.312  12.937  0.00  0.00    +0.000 A 
ATOM     12  C   UNL     1      44.802   5.694  12.763  0.00  0.00    +0.000 A 
ATOM     13  C   UNL     1      45.994   6.375  12.998  0.00  0.00    +0.000 A 
ATOM     14  C   UNL     1      47.116   5.666  13.405  0.00  0.00    +0.000 A 
ATOM     15  C   UNL     1      46.995   4.296  13.571  0.00  0.00    +0.000 A 
ATOM     16  N   UNL     1      45.852   3.608  13.351  0.00  0.00    +0.000 NA
ENDBRANCH  10  11
ENDBRANCH   9  10
ENDBRANCH   7   9
ENDBRANCH   5   7
BRANCH   1  17
ATOM     17  C   UNL     1      47.261   1.238   6.845  0.00  0.00    +0.000 C 
BRANCH  17  18
ATOM     18  N   UNL     1      48.395   1.809   6.127  0.00  0.00    +0.000 NA
ATOM     19  H   UNL     1      48.125   1.985   5.161  0.00  0.00    +0.000 HD
ATOM     20  H   UNL     1      49.143   1.116   6.097  0.00  0.00    +0.000 HD
ENDBRANCH  17  18
ENDBRANCH   1  17
TORSDOF 6
ENDMDL
MODEL 2
REMARK VINA RESULT:    -6.929      1.529      5.761
REMARK INTER + INTRA:          -9.938
REMARK INTER:                  -9.414
REMARK INTRA:                  -0.524
REMARK UNBOUND:                -0.781
REMARK  Name = 
REMARK  6 active torsions:
REMARK  status: ('A' for Active; 'I' for Inactive)
REMARK    1  A    between atoms: N_1  and  C_2
REMARK    2  A    between atoms: C_2  and  C_3
REMARK    3  A    between atoms: C_7  and  N_8
REMARK    4  A    between atoms: N_8  and  C_9
REMARK    5  A    between atoms: C_9  and  C_10
REMARK    6  A    between atoms: C_10  and  C_11
REMARK                            x       y       z     vdW  Elec       q    Type
REMARK                         _______ _______ _______ _____ _____    ______ ____
ROOT
ATOM      1  C   UNL     1      46.490   5.003  13.531  0.00  0.00    +0.000 A 
ATOM      2  C   UNL     1      47.282   6.016  12.980  0.00  0.00    +0.000 A 
ATOM      3  C   UNL     1      46.959   6.562  11.742  0.00  0.00    +0.000 A 
ATOM      4  C   UNL     1      45.858   6.083  11.028  0.00  0.00    +0.000 A 
ATOM      5  C   UNL     1      45.075   5.033  11.520  0.00  0.00    +0.000 A 
ATOM      6  C   UNL     1      45.382   4.536  12.799  0.00  0.00    +0.000 A 
ENDROOT
BRANCH   5   7
ATOM      7  N   UNL     1      43.925   4.556  10.864  0.00  0.00    +0.000 N 
ATOM      8  H   UNL     1      43.450   3.866  11.444  0.00  0.00    +0.000 HD
BRANCH   7   9
ATOM      9  C   UNL     1      44.070   4.093   9.475  0.00  0.00    +0.000 C 
BRANCH   9  10
ATOM     10  C   UNL     1      44.543   2.638   9.449  0.00  0.00    +0.000 C 
BRANCH  10  11
ATOM     11  C   UNL     1      45.596   2.418   8.394  0.00  0.00    +0.000 A 
ATOM     12  C   UNL     1      45.989   3.456   7.551  0.00  0.00    +0.000 A 
ATOM     13  C   UNL     1      46.956   3.206   6.581  0.00  0.00    +0.000 A 
ATOM     14  C   UNL     1      47.508   1.936   6.480  0.00  0.00    +0.000 A 
ATOM     15  C   UNL     1      47.074   0.965   7.367  0.00  0.00    +0.000 A 
ATOM     16  N   UNL     1      46.138   1.178   8.319  0.00  0.00    +0.000 NA
ENDBRANCH  10  11
ENDBRANCH   9  10
ENDBRANCH   7   9
ENDBRANCH   5   7
BRANCH   1  17
ATOM     17  C   UNL     1      46.841   4.409  14.871  0.00  0.00    +0.000 C 
BRANCH  17  18
ATOM     18  N   UNL     1      47.594   3.167  14.736  0.00  0.00    +0.000 NA
ATOM     19  H   UNL     1      47.108   2.550  14.088  0.00  0.00    +0.000 HD
ATOM     20  H   UNL     1      47.602   2.692  15.638  0.00  0.00    +0.000 HD
ENDBRANCH  17  18
ENDBRANCH   1  17
TORSDOF 6
ENDMDL
MODEL 3
REMARK VINA RESULT:    -6.645      1.532      2.125
REMARK INTER + INTRA:          -9.564
REMARK INTER:                  -8.945
REMARK INTRA:                  -0.618
REMARK UNBOUND:                -0.781
REMARK  Name = 
REMARK  6 active torsions:
REMARK  status: ('A' for Active; 'I' for Inactive)
REMARK    1  A    between atoms: N_1  and  C_2
REMARK    2  A    between atoms: C_2  and  C_3
REMARK    3  A    between atoms: C_7  and  N_8
REMARK    4  A    between atoms: N_8  and  C_9
REMARK    5  A    between atoms: C_9  and  C_10
REMARK    6  A    between atoms: C_10  and  C_11
REMARK                            x       y       z     vdW  Elec       q    Type
REMARK                         _______ _______ _______ _____ _____    ______ ____
ROOT
ATOM      1  C   UNL     1      46.619   2.690   6.797  0.00  0.00    +0.000 A 
ATOM      2  C   UNL     1      46.565   1.437   7.417  0.00  0.00    +0.000 A 
ATOM      3  C   UNL     1      45.811   1.258   8.572  0.00  0.00    +0.000 A 
ATOM      4  C   UNL     1      45.126   2.337   9.137  0.00  0.00    +0.000 A 
ATOM      5  C   UNL     1      45.200   3.617   8.578  0.00  0.00    +0.000 A 
ATOM      6  C   UNL     1      45.918   3.763   7.378  0.00  0.00    +0.000 A 
ENDROOT
BRANCH   5   7
ATOM      7  N   UNL     1      44.482   4.720   9.079  0.00  0.00    +0.000 N 
ATOM      8  H   UNL     1      45.104   5.518   9.199  0.00  0.00    +0.000 HD
BRANCH   7   9
ATOM      9  C   UNL     1      43.635   4.507  10.262  0.00  0.00    +0.000 C 
BRANCH   9  10
ATOM     10  C   UNL     1      43.729   5.708  11.205  0.00  0.00    +0.000 C 
BRANCH  10  11
ATOM     11  C   UNL     1      45.056   5.749  11.917  0.00  0.00    +0.000 A 
ATOM     12  C   UNL     1      45.286   4.960  13.043  0.00  0.00    +0.000 A 
ATOM     13  C   UNL     1      46.523   5.039  13.679  0.00  0.00    +0.000 A 
ATOM     14  C   UNL     1      47.495   5.893  13.176  0.00  0.00    +0.000 A 
ATOM     15  C   UNL     1      47.191   6.630  12.044  0.00  0.00    +0.000 A 
ATOM     16  N   UNL     1      46.002   6.574  11.404  0.00  0.00    +0.000 NA
ENDBRANCH  10  11
ENDBRANCH   9  10
ENDBRANCH   7   9
ENDBRANCH   5   7
BRANCH   1  17
ATOM     17  C   UNL     1      47.438   2.885   5.547  0.00  0.00    +0.000 C 
BRANCH  17  18
ATOM     18  N   UNL     1      48.482   1.874   5.417  0.00  0.00    +0.000 NA
ATOM     19  H   UNL     1      49.093   2.122   4.642  0.00  0.00    +0.000 HD
ATOM     20  H   UNL     1      48.046   0.986   5.170  0.00  0.00    +0.000 HD
ENDBRANCH  17  18
ENDBRANCH   1  17
TORSDOF 6
ENDMDL
MODEL 4
REMARK VINA RESULT:    -6.391      1.784      6.126
REMARK INTER + INTRA:          -9.227
REMARK INTER:                  -8.808
REMARK INTRA:                  -0.418
REMARK UNBOUND:                -0.781
REMARK  Name = 
REMARK  6 active torsions:
REMARK  status: ('A' for Active; 'I' for Inactive)
REMARK    1  A    between atoms: N_1  and  C_2
REMARK    2  A    between atoms: C_2  and  C_3
REMARK    3  A    between atoms: C_7  and  N_8
REMARK    4  A    between atoms: N_8  and  C_9
REMARK    5  A    between atoms: C_9  and  C_10
REMARK    6  A    between atoms: C_10  and  C_11
REMARK                            x       y       z     vdW  Elec       q    Type
REMARK                         _______ _______ _______ _____ _____    ______ ____
ROOT
ATOM      1  C   UNL     1      46.305   6.719  12.758  0.00  0.00    +0.000 A 
ATOM      2  C   UNL     1      47.060   5.864  13.568  0.00  0.00    +0.000 A 
ATOM      3  C   UNL     1      46.777   4.503  13.606  0.00  0.00    +0.000 A 
ATOM      4  C   UNL     1      45.719   3.985  12.856  0.00  0.00    +0.000 A 
ATOM      5  C   UNL     1      44.906   4.816  12.077  0.00  0.00    +0.000 A 
ATOM      6  C   UNL     1      45.246   6.178  12.006  0.00  0.00    +0.000 A 
ENDROOT
BRANCH   5   7
ATOM      7  N   UNL     1      43.866   4.331  11.261  0.00  0.00    +0.000 N 
ATOM      8  H   UNL     1      43.431   3.517  11.693  0.00  0.00    +0.000 HD
BRANCH   7   9
ATOM      9  C   UNL     1      44.159   4.102   9.839  0.00  0.00    +0.000 C 
BRANCH   9  10
ATOM     10  C   UNL     1      44.511   2.632   9.600  0.00  0.00    +0.000 C 
BRANCH  10  11
ATOM     11  C   UNL     1      45.503   2.476   8.478  0.00  0.00    +0.000 A 
ATOM     12  C   UNL     1      45.757   3.527   7.599  0.00  0.00    +0.000 A 
ATOM     13  C   UNL     1      46.672   3.336   6.566  0.00  0.00    +0.000 A 
ATOM     14  C   UNL     1      47.312   2.110   6.441  0.00  0.00    +0.000 A 
ATOM     15  C   UNL     1      47.015   1.124   7.366  0.00  0.00    +0.000 A 
ATOM     16  N   UNL     1      46.133   1.280   8.379  0.00  0.00    +0.000 NA
ENDBRANCH  10  11
ENDBRANCH   9  10
ENDBRANCH   7   9
ENDBRANCH   5   7
BRANCH   1  17
ATOM     17  C   UNL     1      46.609   8.195  12.719  0.00  0.00    +0.000 C 
BRANCH  17  18
ATOM     18  N   UNL     1      46.724   8.763  14.058  0.00  0.00    +0.000 NA
ATOM     19  H   UNL     1      45.959   8.418  14.634  0.00  0.00    +0.000 HD
ATOM     20  H   UNL     1      46.605   9.773  13.993  0.00  0.00    +0.000 HD
ENDBRANCH  17  18
ENDBRANCH   1  17
TORSDOF 6
ENDMDL
MODEL 5
REMARK VINA RESULT:    -5.842      2.715      6.660
REMARK INTER + INTRA:          -8.502
REMARK INTER:                  -8.219
REMARK INTRA:                  -0.283
REMARK UNBOUND:                -0.781
REMARK  Name = 
REMARK  6 active torsions:
REMARK  status: ('A' for Active; 'I' for Inactive)
REMARK    1  A    between atoms: N_1  and  C_2
REMARK    2  A    between atoms: C_2  and  C_3
REMARK    3  A    between atoms: C_7  and  N_8
REMARK    4  A    between atoms: N_8  and  C_9
REMARK    5  A    between atoms: C_9  and  C_10
REMARK    6  A    between atoms: C_10  and  C_11
REMARK                            x       y       z     vdW  Elec       q    Type
REMARK                         _______ _______ _______ _____ _____    ______ ____
ROOT
ATOM      1  C   UNL     1      44.985   8.945  11.912  0.00  0.00    +0.000 A 
ATOM      2  C   UNL     1      45.974   8.680  12.864  0.00  0.00    +0.000 A 
ATOM      3  C   UNL     1      46.421   7.379  13.069  0.00  0.00    +0.000 A 
ATOM      4  C   UNL     1      45.863   6.323  12.342  0.00  0.00    +0.000 A 
ATOM      5  C   UNL     1      44.833   6.540  11.421  0.00  0.00    +0.000 A 
ATOM      6  C   UNL     1      44.439   7.869  11.186  0.00  0.00    +0.000 A 
ENDROOT
BRANCH   5   7
ATOM      7  N   UNL     1      44.281   5.517  10.627  0.00  0.00    +0.000 N 
ATOM      8  H   UNL     1      43.339   5.295  10.945  0.00  0.00    +0.000 HD
BRANCH   7   9
ATOM      9  C   UNL     1      45.085   4.303  10.416  0.00  0.00    +0.000 C 
BRANCH   9  10
ATOM     10  C   UNL     1      44.429   3.410   9.361  0.00  0.00    +0.000 C 
BRANCH  10  11
ATOM     11  C   UNL     1      45.449   2.827   8.418  0.00  0.00    +0.000 A 
ATOM     12  C   UNL     1      46.002   3.601   7.399  0.00  0.00    +0.000 A 
ATOM     13  C   UNL     1      46.932   3.019   6.541  0.00  0.00    +0.000 A 
ATOM     14  C   UNL     1      47.290   1.689   6.724  0.00  0.00    +0.000 A 
ATOM     15  C   UNL     1      46.706   0.997   7.771  0.00  0.00    +0.000 A 
ATOM     16  N   UNL     1      45.802   1.535   8.620  0.00  0.00    +0.000 NA
ENDBRANCH  10  11
ENDBRANCH   9  10
ENDBRANCH   7   9
ENDBRANCH   5   7
BRANCH   1  17
ATOM     17  C   UNL     1      44.498  10.354  11.692  0.00  0.00    +0.000 C 
BRANCH  17  18
ATOM     18  N   UNL     1      43.119  10.529  12.134  0.00  0.00    +0.000 NA
ATOM     19  H   UNL     1      42.612  11.073  11.439  0.00  0.00    +0.000 HD
ATOM     20  H   UNL     1      43.120  11.083  12.990  0.00  0.00    +0.000 HD
ENDBRANCH  17  18
ENDBRANCH   1  17
TORSDOF 6
ENDMDL
MODEL 6
REMARK VINA RESULT:    -5.562      2.001      5.773
REMARK INTER + INTRA:          -8.131
REMARK INTER:                  -7.569
REMARK INTRA:                  -0.562
REMARK UNBOUND:                -0.781
REMARK  Name = 
REMARK  6 active torsions:
REMARK  status: ('A' for Active; 'I' for Inactive)
REMARK    1  A    between atoms: N_1  and  C_2
REMARK    2  A    between atoms: C_2  and  C_3
REMARK    3  A    between atoms: C_7  and  N_8
REMARK    4  A    between atoms: N_8  and  C_9
REMARK    5  A    between atoms: C_9  and  C_10
REMARK    6  A    between atoms: C_10  and  C_11
REMARK                            x       y       z     vdW  Elec       q    Type
REMARK                         _______ _______ _______ _____ _____    ______ ____
ROOT
ATOM      1  C   UNL     1      45.680   7.818  12.293  0.00  0.00    +0.000 A 
ATOM      2  C   UNL     1      47.060   7.764  12.514  0.00  0.00    +0.000 A 
ATOM      3  C   UNL     1      47.654   6.584  12.950  0.00  0.00    +0.000 A 
ATOM      4  C   UNL     1      46.871   5.453  13.196  0.00  0.00    +0.000 A 
ATOM      5  C   UNL     1      45.482   5.484  13.039  0.00  0.00    +0.000 A 
ATOM      6  C   UNL     1      44.908   6.667  12.541  0.00  0.00    +0.000 A 
ENDROOT
BRANCH   5   7
ATOM      7  N   UNL     1      44.660   4.355  13.221  0.00  0.00    +0.000 N 
ATOM      8  H   UNL     1      44.533   4.168  14.214  0.00  0.00    +0.000 HD
BRANCH   7   9
ATOM      9  C   UNL     1      45.001   3.132  12.477  0.00  0.00    +0.000 C 
BRANCH   9  10
ATOM     10  C   UNL     1      44.081   2.976  11.264  0.00  0.00    +0.000 C 
BRANCH  10  11
ATOM     11  C   UNL     1      44.822   3.214   9.974  0.00  0.00    +0.000 A 
ATOM     12  C   UNL     1      45.147   2.152   9.133  0.00  0.00    +0.000 A 
ATOM     13  C   UNL     1      45.845   2.414   7.956  0.00  0.00    +0.000 A 
ATOM     14  C   UNL     1      46.192   3.722   7.646  0.00  0.00    +0.000 A 
ATOM     15  C   UNL     1      45.816   4.721   8.529  0.00  0.00    +0.000 A 
ATOM     16  N   UNL     1      45.138   4.498   9.677  0.00  0.00    +0.000 NA
ENDBRANCH  10  11
ENDBRANCH   9  10
ENDBRANCH   7   9
ENDBRANCH   5   7
BRANCH   1  17
ATOM     17  C   UNL     1      45.035   9.097  11.823  0.00  0.00    +0.000 C 
BRANCH  17  18
ATOM     18  N   UNL     1      43.825   8.843  11.047  0.00  0.00    +0.000 NA
ATOM     19  H   UNL     1      43.294   9.707  10.964  0.00  0.00    +0.000 HD
ATOM     20  H   UNL     1      43.238   8.190  11.565  0.00  0.00    +0.000 HD
ENDBRANCH  17  18
ENDBRANCH   1  17
TORSDOF 6
ENDMDL
MODEL 7
REMARK VINA RESULT:    -5.494      3.582      5.633
REMARK INTER + INTRA:          -8.042
REMARK INTER:                  -7.757
REMARK INTRA:                  -0.284
REMARK UNBOUND:                -0.781
REMARK  Name = 
REMARK  6 active torsions:
REMARK  status: ('A' for Active; 'I' for Inactive)
REMARK    1  A    between atoms: N_1  and  C_2
REMARK    2  A    between atoms: C_2  and  C_3
REMARK    3  A    between atoms: C_7  and  N_8
REMARK    4  A    between atoms: N_8  and  C_9
REMARK    5  A    between atoms: C_9  and  C_10
REMARK    6  A    between atoms: C_10  and  C_11
REMARK                            x       y       z     vdW  Elec       q    Type
REMARK                         _______ _______ _______ _____ _____    ______ ____
ROOT
ATOM      1  C   UNL     1      44.893   4.651  11.389  0.00  0.00    +0.000 A 
ATOM      2  C   UNL     1      45.540   5.848  11.065  0.00  0.00    +0.000 A 
ATOM      3  C   UNL     1      46.572   6.327  11.865  0.00  0.00    +0.000 A 
ATOM      4  C   UNL     1      46.951   5.628  13.014  0.00  0.00    +0.000 A 
ATOM      5  C   UNL     1      46.292   4.456  13.401  0.00  0.00    +0.000 A 
ATOM      6  C   UNL     1      45.292   3.958  12.547  0.00  0.00    +0.000 A 
ENDROOT
BRANCH   5   7
ATOM      7  N   UNL     1      46.676   3.689  14.518  0.00  0.00    +0.000 N 
ATOM      8  H   UNL     1      45.880   3.161  14.871  0.00  0.00    +0.000 HD
BRANCH   7   9
ATOM      9  C   UNL     1      47.402   4.370  15.600  0.00  0.00    +0.000 C 
BRANCH   9  10
ATOM     10  C   UNL     1      47.551   3.439  16.806  0.00  0.00    +0.000 C 
BRANCH  10  11
ATOM     11  C   UNL     1      48.999   3.193  17.139  0.00  0.00    +0.000 A 
ATOM     12  C   UNL     1      49.724   4.115  17.892  0.00  0.00    +0.000 A 
ATOM     13  C   UNL     1      51.065   3.855  18.167  0.00  0.00    +0.000 A 
ATOM     14  C   UNL     1      51.644   2.686  17.691  0.00  0.00    +0.000 A 
ATOM     15  C   UNL     1      50.848   1.815  16.965  0.00  0.00    +0.000 A 
ATOM     16  N   UNL     1      49.545   2.040  16.684  0.00  0.00    +0.000 NA
ENDBRANCH  10  11
ENDBRANCH   9  10
ENDBRANCH   7   9
ENDBRANCH   5   7
BRANCH   1  17
ATOM     17  C   UNL     1      43.773   4.134  10.524  0.00  0.00    +0.000 C 
BRANCH  17  18
ATOM     18  N   UNL     1      43.879   4.614   9.150  0.00  0.00    +0.000 NA
ATOM     19  H   UNL     1      44.129   3.836   8.543  0.00  0.00    +0.000 HD
ATOM     20  H   UNL     1      44.648   5.281   9.098  0.00  0.00    +0.000 HD
ENDBRANCH  17  18
ENDBRANCH   1  17
TORSDOF 6
ENDMDL
MODEL 8
REMARK VINA RESULT:    -5.359      2.561      3.502
REMARK INTER + INTRA:          -7.864
REMARK INTER:                  -7.449
REMARK INTRA:                  -0.415
REMARK UNBOUND:                -0.781
REMARK  Name = 
REMARK  6 active torsions:
REMARK  status: ('A' for Active; 'I' for Inactive)
REMARK    1  A    between atoms: N_1  and  C_2
REMARK    2  A    between atoms: C_2  and  C_3
REMARK    3  A    between atoms: C_7  and  N_8
REMARK    4  A    between atoms: N_8  and  C_9
REMARK    5  A    between atoms: C_9  and  C_10
REMARK    6  A    between atoms: C_10  and  C_11
REMARK                            x       y       z     vdW  Elec       q    Type
REMARK                         _______ _______ _______ _____ _____    ______ ____
ROOT
ATOM      1  C   UNL     1      45.801   3.523   7.980  0.00  0.00    +0.000 A 
ATOM      2  C   UNL     1      45.308   2.283   8.399  0.00  0.00    +0.000 A 
ATOM      3  C   UNL     1      44.537   2.189   9.553  0.00  0.00    +0.000 A 
ATOM      4  C   UNL     1      44.273   3.330  10.316  0.00  0.00    +0.000 A 
ATOM      5  C   UNL     1      44.794   4.578   9.959  0.00  0.00    +0.000 A 
ATOM      6  C   UNL     1      45.521   4.662   8.758  0.00  0.00    +0.000 A 
ENDROOT
BRANCH   5   7
ATOM      7  N   UNL     1      44.509   5.762  10.665  0.00  0.00    +0.000 N 
ATOM      8  H   UNL     1      44.635   6.571  10.059  0.00  0.00    +0.000 HD
BRANCH   7   9
ATOM      9  C   UNL     1      45.156   5.955  11.972  0.00  0.00    +0.000 C 
BRANCH   9  10
ATOM     10  C   UNL     1      45.243   7.445  12.306  0.00  0.00    +0.000 C 
BRANCH  10  11
ATOM     11  C   UNL     1      46.633   7.982  12.081  0.00  0.00    +0.000 A 
ATOM     12  C   UNL     1      47.696   7.121  11.816  0.00  0.00    +0.000 A 
ATOM     13  C   UNL     1      48.967   7.658  11.628  0.00  0.00    +0.000 A 
ATOM     14  C   UNL     1      49.144   9.034  11.702  0.00  0.00    +0.000 A 
ATOM     15  C   UNL     1      48.032   9.820  11.952  0.00  0.00    +0.000 A 
ATOM     16  N   UNL     1      46.787   9.328  12.138  0.00  0.00    +0.000 NA
ENDBRANCH  10  11
ENDBRANCH   9  10
ENDBRANCH   7   9
ENDBRANCH   5   7
BRANCH   1  17
ATOM     17  C   UNL     1      46.639   3.625   6.731  0.00  0.00    +0.000 C 
BRANCH  17  18
ATOM     18  N   UNL     1      47.900   2.903   6.861  0.00  0.00    +0.000 NA
ATOM     19  H   UNL     1      47.776   2.129   7.510  0.00  0.00    +0.000 HD
ATOM     20  H   UNL     1      48.589   3.526   7.281  0.00  0.00    +0.000 HD
ENDBRANCH  17  18
ENDBRANCH   1  17
TORSDOF 6
ENDMDL
MODEL 9
REMARK VINA RESULT:    -5.294      1.867      2.930
REMARK INTER + INTRA:          -7.778
REMARK INTER:                  -7.309
REMARK INTRA:                  -0.469
REMARK UNBOUND:                -0.781
REMARK  Name = 
REMARK  6 active torsions:
REMARK  status: ('A' for Active; 'I' for Inactive)
REMARK    1  A    between atoms: N_1  and  C_2
REMARK    2  A    between atoms: C_2  and  C_3
REMARK    3  A    between atoms: C_7  and  N_8
REMARK    4  A    between atoms: N_8  and  C_9
REMARK    5  A    between atoms: C_9  and  C_10
REMARK    6  A    between atoms: C_10  and  C_11
REMARK                            x       y       z     vdW  Elec       q    Type
REMARK                         _______ _______ _______ _____ _____    ______ ____
ROOT
ATOM      1  C   UNL     1      45.701   3.339   8.061  0.00  0.00    +0.000 A 
ATOM      2  C   UNL     1      45.074   2.288   8.738  0.00  0.00    +0.000 A 
ATOM      3  C   UNL     1      44.461   2.513   9.967  0.00  0.00    +0.000 A 
ATOM      4  C   UNL     1      44.491   3.784  10.545  0.00  0.00    +0.000 A 
ATOM      5  C   UNL     1      45.156   4.848   9.924  0.00  0.00    +0.000 A 
ATOM      6  C   UNL     1      45.717   4.614   8.656  0.00  0.00    +0.000 A 
ENDROOT
BRANCH   5   7
ATOM      7  N   UNL     1      45.165   6.157  10.441  0.00  0.00    +0.000 N 
ATOM      8  H   UNL     1      45.837   6.730   9.933  0.00  0.00    +0.000 HD
BRANCH   7   9
ATOM      9  C   UNL     1      45.301   6.320  11.896  0.00  0.00    +0.000 C 
BRANCH   9  10
ATOM     10  C   UNL     1      46.729   6.737  12.252  0.00  0.00    +0.000 C 
BRANCH  10  11
ATOM     11  C   UNL     1      47.181   6.115  13.547  0.00  0.00    +0.000 A 
ATOM     12  C   UNL     1      46.665   4.890  13.968  0.00  0.00    +0.000 A 
ATOM     13  C   UNL     1      47.100   4.357  15.179  0.00  0.00    +0.000 A 
ATOM     14  C   UNL     1      48.037   5.051  15.933  0.00  0.00    +0.000 A 
ATOM     15  C   UNL     1      48.511   6.253  15.434  0.00  0.00    +0.000 A 
ATOM     16  N   UNL     1      48.109   6.795  14.263  0.00  0.00    +0.000 NA
ENDBRANCH  10  11
ENDBRANCH   9  10
ENDBRANCH   7   9
ENDBRANCH   5   7
BRANCH   1  17
ATOM     17  C   UNL     1      46.368   3.096   6.731  0.00  0.00    +0.000 C 
BRANCH  17  18
ATOM     18  N   UNL     1      47.267   1.948   6.776  0.00  0.00    +0.000 NA
ATOM     19  H   UNL     1      46.934   1.289   7.476  0.00  0.00    +0.000 HD
ATOM     20  H   UNL     1      48.184   2.266   7.089  0.00  0.00    +0.000 HD
ENDBRANCH  17  18
ENDBRANCH   1  17
TORSDOF 6
ENDMDL
