MODEL 1
REMARK VINA RESULT:    -9.015      0.000      0.000
REMARK INTER + INTRA:         -12.478
REMARK INTER:                 -11.651
REMARK INTRA:                  -0.828
REMARK UNBOUND:                -0.828
REMARK  Name = 
REMARK  5 active torsions:
REMARK  status: ('A' for Active; 'I' for Inactive)
REMARK    1  A    between atoms: C_2  and  C_4
REMARK    2  A    between atoms: C_7  and  O_8
REMARK    3  A    between atoms: O_8  and  C_9
REMARK    4  A    between atoms: C_9  and  C_10
REMARK    5  A    between atoms: C_15  and  C_16
REMARK                            x       y       z     vdW  Elec       q    Type
REMARK                         _______ _______ _______ _____ _____    ______ ____
ROOT
ATOM      1  C   UNL     1      43.707   4.329  11.274  0.00  0.00    +0.000 C 
ENDROOT
BRANCH   1   2
ATOM      2  C   UNL     1      44.993   4.739  11.957  0.00  0.00    +0.000 A 
ATOM      3  C   UNL     1      45.591   3.889  12.890  0.00  0.00    +0.000 A 
ATOM      4  C   UNL     1      46.752   4.287  13.539  0.00  0.00    +0.000 A 
ATOM      5  F   UNL     1      47.319   3.466  14.433  0.00  0.00    +0.000 F 
ATOM      6  C   UNL     1      47.334   5.527  13.283  0.00  0.00    +0.000 A 
ATOM      7  C   UNL     1      46.747   6.424  12.377  0.00  0.00    +0.000 A 
ATOM      8  C   UNL     1      45.564   6.004  11.733  0.00  0.00    +0.000 A 
BRANCH   7   9
ATOM      9  C   UNL     1      47.321   7.765  12.116  0.00  0.00    +0.000 A 
ATOM     10  C   UNL     1      46.551   8.934  12.264  0.00  0.00    +0.000 A 
ATOM     11  C   UNL     1      47.104  10.203  12.066  0.00  0.00    +0.000 A 
ATOM     12  C   UNL     1      48.438  10.332  11.696  0.00  0.00    +0.000 A 
ATOM     13  C   UNL     1      49.217   9.192  11.523  0.00  0.00    +0.000 A 
ATOM     14  C   UNL     1      48.665   7.925  11.736  0.00  0.00    +0.000 A 
ENDBRANCH   7   9
ENDBRANCH   1   2
BRANCH   1  15
ATOM     15  O   UNL     1      43.738   4.707   9.893  0.00  0.00    +0.000 OA
BRANCH  15  19
ATOM     16  C   UNL     1      46.414   2.451   7.734  0.00  0.00    +0.000 A 
ATOM     17  C   UNL     1      45.558   1.824   8.641  0.00  0.00    +0.000 A 
ATOM     18  C   UNL     1      44.662   2.602   9.377  0.00  0.00    +0.000 A 
ATOM     19  C   UNL     1      44.656   3.973   9.173  0.00  0.00    +0.000 A 
ATOM     20  N   UNL     1      45.484   4.605   8.315  0.00  0.00    +0.000 NA
ATOM     21  C   UNL     1      46.353   3.832   7.623  0.00  0.00    +0.000 A 
BRANCH  16  23
ATOM     22  N   UNL     1      48.479   2.419   6.458  0.00  0.00    +0.000 N 
ATOM     23  C   UNL     1      47.383   1.727   6.890  0.00  0.00    +0.000 C 
ATOM     24  O   UNL     1      47.236   0.542   6.623  0.00  0.00    +0.000 OA
ATOM     25  H   UNL     1      49.192   1.871   5.992  0.00  0.00    +0.000 HD
ATOM     26  H   UNL     1      48.763   3.296   6.872  0.00  0.00    +0.000 HD
ENDBRANCH  16  23
ENDBRANCH  15  19
ENDBRANCH   1  15
TORSDOF 5
ENDMDL
MODEL 2
REMARK VINA RESULT:    -8.478      1.413      1.903
REMARK INTER + INTRA:         -11.784
REMARK INTER:                 -10.811
REMARK INTRA:                  -0.973
REMARK UNBOUND:                -0.828
REMARK  Name = 
REMARK  5 active torsions:
REMARK  status: ('A' for Active; 'I' for Inactive)
REMARK    1  A    between atoms: C_2  and  C_4
REMARK    2  A    between atoms: C_7  and  O_8
REMARK    3  A    between atoms: O_8  and  C_9
REMARK    4  A    between atoms: C_9  and  C_10
REMARK    5  A    between atoms: C_15  and  C_16
REMARK                            x       y       z     vdW  Elec       q    Type
REMARK                         _______ _______ _______ _____ _____    ______ ____
ROOT
ATOM      1  C   UNL     1      43.783   4.193  11.365  0.00  0.00    +0.000 C 
ENDROOT
BRANCH   1   2
ATOM      2  C   UNL     1      44.730   5.246  11.894  0.00  0.00    +0.000 A 
ATOM      3  C   UNL     1      45.754   4.888  12.776  0.00  0.00    +0.000 A 
ATOM      4  C   UNL     1      46.597   5.865  13.284  0.00  0.00    +0.000 A 
ATOM      5  F   UNL     1      47.575   5.513  14.129  0.00  0.00    +0.000 F 
ATOM      6  C   UNL     1      46.443   7.205  12.938  0.00  0.00    +0.000 A 
ATOM      7  C   UNL     1      45.408   7.612  12.080  0.00  0.00    +0.000 A 
ATOM      8  C   UNL     1      44.556   6.606  11.580  0.00  0.00    +0.000 A 
BRANCH   7   9
ATOM      9  C   UNL     1      45.194   9.035  11.728  0.00  0.00    +0.000 A 
ATOM     10  C   UNL     1      44.013   9.465  11.093  0.00  0.00    +0.000 A 
ATOM     11  C   UNL     1      43.788  10.814  10.803  0.00  0.00    +0.000 A 
ATOM     12  C   UNL     1      44.750  11.765  11.124  0.00  0.00    +0.000 A 
ATOM     13  C   UNL     1      45.936  11.367  11.734  0.00  0.00    +0.000 A 
ATOM     14  C   UNL     1      46.151  10.018  12.036  0.00  0.00    +0.000 A 
ENDBRANCH   7   9
ENDBRANCH   1   2
BRANCH   1  15
ATOM     15  O   UNL     1      43.571   4.377   9.960  0.00  0.00    +0.000 OA
BRANCH  15  19
ATOM     16  C   UNL     1      46.414   2.455   7.693  0.00  0.00    +0.000 A 
ATOM     17  C   UNL     1      45.686   1.734   8.642  0.00  0.00    +0.000 A 
ATOM     18  C   UNL     1      44.733   2.401   9.414  0.00  0.00    +0.000 A 
ATOM     19  C   UNL     1      44.542   3.758   9.203  0.00  0.00    +0.000 A 
ATOM     20  N   UNL     1      45.243   4.480   8.304  0.00  0.00    +0.000 NA
ATOM     21  C   UNL     1      46.172   3.816   7.577  0.00  0.00    +0.000 A 
BRANCH  16  23
ATOM     22  N   UNL     1      48.479   2.637   6.430  0.00  0.00    +0.000 N 
ATOM     23  C   UNL     1      47.427   1.851   6.810  0.00  0.00    +0.000 C 
ATOM     24  O   UNL     1      47.356   0.679   6.464  0.00  0.00    +0.000 OA
ATOM     25  H   UNL     1      49.226   2.167   5.934  0.00  0.00    +0.000 HD
ATOM     26  H   UNL     1      48.707   3.501   6.903  0.00  0.00    +0.000 HD
ENDBRANCH  16  23
ENDBRANCH  15  19
ENDBRANCH   1  15
TORSDOF 5
ENDMDL
MODEL 3
REMARK VINA RESULT:    -8.133      2.114      3.903
REMARK INTER + INTRA:         -11.338
REMARK INTER:                 -10.568
REMARK INTRA:                  -0.770
REMARK UNBOUND:                -0.828
REMARK  Name = 
REMARK  5 active torsions:
REMARK  status: ('A' for Active; 'I' for Inactive)
REMARK    1  A    between atoms: C_2  and  C_4
REMARK    2  A    between atoms: C_7  and  O_8
REMARK    3  A    between atoms: O_8  and  C_9
REMARK    4  A    between atoms: C_9  and  C_10
REMARK    5  A    between atoms: C_15  and  C_16
REMARK                            x       y       z     vdW  Elec       q    Type
REMARK                         _______ _______ _______ _____ _____    ______ ____
ROOT
ATOM      1  C   UNL     1      43.946   4.395  11.481  0.00  0.00    +0.000 C 
ENDROOT
BRANCH   1   2
ATOM      2  C   UNL     1      45.105   5.125  12.121  0.00  0.00    +0.000 A 
ATOM      3  C   UNL     1      45.636   6.266  11.512  0.00  0.00    +0.000 A 
ATOM      4  C   UNL     1      46.723   6.909  12.086  0.00  0.00    +0.000 A 
ATOM      5  F   UNL     1      47.225   8.001  11.495  0.00  0.00    +0.000 F 
ATOM      6  C   UNL     1      47.304   6.439  13.261  0.00  0.00    +0.000 A 
ATOM      7  C   UNL     1      46.821   5.279  13.887  0.00  0.00    +0.000 A 
ATOM      8  C   UNL     1      45.722   4.634  13.285  0.00  0.00    +0.000 A 
BRANCH   7   9
ATOM      9  C   UNL     1      47.446   4.732  15.115  0.00  0.00    +0.000 A 
ATOM     10  C   UNL     1      47.460   3.349  15.378  0.00  0.00    +0.000 A 
ATOM     11  C   UNL     1      48.091   2.826  16.511  0.00  0.00    +0.000 A 
ATOM     12  C   UNL     1      48.708   3.678  17.420  0.00  0.00    +0.000 A 
ATOM     13  C   UNL     1      48.693   5.051  17.195  0.00  0.00    +0.000 A 
ATOM     14  C   UNL     1      48.073   5.569  16.054  0.00  0.00    +0.000 A 
ENDBRANCH   7   9
ENDBRANCH   1   2
BRANCH   1  15
ATOM     15  O   UNL     1      43.886   4.691  10.081  0.00  0.00    +0.000 OA
BRANCH  15  19
ATOM     16  C   UNL     1      46.371   2.270   7.872  0.00  0.00    +0.000 A 
ATOM     17  C   UNL     1      46.409   3.653   7.682  0.00  0.00    +0.000 A 
ATOM     18  C   UNL     1      45.551   4.463   8.429  0.00  0.00    +0.000 A 
ATOM     19  C   UNL     1      44.696   3.859   9.338  0.00  0.00    +0.000 A 
ATOM     20  N   UNL     1      44.629   2.525   9.529  0.00  0.00    +0.000 NA
ATOM     21  C   UNL     1      45.460   1.758   8.783  0.00  0.00    +0.000 A 
BRANCH  16  23
ATOM     22  N   UNL     1      48.302   1.845   6.464  0.00  0.00    +0.000 N 
ATOM     23  C   UNL     1      47.245   1.323   7.155  0.00  0.00    +0.000 C 
ATOM     24  O   UNL     1      47.059   0.115   7.211  0.00  0.00    +0.000 OA
ATOM     25  H   UNL     1      48.961   1.173   6.090  0.00  0.00    +0.000 HD
ATOM     26  H   UNL     1      48.635   2.787   6.615  0.00  0.00    +0.000 HD
ENDBRANCH  16  23
ENDBRANCH  15  19
ENDBRANCH   1  15
TORSDOF 5
ENDMDL
MODEL 4
REMARK VINA RESULT:    -7.988      2.044      2.707
REMARK INTER + INTRA:         -11.151
REMARK INTER:                 -10.267
REMARK INTRA:                  -0.884
REMARK UNBOUND:                -0.828
REMARK  Name = 
REMARK  5 active torsions:
REMARK  status: ('A' for Active; 'I' for Inactive)
REMARK    1  A    between atoms: C_2  and  C_4
REMARK    2  A    between atoms: C_7  and  O_8
REMARK    3  A    between atoms: O_8  and  C_9
REMARK    4  A    between atoms: C_9  and  C_10
REMARK    5  A    between atoms: C_15  and  C_16
REMARK                            x       y       z     vdW  Elec       q    Type
REMARK                         _______ _______ _______ _____ _____    ______ ____
ROOT
ATOM      1  C   UNL     1      44.149   4.026  11.605  0.00  0.00    +0.000 C 
ENDROOT
BRANCH   1   2
ATOM      2  C   UNL     1      44.626   5.456  11.716  0.00  0.00    +0.000 A 
ATOM      3  C   UNL     1      43.792   6.505  11.319  0.00  0.00    +0.000 A 
ATOM      4  C   UNL     1      44.250   7.813  11.392  0.00  0.00    +0.000 A 
ATOM      5  F   UNL     1      43.444   8.812  11.009  0.00  0.00    +0.000 F 
ATOM      6  C   UNL     1      45.533   8.106  11.849  0.00  0.00    +0.000 A 
ATOM      7  C   UNL     1      46.413   7.079  12.227  0.00  0.00    +0.000 A 
ATOM      8  C   UNL     1      45.933   5.757  12.139  0.00  0.00    +0.000 A 
BRANCH   7   9
ATOM      9  C   UNL     1      47.797   7.359  12.677  0.00  0.00    +0.000 A 
ATOM     10  C   UNL     1      48.206   7.095  13.998  0.00  0.00    +0.000 A 
ATOM     11  C   UNL     1      49.524   7.312  14.413  0.00  0.00    +0.000 A 
ATOM     12  C   UNL     1      50.461   7.818  13.519  0.00  0.00    +0.000 A 
ATOM     13  C   UNL     1      50.080   8.107  12.213  0.00  0.00    +0.000 A 
ATOM     14  C   UNL     1      48.764   7.875  11.797  0.00  0.00    +0.000 A 
ENDBRANCH   7   9
ENDBRANCH   1   2
BRANCH   1  15
ATOM     15  O   UNL     1      43.586   3.791  10.308  0.00  0.00    +0.000 OA
BRANCH  15  19
ATOM     16  C   UNL     1      46.433   2.478   7.646  0.00  0.00    +0.000 A 
ATOM     17  C   UNL     1      46.109   3.836   7.696  0.00  0.00    +0.000 A 
ATOM     18  C   UNL     1      45.132   4.267   8.595  0.00  0.00    +0.000 A 
ATOM     19  C   UNL     1      44.524   3.326   9.411  0.00  0.00    +0.000 A 
ATOM     20  N   UNL     1      44.807   2.007   9.372  0.00  0.00    +0.000 NA
ATOM     21  C   UNL     1      45.748   1.610   8.482  0.00  0.00    +0.000 A 
BRANCH  16  23
ATOM     22  N   UNL     1      48.498   2.735   6.395  0.00  0.00    +0.000 N 
ATOM     23  C   UNL     1      47.463   1.916   6.753  0.00  0.00    +0.000 C 
ATOM     24  O   UNL     1      47.419   0.752   6.381  0.00  0.00    +0.000 OA
ATOM     25  H   UNL     1      49.257   2.293   5.891  0.00  0.00    +0.000 HD
ATOM     26  H   UNL     1      48.704   3.592   6.888  0.00  0.00    +0.000 HD
ENDBRANCH  16  23
ENDBRANCH  15  19
ENDBRANCH   1  15
TORSDOF 5
ENDMDL
MODEL 5
REMARK VINA RESULT:    -7.959      3.138      6.619
REMARK INTER + INTRA:         -11.113
REMARK INTER:                 -10.111
REMARK INTRA:                  -1.002
REMARK UNBOUND:                -0.828
REMARK  Name = 
REMARK  5 active torsions:
REMARK  status: ('A' for Active; 'I' for Inactive)
REMARK    1  A    between atoms: C_2  and  C_4
REMARK    2  A    between atoms: C_7  and  O_8
REMARK    3  A    between atoms: O_8  and  C_9
REMARK    4  A    between atoms: C_9  and  C_10
REMARK    5  A    between atoms: C_15  and  C_16
REMARK                            x       y       z     vdW  Elec       q    Type
REMARK                         _______ _______ _______ _____ _____    ______ ____
ROOT
ATOM      1  C   UNL     1      44.435   6.640  11.370  0.00  0.00    +0.000 C 
ENDROOT
BRANCH   1   2
ATOM      2  C   UNL     1      44.364   5.193  10.937  0.00  0.00    +0.000 A 
ATOM      3  C   UNL     1      43.619   4.275  11.682  0.00  0.00    +0.000 A 
ATOM      4  C   UNL     1      43.587   2.942  11.298  0.00  0.00    +0.000 A 
ATOM      5  F   UNL     1      42.871   2.069  12.018  0.00  0.00    +0.000 F 
ATOM      6  C   UNL     1      44.291   2.494  10.182  0.00  0.00    +0.000 A 
ATOM      7  C   UNL     1      45.077   3.377   9.425  0.00  0.00    +0.000 A 
ATOM      8  C   UNL     1      45.103   4.726   9.835  0.00  0.00    +0.000 A 
BRANCH   7   9
ATOM      9  C   UNL     1      45.869   2.920   8.259  0.00  0.00    +0.000 A 
ATOM     10  C   UNL     1      46.315   1.589   8.151  0.00  0.00    +0.000 A 
ATOM     11  C   UNL     1      47.020   1.143   7.029  0.00  0.00    +0.000 A 
ATOM     12  C   UNL     1      47.313   2.025   5.995  0.00  0.00    +0.000 A 
ATOM     13  C   UNL     1      46.901   3.351   6.083  0.00  0.00    +0.000 A 
ATOM     14  C   UNL     1      46.184   3.790   7.201  0.00  0.00    +0.000 A 
ENDBRANCH   7   9
ENDBRANCH   1   2
BRANCH   1  15
ATOM     15  O   UNL     1      45.062   6.743  12.654  0.00  0.00    +0.000 OA
BRANCH  15  19
ATOM     16  C   UNL     1      49.052   7.686  12.338  0.00  0.00    +0.000 A 
ATOM     17  C   UNL     1      48.676   6.437  12.838  0.00  0.00    +0.000 A 
ATOM     18  C   UNL     1      47.319   6.133  12.952  0.00  0.00    +0.000 A 
ATOM     19  C   UNL     1      46.393   7.087  12.557  0.00  0.00    +0.000 A 
ATOM     20  N   UNL     1      46.729   8.306  12.087  0.00  0.00    +0.000 NA
ATOM     21  C   UNL     1      48.052   8.583  11.998  0.00  0.00    +0.000 A 
BRANCH  16  23
ATOM     22  N   UNL     1      51.204   7.405  11.250  0.00  0.00    +0.000 N 
ATOM     23  C   UNL     1      50.454   8.103  12.155  0.00  0.00    +0.000 C 
ATOM     24  O   UNL     1      50.918   9.064  12.754  0.00  0.00    +0.000 OA
ATOM     25  H   UNL     1      52.119   7.787  11.044  0.00  0.00    +0.000 HD
ATOM     26  H   UNL     1      50.788   6.796  10.558  0.00  0.00    +0.000 HD
ENDBRANCH  16  23
ENDBRANCH  15  19
ENDBRANCH   1  15
TORSDOF 5
ENDMDL
MODEL 6
REMARK VINA RESULT:    -7.819      3.808      7.290
REMARK INTER + INTRA:         -10.933
REMARK INTER:                 -10.217
REMARK INTRA:                  -0.716
REMARK UNBOUND:                -0.828
REMARK  Name = 
REMARK  5 active torsions:
REMARK  status: ('A' for Active; 'I' for Inactive)
REMARK    1  A    between atoms: C_2  and  C_4
REMARK    2  A    between atoms: C_7  and  O_8
REMARK    3  A    between atoms: O_8  and  C_9
REMARK    4  A    between atoms: C_9  and  C_10
REMARK    5  A    between atoms: C_15  and  C_16
REMARK                            x       y       z     vdW  Elec       q    Type
REMARK                         _______ _______ _______ _____ _____    ______ ____
ROOT
ATOM      1  C   UNL     1      46.335   7.233  12.454  0.00  0.00    +0.000 C 
ENDROOT
BRANCH   1   2
ATOM      2  C   UNL     1      45.399   6.335  11.678  0.00  0.00    +0.000 A 
ATOM      3  C   UNL     1      44.042   6.285  12.009  0.00  0.00    +0.000 A 
ATOM      4  C   UNL     1      43.196   5.431  11.316  0.00  0.00    +0.000 A 
ATOM      5  F   UNL     1      41.897   5.389  11.640  0.00  0.00    +0.000 F 
ATOM      6  C   UNL     1      43.672   4.613  10.294  0.00  0.00    +0.000 A 
ATOM      7  C   UNL     1      45.034   4.610   9.951  0.00  0.00    +0.000 A 
ATOM      8  C   UNL     1      45.880   5.478  10.672  0.00  0.00    +0.000 A 
BRANCH   7   9
ATOM      9  C   UNL     1      45.576   3.721   8.897  0.00  0.00    +0.000 A 
ATOM     10  C   UNL     1      46.149   4.241   7.721  0.00  0.00    +0.000 A 
ATOM     11  C   UNL     1      46.704   3.406   6.746  0.00  0.00    +0.000 A 
ATOM     12  C   UNL     1      46.682   2.027   6.917  0.00  0.00    +0.000 A 
ATOM     13  C   UNL     1      46.104   1.483   8.060  0.00  0.00    +0.000 A 
ATOM     14  C   UNL     1      45.563   2.322   9.039  0.00  0.00    +0.000 A 
ENDBRANCH   7   9
ENDBRANCH   1   2
BRANCH   1  15
ATOM     15  O   UNL     1      47.600   6.587  12.642  0.00  0.00    +0.000 OA
BRANCH  15  19
ATOM     16  C   UNL     1      47.811   4.705  16.292  0.00  0.00    +0.000 A 
ATOM     17  C   UNL     1      48.417   5.953  16.124  0.00  0.00    +0.000 A 
ATOM     18  C   UNL     1      48.349   6.576  14.876  0.00  0.00    +0.000 A 
ATOM     19  C   UNL     1      47.675   5.930  13.851  0.00  0.00    +0.000 A 
ATOM     20  N   UNL     1      47.096   4.718  13.983  0.00  0.00    +0.000 NA
ATOM     21  C   UNL     1      47.186   4.127  15.198  0.00  0.00    +0.000 A 
BRANCH  16  23
ATOM     22  N   UNL     1      46.992   2.871  17.655  0.00  0.00    +0.000 N 
ATOM     23  C   UNL     1      47.802   3.968  17.569  0.00  0.00    +0.000 C 
ATOM     24  O   UNL     1      48.523   4.298  18.502  0.00  0.00    +0.000 OA
ATOM     25  H   UNL     1      47.098   2.307  18.489  0.00  0.00    +0.000 HD
ATOM     26  H   UNL     1      46.600   2.423  16.838  0.00  0.00    +0.000 HD
ENDBRANCH  16  23
ENDBRANCH  15  19
ENDBRANCH   1  15
TORSDOF 5
ENDMDL
MODEL 7
REMARK VINA RESULT:    -7.464      4.702      7.858
REMARK INTER + INTRA:         -10.473
REMARK INTER:                  -9.858
REMARK INTRA:                  -0.616
REMARK UNBOUND:                -0.828
REMARK  Name = 
REMARK  5 active torsions:
REMARK  status: ('A' for Active; 'I' for Inactive)
REMARK    1  A    between atoms: C_2  and  C_4
REMARK    2  A    between atoms: C_7  and  O_8
REMARK    3  A    between atoms: O_8  and  C_9
REMARK    4  A    between atoms: C_9  and  C_10
REMARK    5  A    between atoms: C_15  and  C_16
REMARK                            x       y       z     vdW  Elec       q    Type
REMARK                         _______ _______ _______ _____ _____    ______ ____
ROOT
ATOM      1  C   UNL     1      46.233   5.375  13.861  0.00  0.00    +0.000 C 
ENDROOT
BRANCH   1   2
ATOM      2  C   UNL     1      45.312   5.137  12.686  0.00  0.00    +0.000 A 
ATOM      3  C   UNL     1      43.960   5.482  12.775  0.00  0.00    +0.000 A 
ATOM      4  C   UNL     1      43.114   5.228  11.705  0.00  0.00    +0.000 A 
ATOM      5  F   UNL     1      41.820   5.562  11.800  0.00  0.00    +0.000 F 
ATOM      6  C   UNL     1      43.582   4.628  10.539  0.00  0.00    +0.000 A 
ATOM      7  C   UNL     1      44.925   4.237  10.421  0.00  0.00    +0.000 A 
ATOM      8  C   UNL     1      45.769   4.496  11.520  0.00  0.00    +0.000 A 
BRANCH   7   9
ATOM      9  C   UNL     1      45.442   3.560   9.208  0.00  0.00    +0.000 A 
ATOM     10  C   UNL     1      45.894   4.293   8.094  0.00  0.00    +0.000 A 
ATOM     11  C   UNL     1      46.427   3.658   6.968  0.00  0.00    +0.000 A 
ATOM     12  C   UNL     1      46.502   2.271   6.921  0.00  0.00    +0.000 A 
ATOM     13  C   UNL     1      46.044   1.520   8.000  0.00  0.00    +0.000 A 
ATOM     14  C   UNL     1      45.525   2.159   9.130  0.00  0.00    +0.000 A 
ENDBRANCH   7   9
ENDBRANCH   1   2
BRANCH   1  15
ATOM     15  O   UNL     1      46.387   4.170  14.622  0.00  0.00    +0.000 OA
BRANCH  15  19
ATOM     16  C   UNL     1      49.158   4.497  17.643  0.00  0.00    +0.000 A 
ATOM     17  C   UNL     1      48.326   3.376  17.588  0.00  0.00    +0.000 A 
ATOM     18  C   UNL     1      47.381   3.283  16.565  0.00  0.00    +0.000 A 
ATOM     19  C   UNL     1      47.310   4.310  15.636  0.00  0.00    +0.000 A 
ATOM     20  N   UNL     1      48.090   5.410  15.676  0.00  0.00    +0.000 NA
ATOM     21  C   UNL     1      48.989   5.485  16.685  0.00  0.00    +0.000 A 
BRANCH  16  23
ATOM     22  N   UNL     1      51.192   3.747  18.735  0.00  0.00    +0.000 N 
ATOM     23  C   UNL     1      50.204   4.688  18.664  0.00  0.00    +0.000 C 
ATOM     24  O   UNL     1      50.213   5.672  19.392  0.00  0.00    +0.000 OA
ATOM     25  H   UNL     1      51.966   3.964  19.351  0.00  0.00    +0.000 HD
ATOM     26  H   UNL     1      51.361   3.083  17.992  0.00  0.00    +0.000 HD
ENDBRANCH  16  23
ENDBRANCH  15  19
ENDBRANCH   1  15
TORSDOF 5
ENDMDL
MODEL 8
REMARK VINA RESULT:    -6.751      4.884      8.144
REMARK INTER + INTRA:          -9.552
REMARK INTER:                  -8.729
REMARK INTRA:                  -0.823
REMARK UNBOUND:                -0.828
REMARK  Name = 
REMARK  5 active torsions:
REMARK  status: ('A' for Active; 'I' for Inactive)
REMARK    1  A    between atoms: C_2  and  C_4
REMARK    2  A    between atoms: C_7  and  O_8
REMARK    3  A    between atoms: O_8  and  C_9
REMARK    4  A    between atoms: C_9  and  C_10
REMARK    5  A    between atoms: C_15  and  C_16
REMARK                            x       y       z     vdW  Elec       q    Type
REMARK                         _______ _______ _______ _____ _____    ______ ____
ROOT
ATOM      1  C   UNL     1      48.336   7.659  13.829  0.00  0.00    +0.000 C 
ENDROOT
BRANCH   1   2
ATOM      2  C   UNL     1      47.111   7.672  12.943  0.00  0.00    +0.000 A 
ATOM      3  C   UNL     1      46.268   8.787  12.930  0.00  0.00    +0.000 A 
ATOM      4  C   UNL     1      45.127   8.777  12.140  0.00  0.00    +0.000 A 
ATOM      5  F   UNL     1      44.324   9.849  12.134  0.00  0.00    +0.000 F 
ATOM      6  C   UNL     1      44.797   7.672  11.359  0.00  0.00    +0.000 A 
ATOM      7  C   UNL     1      45.601   6.520  11.367  0.00  0.00    +0.000 A 
ATOM      8  C   UNL     1      46.751   6.546  12.182  0.00  0.00    +0.000 A 
BRANCH   7   9
ATOM      9  C   UNL     1      45.253   5.315  10.578  0.00  0.00    +0.000 A 
ATOM     10  C   UNL     1      45.643   5.181   9.232  0.00  0.00    +0.000 A 
ATOM     11  C   UNL     1      45.358   4.025   8.500  0.00  0.00    +0.000 A 
ATOM     12  C   UNL     1      44.657   2.980   9.092  0.00  0.00    +0.000 A 
ATOM     13  C   UNL     1      44.242   3.093  10.415  0.00  0.00    +0.000 A 
ATOM     14  C   UNL     1      44.541   4.245  11.149  0.00  0.00    +0.000 A 
ENDBRANCH   7   9
ENDBRANCH   1   2
BRANCH   1  15
ATOM     15  O   UNL     1      48.727   6.311  14.114  0.00  0.00    +0.000 OA
BRANCH  15  19
ATOM     16  C   UNL     1      48.299   5.474  18.118  0.00  0.00    +0.000 A 
ATOM     17  C   UNL     1      48.812   6.712  17.723  0.00  0.00    +0.000 A 
ATOM     18  C   UNL     1      48.964   6.979  16.362  0.00  0.00    +0.000 A 
ATOM     19  C   UNL     1      48.593   6.002  15.451  0.00  0.00    +0.000 A 
ATOM     20  N   UNL     1      48.111   4.793  15.806  0.00  0.00    +0.000 NA
ATOM     21  C   UNL     1      47.985   4.551  17.133  0.00  0.00    +0.000 A 
BRANCH  16  23
ATOM     22  N   UNL     1      48.555   3.880  19.930  0.00  0.00    +0.000 N 
ATOM     23  C   UNL     1      48.077   5.094  19.525  0.00  0.00    +0.000 C 
ATOM     24  O   UNL     1      47.525   5.852  20.312  0.00  0.00    +0.000 OA
ATOM     25  H   UNL     1      48.507   3.695  20.925  0.00  0.00    +0.000 HD
ATOM     26  H   UNL     1      49.235   3.359  19.393  0.00  0.00    +0.000 HD
ENDBRANCH  16  23
ENDBRANCH  15  19
ENDBRANCH   1  15
TORSDOF 5
ENDMDL
MODEL 9
REMARK VINA RESULT:    -6.672      5.358      7.617
REMARK INTER + INTRA:          -9.450
REMARK INTER:                  -8.644
REMARK INTRA:                  -0.806
REMARK UNBOUND:                -0.828
REMARK  Name = 
REMARK  5 active torsions:
REMARK  status: ('A' for Active; 'I' for Inactive)
REMARK    1  A    between atoms: C_2  and  C_4
REMARK    2  A    between atoms: C_7  and  O_8
REMARK    3  A    between atoms: O_8  and  C_9
REMARK    4  A    between atoms: C_9  and  C_10
REMARK    5  A    between atoms: C_15  and  C_16
REMARK                            x       y       z     vdW  Elec       q    Type
REMARK                         _______ _______ _______ _____ _____    ______ ____
ROOT
ATOM      1  C   UNL     1      47.283   3.506  16.085  0.00  0.00    +0.000 C 
ENDROOT
BRANCH   1   2
ATOM      2  C   UNL     1      48.492   3.982  16.858  0.00  0.00    +0.000 A 
ATOM      3  C   UNL     1      48.548   5.296  17.330  0.00  0.00    +0.000 A 
ATOM      4  C   UNL     1      49.676   5.736  18.008  0.00  0.00    +0.000 A 
ATOM      5  F   UNL     1      49.722   6.997  18.457  0.00  0.00    +0.000 F 
ATOM      6  C   UNL     1      50.764   4.893  18.225  0.00  0.00    +0.000 A 
ATOM      7  C   UNL     1      50.761   3.576  17.738  0.00  0.00    +0.000 A 
ATOM      8  C   UNL     1      49.610   3.149  17.046  0.00  0.00    +0.000 A 
BRANCH   7   9
ATOM      9  C   UNL     1      51.921   2.670  17.918  0.00  0.00    +0.000 A 
ATOM     10  C   UNL     1      51.901   1.348  17.435  0.00  0.00    +0.000 A 
ATOM     11  C   UNL     1      53.012   0.508  17.560  0.00  0.00    +0.000 A 
ATOM     12  C   UNL     1      54.164   0.965  18.190  0.00  0.00    +0.000 A 
ATOM     13  C   UNL     1      54.204   2.260  18.695  0.00  0.00    +0.000 A 
ATOM     14  C   UNL     1      53.097   3.103  18.555  0.00  0.00    +0.000 A 
ENDBRANCH   7   9
ENDBRANCH   1   2
BRANCH   1  15
ATOM     15  O   UNL     1      47.640   3.231  14.725  0.00  0.00    +0.000 OA
BRANCH  15  19
ATOM     16  C   UNL     1      45.074   4.993  12.037  0.00  0.00    +0.000 A 
ATOM     17  C   UNL     1      45.873   5.795  12.855  0.00  0.00    +0.000 A 
ATOM     18  C   UNL     1      46.731   5.185  13.772  0.00  0.00    +0.000 A 
ATOM     19  C   UNL     1      46.759   3.800  13.831  0.00  0.00    +0.000 A 
ATOM     20  N   UNL     1      45.986   3.003  13.064  0.00  0.00    +0.000 NA
ATOM     21  C   UNL     1      45.152   3.617  12.192  0.00  0.00    +0.000 A 
BRANCH  16  23
ATOM     22  N   UNL     1      44.028   6.887  10.936  0.00  0.00    +0.000 N 
ATOM     23  C   UNL     1      44.150   5.528  11.020  0.00  0.00    +0.000 C 
ATOM     24  O   UNL     1      43.550   4.790  10.251  0.00  0.00    +0.000 OA
ATOM     25  H   UNL     1      43.492   7.235  10.151  0.00  0.00    +0.000 HD
ATOM     26  H   UNL     1      44.695   7.517  11.360  0.00  0.00    +0.000 HD
ENDBRANCH  16  23
ENDBRANCH  15  19
ENDBRANCH   1  15
TORSDOF 5
ENDMDL
