MODEL 1
REMARK VINA RESULT:    -7.599      0.000      0.000
REMARK INTER + INTRA:         -11.437
REMARK INTER:                 -10.265
REMARK INTRA:                  -1.172
REMARK UNBOUND:                -1.172
REMARK  Name = 
REMARK  7 active torsions:
REMARK  status: ('A' for Active; 'I' for Inactive)
REMARK    1  A    between atoms: C_1  and  C_2
REMARK    2  A    between atoms: C_2  and  N_3
REMARK    3  A    between atoms: C_2  and  C_16
REMARK    4  A    between atoms: C_4  and  C_6
REMARK    5  A    between atoms: C_19  and  C_20
REMARK    6  A    between atoms: C_20  and  N_21
REMARK    7  A    between atoms: C_22  and  C_24
REMARK                            x       y       z     vdW  Elec       q    Type
REMARK                         _______ _______ _______ _____ _____    ______ ____
ROOT
ATOM      1  C   UNL     1      48.004   9.119  13.986  0.00  0.00    +0.000 C 
ATOM      2  C   UNL     1      48.107   7.589  14.090  0.00  0.00    +0.000 C 
ENDROOT
BRANCH   2   3
ATOM      3  C   UNL     1      47.016   6.939  13.246  0.00  0.00    +0.000 A 
ATOM      4  C   UNL     1      46.759   5.565  13.358  0.00  0.00    +0.000 A 
ATOM      5  C   UNL     1      45.805   4.944  12.539  0.00  0.00    +0.000 A 
ATOM      6  C   UNL     1      45.089   5.680  11.585  0.00  0.00    +0.000 A 
ATOM      7  C   UNL     1      45.319   7.060  11.499  0.00  0.00    +0.000 A 
ATOM      8  C   UNL     1      46.269   7.680  12.319  0.00  0.00    +0.000 A 
BRANCH   6   9
ATOM      9  C   UNL     1      44.136   5.007  10.630  0.00  0.00    +0.000 C 
BRANCH   9  10
ATOM     10  N   UNL     1      44.715   3.901   9.906  0.00  0.00    +0.000 N 
ATOM     11  C   UNL     1      45.581   4.132   8.854  0.00  0.00    +0.000 C 
ATOM     12  O   UNL     1      45.896   5.255   8.471  0.00  0.00    +0.000 OA
ATOM     13  H   UNL     1      44.625   2.949  10.246  0.00  0.00    +0.000 HD
BRANCH  11  14
ATOM     14  C   UNL     1      46.142   2.920   8.188  0.00  0.00    +0.000 A 
ATOM     15  C   UNL     1      45.774   1.653   8.629  0.00  0.00    +0.000 A 
ATOM     16  N   UNL     1      46.252   0.516   8.054  0.00  0.00    +0.000 NA
ATOM     17  C   UNL     1      47.110   0.707   7.027  0.00  0.00    +0.000 A 
ATOM     18  C   UNL     1      47.481   1.971   6.591  0.00  0.00    +0.000 A 
ATOM     19  N   UNL     1      47.008   3.111   7.150  0.00  0.00    +0.000 NA
ENDBRANCH  11  14
ENDBRANCH   9  10
ENDBRANCH   6   9
ENDBRANCH   2   3
BRANCH   2  20
ATOM     20  N   UNL     1      48.042   7.114  15.465  0.00  0.00    +0.000 N 
ATOM     21  C   UNL     1      49.139   6.560  16.081  0.00  0.00    +0.000 C 
ATOM     22  O   UNL     1      50.231   6.474  15.528  0.00  0.00    +0.000 OA
ATOM     23  H   UNL     1      47.121   6.856  15.815  0.00  0.00    +0.000 HD
BRANCH  21  24
ATOM     24  C   UNL     1      48.979   6.111  17.466  0.00  0.00    +0.000 A 
ATOM     25  C   UNL     1      49.300   4.802  17.797  0.00  0.00    +0.000 A 
ATOM     26  S   UNL     1      48.997   4.414  19.429  0.00  0.00    +0.000 S 
ATOM     27  C   UNL     1      48.397   5.974  19.739  0.00  0.00    +0.000 A 
ATOM     28  N   UNL     1      47.893   6.300  20.964  0.00  0.00    +0.000 NA
ATOM     29  C   UNL     1      47.443   7.505  21.044  0.00  0.00    +0.000 A 
ATOM     30  N   UNL     1      47.471   8.424  20.027  0.00  0.00    +0.000 N 
ATOM     31  C   UNL     1      48.014   8.156  18.792  0.00  0.00    +0.000 A 
ATOM     32  O   UNL     1      48.099   9.018  17.921  0.00  0.00    +0.000 OA
ATOM     33  C   UNL     1      48.480   6.796  18.629  0.00  0.00    +0.000 A 
ATOM     34  H   UNL     1      47.131   9.363  20.168  0.00  0.00    +0.000 HD
ENDBRANCH  21  24
ENDBRANCH   2  20
TORSDOF 6
ENDMDL
MODEL 2
REMARK VINA RESULT:    -7.511      1.419      2.004
REMARK INTER + INTRA:         -11.318
REMARK INTER:                 -10.491
REMARK INTRA:                  -0.827
REMARK UNBOUND:                -1.172
REMARK  Name = 
REMARK  7 active torsions:
REMARK  status: ('A' for Active; 'I' for Inactive)
REMARK    1  A    between atoms: C_1  and  C_2
REMARK    2  A    between atoms: C_2  and  N_3
REMARK    3  A    between atoms: C_2  and  C_16
REMARK    4  A    between atoms: C_4  and  C_6
REMARK    5  A    between atoms: C_19  and  C_20
REMARK    6  A    between atoms: C_20  and  N_21
REMARK    7  A    between atoms: C_22  and  C_24
REMARK                            x       y       z     vdW  Elec       q    Type
REMARK                         _______ _______ _______ _____ _____    ______ ____
ROOT
ATOM      1  C   UNL     1      47.752   9.462  13.289  0.00  0.00    +0.000 C 
ATOM      2  C   UNL     1      47.910   7.961  13.587  0.00  0.00    +0.000 C 
ENDROOT
BRANCH   2   3
ATOM      3  C   UNL     1      46.810   7.176  12.884  0.00  0.00    +0.000 A 
ATOM      4  C   UNL     1      46.772   5.777  12.970  0.00  0.00    +0.000 A 
ATOM      5  C   UNL     1      45.804   5.039  12.274  0.00  0.00    +0.000 A 
ATOM      6  C   UNL     1      44.854   5.682  11.469  0.00  0.00    +0.000 A 
ATOM      7  C   UNL     1      44.867   7.083  11.412  0.00  0.00    +0.000 A 
ATOM      8  C   UNL     1      45.831   7.819  12.110  0.00  0.00    +0.000 A 
BRANCH   6   9
ATOM      9  C   UNL     1      43.874   4.896  10.634  0.00  0.00    +0.000 C 
BRANCH   9  10
ATOM     10  N   UNL     1      44.480   3.847   9.852  0.00  0.00    +0.000 N 
ATOM     11  C   UNL     1      45.394   4.152   8.861  0.00  0.00    +0.000 C 
ATOM     12  O   UNL     1      45.731   5.300   8.582  0.00  0.00    +0.000 OA
ATOM     13  H   UNL     1      44.370   2.871  10.111  0.00  0.00    +0.000 HD
BRANCH  11  14
ATOM     14  C   UNL     1      45.979   2.992   8.127  0.00  0.00    +0.000 A 
ATOM     15  C   UNL     1      45.850   1.707   8.645  0.00  0.00    +0.000 A 
ATOM     16  N   UNL     1      46.360   0.616   8.014  0.00  0.00    +0.000 NA
ATOM     17  C   UNL     1      47.001   0.869   6.850  0.00  0.00    +0.000 A 
ATOM     18  C   UNL     1      47.133   2.151   6.337  0.00  0.00    +0.000 A 
ATOM     19  N   UNL     1      46.625   3.247   6.952  0.00  0.00    +0.000 NA
ENDBRANCH  11  14
ENDBRANCH   9  10
ENDBRANCH   6   9
ENDBRANCH   2   3
BRANCH   2  20
ATOM     20  N   UNL     1      47.916   7.670  15.014  0.00  0.00    +0.000 N 
ATOM     21  C   UNL     1      48.998   7.073  15.616  0.00  0.00    +0.000 C 
ATOM     22  O   UNL     1      50.022   6.794  15.001  0.00  0.00    +0.000 OA
ATOM     23  H   UNL     1      47.007   7.566  15.461  0.00  0.00    +0.000 HD
BRANCH  21  24
ATOM     24  C   UNL     1      48.912   6.820  17.056  0.00  0.00    +0.000 A 
ATOM     25  C   UNL     1      49.103   7.871  17.942  0.00  0.00    +0.000 A 
ATOM     26  S   UNL     1      49.040   7.405  19.581  0.00  0.00    +0.000 S 
ATOM     27  C   UNL     1      48.786   5.778  19.159  0.00  0.00    +0.000 A 
ATOM     28  N   UNL     1      48.707   4.810  20.117  0.00  0.00    +0.000 NA
ATOM     29  C   UNL     1      48.547   3.619  19.650  0.00  0.00    +0.000 A 
ATOM     30  N   UNL     1      48.433   3.305  18.320  0.00  0.00    +0.000 N 
ATOM     31  C   UNL     1      48.456   4.252  17.324  0.00  0.00    +0.000 A 
ATOM     32  O   UNL     1      48.274   3.957  16.146  0.00  0.00    +0.000 OA
ATOM     33  C   UNL     1      48.693   5.601  17.789  0.00  0.00    +0.000 A 
ATOM     34  H   UNL     1      48.276   2.354  18.026  0.00  0.00    +0.000 HD
ENDBRANCH  21  24
ENDBRANCH   2  20
TORSDOF 6
ENDMDL
MODEL 3
REMARK VINA RESULT:    -6.997      3.016      4.563
REMARK INTER + INTRA:         -10.624
REMARK INTER:                  -9.406
REMARK INTRA:                  -1.218
REMARK UNBOUND:                -1.172
REMARK  Name = 
REMARK  7 active torsions:
REMARK  status: ('A' for Active; 'I' for Inactive)
REMARK    1  A    between atoms: C_1  and  C_2
REMARK    2  A    between atoms: C_2  and  N_3
REMARK    3  A    between atoms: C_2  and  C_16
REMARK    4  A    between atoms: C_4  and  C_6
REMARK    5  A    between atoms: C_19  and  C_20
REMARK    6  A    between atoms: C_20  and  N_21
REMARK    7  A    between atoms: C_22  and  C_24
REMARK                            x       y       z     vdW  Elec       q    Type
REMARK                         _______ _______ _______ _____ _____    ______ ____
ROOT
ATOM      1  C   UNL     1      47.430   4.203  15.672  0.00  0.00    +0.000 C 
ATOM      2  C   UNL     1      47.147   5.467  14.844  0.00  0.00    +0.000 C 
ENDROOT
BRANCH   2   3
ATOM      3  C   UNL     1      46.214   5.129  13.686  0.00  0.00    +0.000 A 
ATOM      4  C   UNL     1      46.067   3.802  13.259  0.00  0.00    +0.000 A 
ATOM      5  C   UNL     1      45.264   3.487  12.153  0.00  0.00    +0.000 A 
ATOM      6  C   UNL     1      44.595   4.493  11.443  0.00  0.00    +0.000 A 
ATOM      7  C   UNL     1      44.712   5.816  11.893  0.00  0.00    +0.000 A 
ATOM      8  C   UNL     1      45.510   6.129  12.999  0.00  0.00    +0.000 A 
BRANCH   6   9
ATOM      9  C   UNL     1      43.813   4.181  10.192  0.00  0.00    +0.000 C 
BRANCH   9  10
ATOM     10  N   UNL     1      44.558   3.438   9.205  0.00  0.00    +0.000 N 
ATOM     11  C   UNL     1      45.539   4.060   8.456  0.00  0.00    +0.000 C 
ATOM     12  O   UNL     1      45.824   5.250   8.570  0.00  0.00    +0.000 OA
ATOM     13  H   UNL     1      44.489   2.427   9.150  0.00  0.00    +0.000 HD
BRANCH  11  14
ATOM     14  C   UNL     1      46.266   3.197   7.480  0.00  0.00    +0.000 A 
ATOM     15  C   UNL     1      46.590   1.887   7.820  0.00  0.00    +0.000 A 
ATOM     16  N   UNL     1      47.248   1.057   6.965  0.00  0.00    +0.000 NA
ATOM     17  C   UNL     1      47.563   1.596   5.766  0.00  0.00    +0.000 A 
ATOM     18  C   UNL     1      47.244   2.904   5.431  0.00  0.00    +0.000 A 
ATOM     19  N   UNL     1      46.585   3.740   6.269  0.00  0.00    +0.000 NA
ENDBRANCH  11  14
ENDBRANCH   9  10
ENDBRANCH   6   9
ENDBRANCH   2   3
BRANCH   2  20
ATOM     20  N   UNL     1      48.363   6.100  14.353  0.00  0.00    +0.000 N 
ATOM     21  C   UNL     1      49.010   7.067  15.086  0.00  0.00    +0.000 C 
ATOM     22  O   UNL     1      48.627   7.415  16.198  0.00  0.00    +0.000 OA
ATOM     23  H   UNL     1      48.504   6.096  13.344  0.00  0.00    +0.000 HD
BRANCH  21  24
ATOM     24  C   UNL     1      50.226   7.646  14.512  0.00  0.00    +0.000 A 
ATOM     25  C   UNL     1      51.407   7.603  15.240  0.00  0.00    +0.000 A 
ATOM     26  S   UNL     1      52.716   8.376  14.467  0.00  0.00    +0.000 S 
ATOM     27  C   UNL     1      51.739   8.821  13.149  0.00  0.00    +0.000 A 
ATOM     28  N   UNL     1      52.238   9.581  12.133  0.00  0.00    +0.000 NA
ATOM     29  C   UNL     1      51.375   9.870  11.220  0.00  0.00    +0.000 A 
ATOM     30  N   UNL     1      50.070   9.451  11.211  0.00  0.00    +0.000 N 
ATOM     31  C   UNL     1      49.537   8.642  12.187  0.00  0.00    +0.000 A 
ATOM     32  O   UNL     1      48.388   8.215  12.118  0.00  0.00    +0.000 OA
ATOM     33  C   UNL     1      50.447   8.337  13.269  0.00  0.00    +0.000 A 
ATOM     34  H   UNL     1      49.456   9.687  10.446  0.00  0.00    +0.000 HD
ENDBRANCH  21  24
ENDBRANCH   2  20
TORSDOF 6
ENDMDL
MODEL 4
REMARK VINA RESULT:    -6.989      3.480      9.217
REMARK INTER + INTRA:         -10.613
REMARK INTER:                  -9.603
REMARK INTRA:                  -1.010
REMARK UNBOUND:                -1.172
REMARK  Name = 
REMARK  7 active torsions:
REMARK  status: ('A' for Active; 'I' for Inactive)
REMARK    1  A    between atoms: C_1  and  C_2
REMARK    2  A    between atoms: C_2  and  N_3
REMARK    3  A    between atoms: C_2  and  C_16
REMARK    4  A    between atoms: C_4  and  C_6
REMARK    5  A    between atoms: C_19  and  C_20
REMARK    6  A    between atoms: C_20  and  N_21
REMARK    7  A    between atoms: C_22  and  C_24
REMARK                            x       y       z     vdW  Elec       q    Type
REMARK                         _______ _______ _______ _____ _____    ______ ____
ROOT
ATOM      1  C   UNL     1      48.938   7.873  11.391  0.00  0.00    +0.000 C 
ATOM      2  C   UNL     1      47.948   7.554  12.524  0.00  0.00    +0.000 C 
ENDROOT
BRANCH   2   3
ATOM      3  C   UNL     1      48.701   7.384  13.838  0.00  0.00    +0.000 A 
ATOM      4  C   UNL     1      49.936   8.018  14.034  0.00  0.00    +0.000 A 
ATOM      5  C   UNL     1      50.670   7.815  15.211  0.00  0.00    +0.000 A 
ATOM      6  C   UNL     1      50.189   6.968  16.219  0.00  0.00    +0.000 A 
ATOM      7  C   UNL     1      48.937   6.364  16.041  0.00  0.00    +0.000 A 
ATOM      8  C   UNL     1      48.204   6.569  14.867  0.00  0.00    +0.000 A 
BRANCH   6   9
ATOM      9  C   UNL     1      51.015   6.661  17.443  0.00  0.00    +0.000 C 
BRANCH   9  10
ATOM     10  N   UNL     1      51.635   5.359  17.421  0.00  0.00    +0.000 N 
ATOM     11  C   UNL     1      51.092   4.313  18.143  0.00  0.00    +0.000 C 
ATOM     12  O   UNL     1      50.085   4.423  18.837  0.00  0.00    +0.000 OA
ATOM     13  H   UNL     1      52.379   5.146  16.764  0.00  0.00    +0.000 HD
BRANCH  11  14
ATOM     14  C   UNL     1      51.797   3.003  18.032  0.00  0.00    +0.000 A 
ATOM     15  C   UNL     1      51.166   1.925  17.419  0.00  0.00    +0.000 A 
ATOM     16  N   UNL     1      51.766   0.711  17.289  0.00  0.00    +0.000 NA
ATOM     17  C   UNL     1      53.016   0.628  17.796  0.00  0.00    +0.000 A 
ATOM     18  C   UNL     1      53.643   1.703  18.412  0.00  0.00    +0.000 A 
ATOM     19  N   UNL     1      53.059   2.919  18.544  0.00  0.00    +0.000 NA
ENDBRANCH  11  14
ENDBRANCH   9  10
ENDBRANCH   6   9
ENDBRANCH   2   3
BRANCH   2  20
ATOM     20  N   UNL     1      47.136   6.377  12.244  0.00  0.00    +0.000 N 
ATOM     21  C   UNL     1      45.811   6.492  11.893  0.00  0.00    +0.000 C 
ATOM     22  O   UNL     1      45.258   7.578  11.757  0.00  0.00    +0.000 OA
ATOM     23  H   UNL     1      47.440   5.502  12.667  0.00  0.00    +0.000 HD
BRANCH  21  24
ATOM     24  C   UNL     1      45.075   5.253  11.630  0.00  0.00    +0.000 A 
ATOM     25  C   UNL     1      44.336   4.673  12.651  0.00  0.00    +0.000 A 
ATOM     26  S   UNL     1      43.593   3.204  12.208  0.00  0.00    +0.000 S 
ATOM     27  C   UNL     1      44.260   3.280  10.646  0.00  0.00    +0.000 A 
ATOM     28  N   UNL     1      44.064   2.270   9.751  0.00  0.00    +0.000 NA
ATOM     29  C   UNL     1      44.656   2.448   8.620  0.00  0.00    +0.000 A 
ATOM     30  N   UNL     1      45.404   3.548   8.288  0.00  0.00    +0.000 N 
ATOM     31  C   UNL     1      45.586   4.612   9.140  0.00  0.00    +0.000 A 
ATOM     32  O   UNL     1      46.194   5.622   8.793  0.00  0.00    +0.000 OA
ATOM     33  C   UNL     1      44.991   4.438  10.447  0.00  0.00    +0.000 A 
ATOM     34  H   UNL     1      45.813   3.637   7.371  0.00  0.00    +0.000 HD
ENDBRANCH  21  24
ENDBRANCH   2  20
TORSDOF 6
ENDMDL
MODEL 5
REMARK VINA RESULT:    -6.680      3.634      8.491
REMARK INTER + INTRA:         -10.195
REMARK INTER:                  -9.044
REMARK INTRA:                  -1.151
REMARK UNBOUND:                -1.172
REMARK  Name = 
REMARK  7 active torsions:
REMARK  status: ('A' for Active; 'I' for Inactive)
REMARK    1  A    between atoms: C_1  and  C_2
REMARK    2  A    between atoms: C_2  and  N_3
REMARK    3  A    between atoms: C_2  and  C_16
REMARK    4  A    between atoms: C_4  and  C_6
REMARK    5  A    between atoms: C_19  and  C_20
REMARK    6  A    between atoms: C_20  and  N_21
REMARK    7  A    between atoms: C_22  and  C_24
REMARK                            x       y       z     vdW  Elec       q    Type
REMARK                         _______ _______ _______ _____ _____    ______ ____
ROOT
ATOM      1  C   UNL     1      49.516   9.171  11.530  0.00  0.00    +0.000 C 
ATOM      2  C   UNL     1      48.341   8.602  12.342  0.00  0.00    +0.000 C 
ENDROOT
BRANCH   2   3
ATOM      3  C   UNL     1      48.802   8.271  13.757  0.00  0.00    +0.000 A 
ATOM      4  C   UNL     1      50.022   7.613  13.969  0.00  0.00    +0.000 A 
ATOM      5  C   UNL     1      50.424   7.243  15.260  0.00  0.00    +0.000 A 
ATOM      6  C   UNL     1      49.613   7.516  16.370  0.00  0.00    +0.000 A 
ATOM      7  C   UNL     1      48.412   8.207  16.163  0.00  0.00    +0.000 A 
ATOM      8  C   UNL     1      48.012   8.579  14.875  0.00  0.00    +0.000 A 
BRANCH   6   9
ATOM      9  C   UNL     1      49.986   7.033  17.749  0.00  0.00    +0.000 C 
BRANCH   9  10
ATOM     10  N   UNL     1      50.733   5.799  17.756  0.00  0.00    +0.000 N 
ATOM     11  C   UNL     1      50.076   4.583  17.724  0.00  0.00    +0.000 C 
ATOM     12  O   UNL     1      48.853   4.477  17.699  0.00  0.00    +0.000 OA
ATOM     13  H   UNL     1      51.740   5.797  17.629  0.00  0.00    +0.000 HD
BRANCH  11  14
ATOM     14  C   UNL     1      50.943   3.369  17.710  0.00  0.00    +0.000 A 
ATOM     15  C   UNL     1      50.433   2.157  17.254  0.00  0.00    +0.000 A 
ATOM     16  N   UNL     1      51.182   1.022  17.216  0.00  0.00    +0.000 NA
ATOM     17  C   UNL     1      52.454   1.156  17.655  0.00  0.00    +0.000 A 
ATOM     18  C   UNL     1      52.960   2.364  18.114  0.00  0.00    +0.000 A 
ATOM     19  N   UNL     1      52.228   3.503  18.152  0.00  0.00    +0.000 NA
ENDBRANCH  11  14
ENDBRANCH   9  10
ENDBRANCH   6   9
ENDBRANCH   2   3
BRANCH   2  20
ATOM     20  N   UNL     1      47.737   7.435  11.714  0.00  0.00    +0.000 N 
ATOM     21  C   UNL     1      46.377   7.233  11.743  0.00  0.00    +0.000 C 
ATOM     22  O   UNL     1      45.604   8.034  12.255  0.00  0.00    +0.000 OA
ATOM     23  H   UNL     1      48.336   6.619  11.598  0.00  0.00    +0.000 HD
BRANCH  21  24
ATOM     24  C   UNL     1      45.861   6.031  11.083  0.00  0.00    +0.000 A 
ATOM     25  C   UNL     1      46.038   5.880   9.715  0.00  0.00    +0.000 A 
ATOM     26  S   UNL     1      45.324   4.465   9.086  0.00  0.00    +0.000 S 
ATOM     27  C   UNL     1      44.730   4.025  10.616  0.00  0.00    +0.000 A 
ATOM     28  N   UNL     1      43.953   2.915  10.773  0.00  0.00    +0.000 NA
ATOM     29  C   UNL     1      43.546   2.724  11.981  0.00  0.00    +0.000 A 
ATOM     30  N   UNL     1      43.862   3.520  13.052  0.00  0.00    +0.000 N 
ATOM     31  C   UNL     1      44.682   4.619  12.950  0.00  0.00    +0.000 A 
ATOM     32  O   UNL     1      45.014   5.272  13.936  0.00  0.00    +0.000 OA
ATOM     33  C   UNL     1      45.119   4.914  11.603  0.00  0.00    +0.000 A 
ATOM     34  H   UNL     1      43.535   3.293  13.979  0.00  0.00    +0.000 HD
ENDBRANCH  21  24
ENDBRANCH   2  20
TORSDOF 6
ENDMDL
MODEL 6
REMARK VINA RESULT:    -6.677      4.803      8.061
REMARK INTER + INTRA:         -10.191
REMARK INTER:                  -9.220
REMARK INTRA:                  -0.970
REMARK UNBOUND:                -1.172
REMARK  Name = 
REMARK  7 active torsions:
REMARK  status: ('A' for Active; 'I' for Inactive)
REMARK    1  A    between atoms: C_1  and  C_2
REMARK    2  A    between atoms: C_2  and  N_3
REMARK    3  A    between atoms: C_2  and  C_16
REMARK    4  A    between atoms: C_4  and  C_6
REMARK    5  A    between atoms: C_19  and  C_20
REMARK    6  A    between atoms: C_20  and  N_21
REMARK    7  A    between atoms: C_22  and  C_24
REMARK                            x       y       z     vdW  Elec       q    Type
REMARK                         _______ _______ _______ _____ _____    ______ ____
ROOT
ATOM      1  C   UNL     1      45.105   9.599  12.005  0.00  0.00    +0.000 C 
ATOM      2  C   UNL     1      45.843   8.322  12.441  0.00  0.00    +0.000 C 
ENDROOT
BRANCH   2   3
ATOM      3  C   UNL     1      47.336   8.470  12.173  0.00  0.00    +0.000 A 
ATOM      4  C   UNL     1      47.886   9.730  11.900  0.00  0.00    +0.000 A 
ATOM      5  C   UNL     1      49.245   9.869  11.585  0.00  0.00    +0.000 A 
ATOM      6  C   UNL     1      50.087   8.749  11.530  0.00  0.00    +0.000 A 
ATOM      7  C   UNL     1      49.546   7.494  11.840  0.00  0.00    +0.000 A 
ATOM      8  C   UNL     1      48.190   7.356  12.157  0.00  0.00    +0.000 A 
BRANCH   6   9
ATOM      9  C   UNL     1      51.525   8.871  11.094  0.00  0.00    +0.000 C 
BRANCH   9  10
ATOM     10  N   UNL     1      51.885   7.993  10.008  0.00  0.00    +0.000 N 
ATOM     11  C   UNL     1      53.051   7.253  10.064  0.00  0.00    +0.000 C 
ATOM     12  O   UNL     1      53.838   7.302  11.006  0.00  0.00    +0.000 OA
ATOM     13  H   UNL     1      51.226   7.783   9.265  0.00  0.00    +0.000 HD
BRANCH  11  14
ATOM     14  C   UNL     1      53.318   6.358   8.900  0.00  0.00    +0.000 A 
ATOM     15  C   UNL     1      52.534   6.458   7.755  0.00  0.00    +0.000 A 
ATOM     16  N   UNL     1      52.738   5.669   6.665  0.00  0.00    +0.000 NA
ATOM     17  C   UNL     1      53.753   4.784   6.775  0.00  0.00    +0.000 A 
ATOM     18  C   UNL     1      54.531   4.682   7.920  0.00  0.00    +0.000 A 
ATOM     19  N   UNL     1      54.343   5.464   9.011  0.00  0.00    +0.000 NA
ENDBRANCH  11  14
ENDBRANCH   9  10
ENDBRANCH   6   9
ENDBRANCH   2   3
BRANCH   2  20
ATOM     20  N   UNL     1      45.322   7.125  11.794  0.00  0.00    +0.000 N 
ATOM     21  C   UNL     1      45.258   5.925  12.462  0.00  0.00    +0.000 C 
ATOM     22  O   UNL     1      45.591   5.806  13.636  0.00  0.00    +0.000 OA
ATOM     23  H   UNL     1      45.368   7.101  10.777  0.00  0.00    +0.000 HD
BRANCH  21  24
ATOM     24  C   UNL     1      44.719   4.776  11.730  0.00  0.00    +0.000 A 
ATOM     25  C   UNL     1      43.893   3.878  12.391  0.00  0.00    +0.000 A 
ATOM     26  S   UNL     1      43.402   2.562  11.425  0.00  0.00    +0.000 S 
ATOM     27  C   UNL     1      44.303   3.133  10.101  0.00  0.00    +0.000 A 
ATOM     28  N   UNL     1      44.372   2.420   8.941  0.00  0.00    +0.000 NA
ATOM     29  C   UNL     1      45.118   2.957   8.037  0.00  0.00    +0.000 A 
ATOM     30  N   UNL     1      45.781   4.150   8.172  0.00  0.00    +0.000 N 
ATOM     31  C   UNL     1      45.700   4.926   9.304  0.00  0.00    +0.000 A 
ATOM     32  O   UNL     1      46.240   6.028   9.373  0.00  0.00    +0.000 OA
ATOM     33  C   UNL     1      44.923   4.340  10.374  0.00  0.00    +0.000 A 
ATOM     34  H   UNL     1      46.323   4.529   7.410  0.00  0.00    +0.000 HD
ENDBRANCH  21  24
ENDBRANCH   2  20
TORSDOF 6
ENDMDL
MODEL 7
REMARK VINA RESULT:    -6.338      3.511      5.077
REMARK INTER + INTRA:          -9.733
REMARK INTER:                  -8.529
REMARK INTRA:                  -1.204
REMARK UNBOUND:                -1.172
REMARK  Name = 
REMARK  7 active torsions:
REMARK  status: ('A' for Active; 'I' for Inactive)
REMARK    1  A    between atoms: C_1  and  C_2
REMARK    2  A    between atoms: C_2  and  N_3
REMARK    3  A    between atoms: C_2  and  C_16
REMARK    4  A    between atoms: C_4  and  C_6
REMARK    5  A    between atoms: C_19  and  C_20
REMARK    6  A    between atoms: C_20  and  N_21
REMARK    7  A    between atoms: C_22  and  C_24
REMARK                            x       y       z     vdW  Elec       q    Type
REMARK                         _______ _______ _______ _____ _____    ______ ____
ROOT
ATOM      1  C   UNL     1      48.488   5.942  15.688  0.00  0.00    +0.000 C 
ATOM      2  C   UNL     1      48.209   6.985  14.593  0.00  0.00    +0.000 C 
ENDROOT
BRANCH   2   3
ATOM      3  C   UNL     1      47.121   6.474  13.656  0.00  0.00    +0.000 A 
ATOM      4  C   UNL     1      46.798   5.109  13.622  0.00  0.00    +0.000 A 
ATOM      5  C   UNL     1      45.846   4.618  12.717  0.00  0.00    +0.000 A 
ATOM      6  C   UNL     1      45.197   5.478  11.821  0.00  0.00    +0.000 A 
ATOM      7  C   UNL     1      45.491   6.848  11.881  0.00  0.00    +0.000 A 
ATOM      8  C   UNL     1      46.439   7.338  12.786  0.00  0.00    +0.000 A 
BRANCH   6   9
ATOM      9  C   UNL     1      44.249   4.949  10.775  0.00  0.00    +0.000 C 
BRANCH   9  10
ATOM     10  N   UNL     1      44.796   3.880   9.975  0.00  0.00    +0.000 N 
ATOM     11  C   UNL     1      45.581   4.164   8.873  0.00  0.00    +0.000 C 
ATOM     12  O   UNL     1      45.847   5.306   8.509  0.00  0.00    +0.000 OA
ATOM     13  H   UNL     1      44.748   2.916  10.287  0.00  0.00    +0.000 HD
BRANCH  11  14
ATOM     14  C   UNL     1      46.116   2.987   8.128  0.00  0.00    +0.000 A 
ATOM     15  C   UNL     1      45.882   1.700   8.603  0.00  0.00    +0.000 A 
ATOM     16  N   UNL     1      46.343   0.594   7.960  0.00  0.00    +0.000 NA
ATOM     17  C   UNL     1      47.044   0.834   6.829  0.00  0.00    +0.000 A 
ATOM     18  C   UNL     1      47.282   2.118   6.360  0.00  0.00    +0.000 A 
ATOM     19  N   UNL     1      46.824   3.229   6.987  0.00  0.00    +0.000 NA
ENDBRANCH  11  14
ENDBRANCH   9  10
ENDBRANCH   6   9
ENDBRANCH   2   3
BRANCH   2  20
ATOM     20  N   UNL     1      49.405   7.341  13.841  0.00  0.00    +0.000 N 
ATOM     21  C   UNL     1      49.674   8.647  13.507  0.00  0.00    +0.000 C 
ATOM     22  O   UNL     1      48.955   9.577  13.855  0.00  0.00    +0.000 OA
ATOM     23  H   UNL     1      49.814   6.609  13.263  0.00  0.00    +0.000 HD
BRANCH  21  24
ATOM     24  C   UNL     1      50.901   8.910  12.750  0.00  0.00    +0.000 A 
ATOM     25  C   UNL     1      50.810   9.461  11.480  0.00  0.00    +0.000 A 
ATOM     26  S   UNL     1      52.316   9.643  10.703  0.00  0.00    +0.000 S 
ATOM     27  C   UNL     1      53.137   8.962  12.028  0.00  0.00    +0.000 A 
ATOM     28  N   UNL     1      54.485   8.761  11.988  0.00  0.00    +0.000 NA
ATOM     29  C   UNL     1      54.966   8.206  13.047  0.00  0.00    +0.000 A 
ATOM     30  N   UNL     1      54.233   7.856  14.153  0.00  0.00    +0.000 N 
ATOM     31  C   UNL     1      52.882   8.086  14.257  0.00  0.00    +0.000 A 
ATOM     32  O   UNL     1      52.260   7.836  15.287  0.00  0.00    +0.000 OA
ATOM     33  C   UNL     1      52.280   8.653  13.070  0.00  0.00    +0.000 A 
ATOM     34  H   UNL     1      54.680   7.455  14.963  0.00  0.00    +0.000 HD
ENDBRANCH  21  24
ENDBRANCH   2  20
TORSDOF 6
ENDMDL
MODEL 8
REMARK VINA RESULT:    -5.590      4.458      7.248
REMARK INTER + INTRA:          -8.723
REMARK INTER:                  -7.421
REMARK INTRA:                  -1.303
REMARK UNBOUND:                -1.172
REMARK  Name = 
REMARK  7 active torsions:
REMARK  status: ('A' for Active; 'I' for Inactive)
REMARK    1  A    between atoms: C_1  and  C_2
REMARK    2  A    between atoms: C_2  and  N_3
REMARK    3  A    between atoms: C_2  and  C_16
REMARK    4  A    between atoms: C_4  and  C_6
REMARK    5  A    between atoms: C_19  and  C_20
REMARK    6  A    between atoms: C_20  and  N_21
REMARK    7  A    between atoms: C_22  and  C_24
REMARK                            x       y       z     vdW  Elec       q    Type
REMARK                         _______ _______ _______ _____ _____    ______ ____
ROOT
ATOM      1  C   UNL     1      53.728   5.439  17.668  0.00  0.00    +0.000 C 
ATOM      2  C   UNL     1      52.673   6.419  17.129  0.00  0.00    +0.000 C 
ENDROOT
BRANCH   2   3
ATOM      3  C   UNL     1      51.298   5.761  17.149  0.00  0.00    +0.000 A 
ATOM      4  C   UNL     1      51.167   4.402  17.466  0.00  0.00    +0.000 A 
ATOM      5  C   UNL     1      49.915   3.771  17.422  0.00  0.00    +0.000 A 
ATOM      6  C   UNL     1      48.765   4.482  17.054  0.00  0.00    +0.000 A 
ATOM      7  C   UNL     1      48.889   5.850  16.775  0.00  0.00    +0.000 A 
ATOM      8  C   UNL     1      50.138   6.481  16.822  0.00  0.00    +0.000 A 
BRANCH   6   9
ATOM      9  C   UNL     1      47.433   3.793  16.903  0.00  0.00    +0.000 C 
BRANCH   9  10
ATOM     10  N   UNL     1      46.579   4.380  15.899  0.00  0.00    +0.000 N 
ATOM     11  C   UNL     1      46.755   4.068  14.564  0.00  0.00    +0.000 C 
ATOM     12  O   UNL     1      47.626   3.305  14.157  0.00  0.00    +0.000 OA
ATOM     13  H   UNL     1      45.748   4.902  16.159  0.00  0.00    +0.000 HD
BRANCH  11  14
ATOM     14  C   UNL     1      45.804   4.711  13.610  0.00  0.00    +0.000 A 
ATOM     15  C   UNL     1      46.117   5.943  13.043  0.00  0.00    +0.000 A 
ATOM     16  N   UNL     1      45.289   6.569  12.164  0.00  0.00    +0.000 NA
ATOM     17  C   UNL     1      44.142   5.911  11.883  0.00  0.00    +0.000 A 
ATOM     18  C   UNL     1      43.829   4.685  12.454  0.00  0.00    +0.000 A 
ATOM     19  N   UNL     1      44.646   4.047  13.325  0.00  0.00    +0.000 NA
ENDBRANCH  11  14
ENDBRANCH   9  10
ENDBRANCH   6   9
ENDBRANCH   2   3
BRANCH   2  20
ATOM     20  N   UNL     1      52.989   6.904  15.793  0.00  0.00    +0.000 N 
ATOM     21  C   UNL     1      53.253   8.233  15.561  0.00  0.00    +0.000 C 
ATOM     22  O   UNL     1      53.278   9.066  16.460  0.00  0.00    +0.000 OA
ATOM     23  H   UNL     1      52.648   6.345  15.013  0.00  0.00    +0.000 HD
BRANCH  21  24
ATOM     24  C   UNL     1      53.561   8.628  14.184  0.00  0.00    +0.000 A 
ATOM     25  C   UNL     1      54.857   9.005  13.861  0.00  0.00    +0.000 A 
ATOM     26  S   UNL     1      55.041   9.500  12.240  0.00  0.00    +0.000 S 
ATOM     27  C   UNL     1      53.388   9.255  11.926  0.00  0.00    +0.000 A 
ATOM     28  N   UNL     1      52.854   9.560  10.708  0.00  0.00    +0.000 NA
ATOM     29  C   UNL     1      51.584   9.356  10.625  0.00  0.00    +0.000 A 
ATOM     30  N   UNL     1      50.801   8.852  11.632  0.00  0.00    +0.000 N 
ATOM     31  C   UNL     1      51.305   8.484  12.857  0.00  0.00    +0.000 A 
ATOM     32  O   UNL     1      50.599   7.962  13.717  0.00  0.00    +0.000 OA
ATOM     33  C   UNL     1      52.717   8.749  13.025  0.00  0.00    +0.000 A 
ATOM     34  H   UNL     1      49.817   8.686  11.487  0.00  0.00    +0.000 HD
ENDBRANCH  21  24
ENDBRANCH   2  20
TORSDOF 6
ENDMDL
MODEL 9
REMARK VINA RESULT:    -5.531      5.527      7.869
REMARK INTER + INTRA:          -8.644
REMARK INTER:                  -7.539
REMARK INTRA:                  -1.104
REMARK UNBOUND:                -1.172
REMARK  Name = 
REMARK  7 active torsions:
REMARK  status: ('A' for Active; 'I' for Inactive)
REMARK    1  A    between atoms: C_1  and  C_2
REMARK    2  A    between atoms: C_2  and  N_3
REMARK    3  A    between atoms: C_2  and  C_16
REMARK    4  A    between atoms: C_4  and  C_6
REMARK    5  A    between atoms: C_19  and  C_20
REMARK    6  A    between atoms: C_20  and  N_21
REMARK    7  A    between atoms: C_22  and  C_24
REMARK                            x       y       z     vdW  Elec       q    Type
REMARK                         _______ _______ _______ _____ _____    ______ ____
ROOT
ATOM      1  C   UNL     1      46.301  11.078  11.650  0.00  0.00    +0.000 C 
ATOM      2  C   UNL     1      47.338  10.089  12.204  0.00  0.00    +0.000 C 
ENDROOT
BRANCH   2   3
ATOM      3  C   UNL     1      48.664  10.265  11.474  0.00  0.00    +0.000 A 
ATOM      4  C   UNL     1      49.733   9.392  11.722  0.00  0.00    +0.000 A 
ATOM      5  C   UNL     1      50.977   9.585  11.106  0.00  0.00    +0.000 A 
ATOM      6  C   UNL     1      51.186  10.660  10.231  0.00  0.00    +0.000 A 
ATOM      7  C   UNL     1      50.108  11.511   9.953  0.00  0.00    +0.000 A 
ATOM      8  C   UNL     1      48.865  11.317  10.565  0.00  0.00    +0.000 A 
BRANCH   6   9
ATOM      9  C   UNL     1      52.547  10.938   9.644  0.00  0.00    +0.000 C 
BRANCH   9  10
ATOM     10  N   UNL     1      53.094   9.839   8.887  0.00  0.00    +0.000 N 
ATOM     11  C   UNL     1      52.993   9.821   7.508  0.00  0.00    +0.000 C 
ATOM     12  O   UNL     1      52.439  10.705   6.859  0.00  0.00    +0.000 OA
ATOM     13  H   UNL     1      53.691   9.147   9.327  0.00  0.00    +0.000 HD
BRANCH  11  14
ATOM     14  C   UNL     1      53.612   8.651   6.820  0.00  0.00    +0.000 A 
ATOM     15  C   UNL     1      53.343   8.414   5.475  0.00  0.00    +0.000 A 
ATOM     16  N   UNL     1      53.885   7.365   4.800  0.00  0.00    +0.000 NA
ATOM     17  C   UNL     1      54.701   6.570   5.528  0.00  0.00    +0.000 A 
ATOM     18  C   UNL     1      54.964   6.804   6.870  0.00  0.00    +0.000 A 
ATOM     19  N   UNL     1      54.436   7.848   7.554  0.00  0.00    +0.000 NA
ENDBRANCH  11  14
ENDBRANCH   9  10
ENDBRANCH   6   9
ENDBRANCH   2   3
BRANCH   2  20
ATOM     20  N   UNL     1      46.891   8.705  12.126  0.00  0.00    +0.000 N 
ATOM     21  C   UNL     1      46.918   7.883  13.228  0.00  0.00    +0.000 C 
ATOM     22  O   UNL     1      47.274   8.277  14.334  0.00  0.00    +0.000 OA
ATOM     23  H   UNL     1      46.924   8.267  11.207  0.00  0.00    +0.000 HD
BRANCH  21  24
ATOM     24  C   UNL     1      46.448   6.507  13.054  0.00  0.00    +0.000 A 
ATOM     25  C   UNL     1      47.129   5.473  13.680  0.00  0.00    +0.000 A 
ATOM     26  S   UNL     1      46.502   3.927  13.327  0.00  0.00    +0.000 S 
ATOM     27  C   UNL     1      45.319   4.588  12.301  0.00  0.00    +0.000 A 
ATOM     28  N   UNL     1      44.466   3.782  11.606  0.00  0.00    +0.000 NA
ATOM     29  C   UNL     1      43.645   4.419  10.842  0.00  0.00    +0.000 A 
ATOM     30  N   UNL     1      43.578   5.784  10.725  0.00  0.00    +0.000 N 
ATOM     31  C   UNL     1      44.383   6.636  11.444  0.00  0.00    +0.000 A 
ATOM     32  O   UNL     1      44.252   7.856  11.382  0.00  0.00    +0.000 OA
ATOM     33  C   UNL     1      45.364   5.971  12.273  0.00  0.00    +0.000 A 
ATOM     34  H   UNL     1      42.887   6.218  10.133  0.00  0.00    +0.000 HD
ENDBRANCH  21  24
ENDBRANCH   2  20
TORSDOF 6
ENDMDL
