MODEL 1
REMARK VINA RESULT:    -7.788      0.000      0.000
REMARK INTER + INTRA:         -12.244
REMARK INTER:                 -10.975
REMARK INTRA:                  -1.269
REMARK UNBOUND:                -1.269
REMARK  Name = 
REMARK  9 active torsions:
REMARK  status: ('A' for Active; 'I' for Inactive)
REMARK    1  A    between atoms: C_1  and  C_2
REMARK    2  A    between atoms: C_2  and  N_3
REMARK    3  A    between atoms: C_2  and  C_26
REMARK    4  A    between atoms: N_3  and  C_4
REMARK    5  A    between atoms: C_4  and  C_5
REMARK    6  A    between atoms: C_8  and  C_9
REMARK    7  A    between atoms: C_9  and  N_10
REMARK    8  A    between atoms: N_10  and  C_11
REMARK    9  A    between atoms: C_12  and  C_14
REMARK                            x       y       z     vdW  Elec       q    Type
REMARK                         _______ _______ _______ _____ _____    ______ ____
ROOT
ATOM      1  C   UNL     1      45.709   5.815  11.909  0.00  0.00    +0.000 A 
ATOM      2  C   UNL     1      46.100   5.332  13.165  0.00  0.00    +0.000 A 
ATOM      3  C   UNL     1      47.300   5.749  13.753  0.00  0.00    +0.000 A 
ATOM      4  C   UNL     1      48.132   6.676  13.112  0.00  0.00    +0.000 A 
ATOM      5  C   UNL     1      47.783   7.102  11.823  0.00  0.00    +0.000 A 
ATOM      6  C   UNL     1      46.584   6.677  11.231  0.00  0.00    +0.000 A 
ENDROOT
BRANCH   1   7
ATOM      7  C   UNL     1      44.390   5.394  11.286  0.00  0.00    +0.000 C 
BRANCH   7   8
ATOM      8  N   UNL     1      44.520   5.085   9.860  0.00  0.00    +0.000 NA
ATOM      9  H   UNL     1      43.908   5.705   9.332  0.00  0.00    +0.000 HD
BRANCH   8  11
ATOM     10  C   UNL     1      43.902   2.830  10.748  0.00  0.00    +0.000 C 
ATOM     11  C   UNL     1      44.164   3.694   9.510  0.00  0.00    +0.000 C 
BRANCH  11  12
ATOM     12  C   UNL     1      45.263   3.056   8.671  0.00  0.00    +0.000 A 
ATOM     13  C   UNL     1      46.056   3.799   7.787  0.00  0.00    +0.000 A 
ATOM     14  C   UNL     1      47.029   3.164   7.018  0.00  0.00    +0.000 A 
ATOM     15  C   UNL     1      47.204   1.802   7.175  0.00  0.00    +0.000 A 
ATOM     16  N   UNL     1      46.489   1.051   8.041  0.00  0.00    +0.000 NA
ATOM     17  C   UNL     1      45.543   1.693   8.768  0.00  0.00    +0.000 A 
ENDBRANCH  11  12
ENDBRANCH   8  11
ENDBRANCH   7   8
ENDBRANCH   1   7
BRANCH   4  18
ATOM     18  C   UNL     1      49.292   7.317  13.849  0.00  0.00    +0.000 C 
BRANCH  18  19
ATOM     19  N   UNL     1      49.066   7.672  15.249  0.00  0.00    +0.000 N 
ATOM     20  C   UNL     1      48.239   8.843  15.506  0.00  0.00    +0.000 C 
ATOM     21  C   UNL     1      49.862   7.032  16.220  0.00  0.00    +0.000 C 
ATOM     22  O   UNL     1      50.675   6.167  15.913  0.00  0.00    +0.000 OA
BRANCH  21  23
ATOM     23  C   UNL     1      49.678   7.385  17.642  0.00  0.00    +0.000 A 
ATOM     24  C   UNL     1      50.311   8.448  18.269  0.00  0.00    +0.000 A 
ATOM     25  S   UNL     1      49.894   8.629  19.910  0.00  0.00    +0.000 S 
ATOM     26  C   UNL     1      48.729   7.393  19.799  0.00  0.00    +0.000 A 
ATOM     27  N   UNL     1      47.930   7.107  20.857  0.00  0.00    +0.000 NA
ATOM     28  C   UNL     1      47.063   6.176  20.623  0.00  0.00    +0.000 A 
ATOM     29  N   UNL     1      46.960   5.485  19.442  0.00  0.00    +0.000 N 
ATOM     30  C   UNL     1      47.840   5.651  18.391  0.00  0.00    +0.000 A 
ATOM     31  O   UNL     1      47.856   4.854  17.461  0.00  0.00    +0.000 OA
ATOM     32  C   UNL     1      48.747   6.772  18.562  0.00  0.00    +0.000 A 
ATOM     33  H   UNL     1      46.309   4.718  19.354  0.00  0.00    +0.000 HD
ENDBRANCH  21  23
ENDBRANCH  18  19
ENDBRANCH   4  18
TORSDOF 7
ENDMDL
MODEL 2
REMARK VINA RESULT:    -7.652      1.762      2.245
REMARK INTER + INTRA:         -12.053
REMARK INTER:                 -11.110
REMARK INTRA:                  -0.943
REMARK UNBOUND:                -1.269
REMARK  Name = 
REMARK  9 active torsions:
REMARK  status: ('A' for Active; 'I' for Inactive)
REMARK    1  A    between atoms: C_1  and  C_2
REMARK    2  A    between atoms: C_2  and  N_3
REMARK    3  A    between atoms: C_2  and  C_26
REMARK    4  A    between atoms: N_3  and  C_4
REMARK    5  A    between atoms: C_4  and  C_5
REMARK    6  A    between atoms: C_8  and  C_9
REMARK    7  A    between atoms: C_9  and  N_10
REMARK    8  A    between atoms: N_10  and  C_11
REMARK    9  A    between atoms: C_12  and  C_14
REMARK                            x       y       z     vdW  Elec       q    Type
REMARK                         _______ _______ _______ _____ _____    ______ ____
ROOT
ATOM      1  C   UNL     1      45.666   5.931  11.843  0.00  0.00    +0.000 A 
ATOM      2  C   UNL     1      46.386   7.132  11.904  0.00  0.00    +0.000 A 
ATOM      3  C   UNL     1      47.388   7.320  12.863  0.00  0.00    +0.000 A 
ATOM      4  C   UNL     1      47.715   6.305  13.772  0.00  0.00    +0.000 A 
ATOM      5  C   UNL     1      46.946   5.134  13.763  0.00  0.00    +0.000 A 
ATOM      6  C   UNL     1      45.935   4.949  12.808  0.00  0.00    +0.000 A 
ENDROOT
BRANCH   1   7
ATOM      7  C   UNL     1      44.604   5.709  10.781  0.00  0.00    +0.000 C 
BRANCH   7   8
ATOM      8  N   UNL     1      45.160   5.158   9.543  0.00  0.00    +0.000 NA
ATOM      9  H   UNL     1      45.031   5.837   8.794  0.00  0.00    +0.000 HD
BRANCH   8  11
ATOM     10  C   UNL     1      43.961   3.094  10.292  0.00  0.00    +0.000 C 
ATOM     11  C   UNL     1      44.535   3.890   9.114  0.00  0.00    +0.000 C 
BRANCH  11  12
ATOM     12  C   UNL     1      45.539   3.026   8.362  0.00  0.00    +0.000 A 
ATOM     13  C   UNL     1      46.387   3.551   7.378  0.00  0.00    +0.000 A 
ATOM     14  C   UNL     1      47.268   2.714   6.696  0.00  0.00    +0.000 A 
ATOM     15  C   UNL     1      47.298   1.375   7.036  0.00  0.00    +0.000 A 
ATOM     16  N   UNL     1      46.527   0.832   8.003  0.00  0.00    +0.000 NA
ATOM     17  C   UNL     1      45.672   1.666   8.642  0.00  0.00    +0.000 A 
ENDBRANCH  11  12
ENDBRANCH   8  11
ENDBRANCH   7   8
ENDBRANCH   1   7
BRANCH   4  18
ATOM     18  C   UNL     1      48.958   6.408  14.635  0.00  0.00    +0.000 C 
BRANCH  18  19
ATOM     19  N   UNL     1      48.749   6.612  16.067  0.00  0.00    +0.000 N 
ATOM     20  C   UNL     1      48.820   7.984  16.553  0.00  0.00    +0.000 C 
ATOM     21  C   UNL     1      48.762   5.474  16.896  0.00  0.00    +0.000 C 
ATOM     22  O   UNL     1      48.885   4.345  16.433  0.00  0.00    +0.000 OA
BRANCH  21  23
ATOM     23  C   UNL     1      48.581   5.646  18.352  0.00  0.00    +0.000 A 
ATOM     24  C   UNL     1      47.379   5.987  18.953  0.00  0.00    +0.000 A 
ATOM     25  S   UNL     1      47.461   6.096  20.650  0.00  0.00    +0.000 S 
ATOM     26  C   UNL     1      49.068   5.532  20.655  0.00  0.00    +0.000 A 
ATOM     27  N   UNL     1      49.709   5.300  21.827  0.00  0.00    +0.000 NA
ATOM     28  C   UNL     1      50.908   4.835  21.685  0.00  0.00    +0.000 A 
ATOM     29  N   UNL     1      51.526   4.626  20.479  0.00  0.00    +0.000 N 
ATOM     30  C   UNL     1      50.959   4.975  19.269  0.00  0.00    +0.000 A 
ATOM     31  O   UNL     1      51.633   4.991  18.247  0.00  0.00    +0.000 OA
ATOM     32  C   UNL     1      49.569   5.381  19.374  0.00  0.00    +0.000 A 
ATOM     33  H   UNL     1      52.491   4.331  20.443  0.00  0.00    +0.000 HD
ENDBRANCH  21  23
ENDBRANCH  18  19
ENDBRANCH   4  18
TORSDOF 7
ENDMDL
MODEL 3
REMARK VINA RESULT:    -7.042      2.012      2.431
REMARK INTER + INTRA:         -11.193
REMARK INTER:                 -10.025
REMARK INTRA:                  -1.168
REMARK UNBOUND:                -1.269
REMARK  Name = 
REMARK  9 active torsions:
REMARK  status: ('A' for Active; 'I' for Inactive)
REMARK    1  A    between atoms: C_1  and  C_2
REMARK    2  A    between atoms: C_2  and  N_3
REMARK    3  A    between atoms: C_2  and  C_26
REMARK    4  A    between atoms: N_3  and  C_4
REMARK    5  A    between atoms: C_4  and  C_5
REMARK    6  A    between atoms: C_8  and  C_9
REMARK    7  A    between atoms: C_9  and  N_10
REMARK    8  A    between atoms: N_10  and  C_11
REMARK    9  A    between atoms: C_12  and  C_14
REMARK                            x       y       z     vdW  Elec       q    Type
REMARK                         _______ _______ _______ _____ _____    ______ ____
ROOT
ATOM      1  C   UNL     1      44.847   6.464  11.455  0.00  0.00    +0.000 A 
ATOM      2  C   UNL     1      44.622   7.793  11.835  0.00  0.00    +0.000 A 
ATOM      3  C   UNL     1      45.685   8.623  12.211  0.00  0.00    +0.000 A 
ATOM      4  C   UNL     1      47.005   8.154  12.195  0.00  0.00    +0.000 A 
ATOM      5  C   UNL     1      47.226   6.804  11.890  0.00  0.00    +0.000 A 
ATOM      6  C   UNL     1      46.158   5.970  11.523  0.00  0.00    +0.000 A 
ENDROOT
BRANCH   1   7
ATOM      7  C   UNL     1      43.701   5.573  11.012  0.00  0.00    +0.000 C 
BRANCH   7   8
ATOM      8  N   UNL     1      43.937   4.974   9.696  0.00  0.00    +0.000 NA
ATOM      9  H   UNL     1      43.188   5.259   9.066  0.00  0.00    +0.000 HD
BRANCH   8  11
ATOM     10  C   UNL     1      44.147   2.927  11.118  0.00  0.00    +0.000 C 
ATOM     11  C   UNL     1      43.981   3.497   9.704  0.00  0.00    +0.000 C 
BRANCH  11  12
ATOM     12  C   UNL     1      45.112   2.991   8.820  0.00  0.00    +0.000 A 
ATOM     13  C   UNL     1      45.854   3.845   7.993  0.00  0.00    +0.000 A 
ATOM     14  C   UNL     1      46.860   3.329   7.178  0.00  0.00    +0.000 A 
ATOM     15  C   UNL     1      47.118   1.973   7.233  0.00  0.00    +0.000 A 
ATOM     16  N   UNL     1      46.455   1.117   8.041  0.00  0.00    +0.000 NA
ATOM     17  C   UNL     1      45.475   1.644   8.814  0.00  0.00    +0.000 A 
ENDBRANCH  11  12
ENDBRANCH   8  11
ENDBRANCH   7   8
ENDBRANCH   1   7
BRANCH   4  18
ATOM     18  C   UNL     1      48.171   9.111  12.352  0.00  0.00    +0.000 C 
BRANCH  18  19
ATOM     19  N   UNL     1      49.231   8.709  13.275  0.00  0.00    +0.000 N 
ATOM     20  C   UNL     1      50.424   8.114  12.687  0.00  0.00    +0.000 C 
ATOM     21  C   UNL     1      48.922   8.679  14.649  0.00  0.00    +0.000 C 
ATOM     22  O   UNL     1      47.824   9.031  15.066  0.00  0.00    +0.000 OA
BRANCH  21  23
ATOM     23  C   UNL     1      49.961   8.253  15.608  0.00  0.00    +0.000 A 
ATOM     24  C   UNL     1      51.006   9.058  16.034  0.00  0.00    +0.000 A 
ATOM     25  S   UNL     1      52.043   8.308  17.158  0.00  0.00    +0.000 S 
ATOM     26  C   UNL     1      51.037   6.936  17.239  0.00  0.00    +0.000 A 
ATOM     27  N   UNL     1      51.313   5.935  18.112  0.00  0.00    +0.000 NA
ATOM     28  C   UNL     1      50.447   4.975  18.098  0.00  0.00    +0.000 A 
ATOM     29  N   UNL     1      49.362   4.914  17.261  0.00  0.00    +0.000 N 
ATOM     30  C   UNL     1      49.122   5.842  16.268  0.00  0.00    +0.000 A 
ATOM     31  O   UNL     1      48.287   5.624  15.399  0.00  0.00    +0.000 OA
ATOM     32  C   UNL     1      49.996   7.001  16.330  0.00  0.00    +0.000 A 
ATOM     33  H   UNL     1      48.768   4.097  17.252  0.00  0.00    +0.000 HD
ENDBRANCH  21  23
ENDBRANCH  18  19
ENDBRANCH   4  18
TORSDOF 7
ENDMDL
MODEL 4
REMARK VINA RESULT:    -7.002      3.453      3.950
REMARK INTER + INTRA:         -11.136
REMARK INTER:                 -10.112
REMARK INTRA:                  -1.025
REMARK UNBOUND:                -1.269
REMARK  Name = 
REMARK  9 active torsions:
REMARK  status: ('A' for Active; 'I' for Inactive)
REMARK    1  A    between atoms: C_1  and  C_2
REMARK    2  A    between atoms: C_2  and  N_3
REMARK    3  A    between atoms: C_2  and  C_26
REMARK    4  A    between atoms: N_3  and  C_4
REMARK    5  A    between atoms: C_4  and  C_5
REMARK    6  A    between atoms: C_8  and  C_9
REMARK    7  A    between atoms: C_9  and  N_10
REMARK    8  A    between atoms: N_10  and  C_11
REMARK    9  A    between atoms: C_12  and  C_14
REMARK                            x       y       z     vdW  Elec       q    Type
REMARK                         _______ _______ _______ _____ _____    ______ ____
ROOT
ATOM      1  C   UNL     1      47.095   6.469  13.134  0.00  0.00    +0.000 A 
ATOM      2  C   UNL     1      47.294   5.384  13.997  0.00  0.00    +0.000 A 
ATOM      3  C   UNL     1      48.043   5.526  15.171  0.00  0.00    +0.000 A 
ATOM      4  C   UNL     1      48.595   6.764  15.527  0.00  0.00    +0.000 A 
ATOM      5  C   UNL     1      48.464   7.832  14.630  0.00  0.00    +0.000 A 
ATOM      6  C   UNL     1      47.720   7.686  13.448  0.00  0.00    +0.000 A 
ENDROOT
BRANCH   1   7
ATOM      7  C   UNL     1      46.252   6.328  11.880  0.00  0.00    +0.000 C 
BRANCH   7   8
ATOM      8  N   UNL     1      45.221   5.295  12.015  0.00  0.00    +0.000 NA
ATOM      9  H   UNL     1      45.675   4.391  12.134  0.00  0.00    +0.000 HD
BRANCH   8  11
ATOM     10  C   UNL     1      42.895   4.776  11.255  0.00  0.00    +0.000 C 
ATOM     11  C   UNL     1      44.314   5.194  10.853  0.00  0.00    +0.000 C 
BRANCH  11  12
ATOM     12  C   UNL     1      44.861   4.207   9.831  0.00  0.00    +0.000 A 
ATOM     13  C   UNL     1      45.593   4.619   8.710  0.00  0.00    +0.000 A 
ATOM     14  C   UNL     1      46.047   3.680   7.786  0.00  0.00    +0.000 A 
ATOM     15  C   UNL     1      45.782   2.345   8.024  0.00  0.00    +0.000 A 
ATOM     16  N   UNL     1      45.113   1.897   9.109  0.00  0.00    +0.000 NA
ATOM     17  C   UNL     1      44.675   2.833   9.985  0.00  0.00    +0.000 A 
ENDBRANCH  11  12
ENDBRANCH   8  11
ENDBRANCH   7   8
ENDBRANCH   1   7
BRANCH   4  18
ATOM     18  C   UNL     1      49.183   6.983  16.908  0.00  0.00    +0.000 C 
BRANCH  18  19
ATOM     19  N   UNL     1      50.411   6.254  17.222  0.00  0.00    +0.000 N 
ATOM     20  C   UNL     1      51.567   6.518  16.375  0.00  0.00    +0.000 C 
ATOM     21  C   UNL     1      50.318   5.179  18.127  0.00  0.00    +0.000 C 
ATOM     22  O   UNL     1      49.260   4.897  18.679  0.00  0.00    +0.000 OA
BRANCH  21  23
ATOM     23  C   UNL     1      51.533   4.404  18.447  0.00  0.00    +0.000 A 
ATOM     24  C   UNL     1      52.548   4.854  19.278  0.00  0.00    +0.000 A 
ATOM     25  S   UNL     1      53.820   3.739  19.482  0.00  0.00    +0.000 S 
ATOM     26  C   UNL     1      52.981   2.550  18.597  0.00  0.00    +0.000 A 
ATOM     27  N   UNL     1      53.489   1.299  18.478  0.00  0.00    +0.000 NA
ATOM     28  C   UNL     1      52.731   0.486  17.816  0.00  0.00    +0.000 A 
ATOM     29  N   UNL     1      51.539   0.831  17.233  0.00  0.00    +0.000 N 
ATOM     30  C   UNL     1      51.053   2.123  17.215  0.00  0.00    +0.000 A 
ATOM     31  O   UNL     1      50.116   2.427  16.488  0.00  0.00    +0.000 OA
ATOM     32  C   UNL     1      51.806   3.040  18.053  0.00  0.00    +0.000 A 
ATOM     33  H   UNL     1      51.035   0.165  16.666  0.00  0.00    +0.000 HD
ENDBRANCH  21  23
ENDBRANCH  18  19
ENDBRANCH   4  18
TORSDOF 7
ENDMDL
MODEL 5
REMARK VINA RESULT:    -6.507      1.769      2.462
REMARK INTER + INTRA:         -10.438
REMARK INTER:                  -9.501
REMARK INTRA:                  -0.937
REMARK UNBOUND:                -1.269
REMARK  Name = 
REMARK  9 active torsions:
REMARK  status: ('A' for Active; 'I' for Inactive)
REMARK    1  A    between atoms: C_1  and  C_2
REMARK    2  A    between atoms: C_2  and  N_3
REMARK    3  A    between atoms: C_2  and  C_26
REMARK    4  A    between atoms: N_3  and  C_4
REMARK    5  A    between atoms: C_4  and  C_5
REMARK    6  A    between atoms: C_8  and  C_9
REMARK    7  A    between atoms: C_9  and  N_10
REMARK    8  A    between atoms: N_10  and  C_11
REMARK    9  A    between atoms: C_12  and  C_14
REMARK                            x       y       z     vdW  Elec       q    Type
REMARK                         _______ _______ _______ _____ _____    ______ ____
ROOT
ATOM      1  C   UNL     1      45.555   5.718  12.171  0.00  0.00    +0.000 A 
ATOM      2  C   UNL     1      46.065   7.022  12.228  0.00  0.00    +0.000 A 
ATOM      3  C   UNL     1      47.104   7.349  13.107  0.00  0.00    +0.000 A 
ATOM      4  C   UNL     1      47.678   6.378  13.938  0.00  0.00    +0.000 A 
ATOM      5  C   UNL     1      47.120   5.092  13.939  0.00  0.00    +0.000 A 
ATOM      6  C   UNL     1      46.072   4.767  13.064  0.00  0.00    +0.000 A 
ENDROOT
BRANCH   1   7
ATOM      7  C   UNL     1      44.455   5.351  11.193  0.00  0.00    +0.000 C 
BRANCH   7   8
ATOM      8  N   UNL     1      44.977   5.011   9.867  0.00  0.00    +0.000 NA
ATOM      9  H   UNL     1      44.722   5.750   9.214  0.00  0.00    +0.000 HD
BRANCH   8  11
ATOM     10  C   UNL     1      44.018   2.771  10.430  0.00  0.00    +0.000 C 
ATOM     11  C   UNL     1      44.466   3.735   9.326  0.00  0.00    +0.000 C 
BRANCH  11  12
ATOM     12  C   UNL     1      45.521   3.058   8.462  0.00  0.00    +0.000 A 
ATOM     13  C   UNL     1      45.768   1.680   8.524  0.00  0.00    +0.000 A 
ATOM     14  C   UNL     1      46.765   1.112   7.735  0.00  0.00    +0.000 A 
ATOM     15  C   UNL     1      47.473   1.934   6.880  0.00  0.00    +0.000 A 
ATOM     16  N   UNL     1      47.245   3.260   6.757  0.00  0.00    +0.000 NA
ATOM     17  C   UNL     1      46.277   3.787   7.544  0.00  0.00    +0.000 A 
ENDBRANCH  11  12
ENDBRANCH   8  11
ENDBRANCH   7   8
ENDBRANCH   1   7
BRANCH   4  18
ATOM     18  C   UNL     1      48.958   6.665  14.697  0.00  0.00    +0.000 C 
BRANCH  18  19
ATOM     19  N   UNL     1      48.845   6.805  16.148  0.00  0.00    +0.000 N 
ATOM     20  C   UNL     1      48.577   5.591  16.907  0.00  0.00    +0.000 C 
ATOM     21  C   UNL     1      48.737   8.109  16.670  0.00  0.00    +0.000 C 
ATOM     22  O   UNL     1      48.794   9.096  15.945  0.00  0.00    +0.000 OA
BRANCH  21  23
ATOM     23  C   UNL     1      48.594   8.286  18.129  0.00  0.00    +0.000 A 
ATOM     24  C   UNL     1      47.396   8.572  18.766  0.00  0.00    +0.000 A 
ATOM     25  S   UNL     1      47.527   8.702  20.459  0.00  0.00    +0.000 S 
ATOM     26  C   UNL     1      49.160   8.220  20.416  0.00  0.00    +0.000 A 
ATOM     27  N   UNL     1      49.850   8.033  21.568  0.00  0.00    +0.000 NA
ATOM     28  C   UNL     1      51.065   7.628  21.392  0.00  0.00    +0.000 A 
ATOM     29  N   UNL     1      51.654   7.438  20.168  0.00  0.00    +0.000 N 
ATOM     30  C   UNL     1      51.032   7.746  18.975  0.00  0.00    +0.000 A 
ATOM     31  O   UNL     1      51.671   7.786  17.931  0.00  0.00    +0.000 OA
ATOM     32  C   UNL     1      49.627   8.082  19.121  0.00  0.00    +0.000 A 
ATOM     33  H   UNL     1      52.632   7.193  20.103  0.00  0.00    +0.000 HD
ENDBRANCH  21  23
ENDBRANCH  18  19
ENDBRANCH   4  18
TORSDOF 7
ENDMDL
MODEL 6
REMARK VINA RESULT:    -6.485      3.845      7.973
REMARK INTER + INTRA:         -10.408
REMARK INTER:                  -8.661
REMARK INTRA:                  -1.747
REMARK UNBOUND:                -1.269
REMARK  Name = 
REMARK  9 active torsions:
REMARK  status: ('A' for Active; 'I' for Inactive)
REMARK    1  A    between atoms: C_1  and  C_2
REMARK    2  A    between atoms: C_2  and  N_3
REMARK    3  A    between atoms: C_2  and  C_26
REMARK    4  A    between atoms: N_3  and  C_4
REMARK    5  A    between atoms: C_4  and  C_5
REMARK    6  A    between atoms: C_8  and  C_9
REMARK    7  A    between atoms: C_9  and  N_10
REMARK    8  A    between atoms: N_10  and  C_11
REMARK    9  A    between atoms: C_12  and  C_14
REMARK                            x       y       z     vdW  Elec       q    Type
REMARK                         _______ _______ _______ _____ _____    ______ ____
ROOT
ATOM      1  C   UNL     1      52.283   6.529  16.680  0.00  0.00    +0.000 A 
ATOM      2  C   UNL     1      50.890   6.634  16.780  0.00  0.00    +0.000 A 
ATOM      3  C   UNL     1      50.162   7.424  15.882  0.00  0.00    +0.000 A 
ATOM      4  C   UNL     1      50.805   8.113  14.845  0.00  0.00    +0.000 A 
ATOM      5  C   UNL     1      52.205   8.072  14.789  0.00  0.00    +0.000 A 
ATOM      6  C   UNL     1      52.934   7.288  15.695  0.00  0.00    +0.000 A 
ENDROOT
BRANCH   1   7
ATOM      7  C   UNL     1      53.071   5.644  17.628  0.00  0.00    +0.000 C 
BRANCH   7   8
ATOM      8  N   UNL     1      53.043   4.234  17.229  0.00  0.00    +0.000 NA
ATOM      9  H   UNL     1      52.564   4.156  16.333  0.00  0.00    +0.000 HD
BRANCH   8  11
ATOM     10  C   UNL     1      53.091   2.024  18.399  0.00  0.00    +0.000 C 
ATOM     11  C   UNL     1      52.350   3.350  18.189  0.00  0.00    +0.000 C 
BRANCH  11  12
ATOM     12  C   UNL     1      50.928   3.066  17.725  0.00  0.00    +0.000 A 
ATOM     13  C   UNL     1      49.826   3.784  18.209  0.00  0.00    +0.000 A 
ATOM     14  C   UNL     1      48.540   3.468  17.777  0.00  0.00    +0.000 A 
ATOM     15  C   UNL     1      48.392   2.456  16.847  0.00  0.00    +0.000 A 
ATOM     16  N   UNL     1      49.426   1.762  16.325  0.00  0.00    +0.000 NA
ATOM     17  C   UNL     1      50.664   2.084  16.770  0.00  0.00    +0.000 A 
ENDBRANCH  11  12
ENDBRANCH   8  11
ENDBRANCH   7   8
ENDBRANCH   1   7
BRANCH   4  18
ATOM     18  C   UNL     1      50.005   8.757  13.729  0.00  0.00    +0.000 C 
BRANCH  18  19
ATOM     19  N   UNL     1      48.986   7.927  13.088  0.00  0.00    +0.000 N 
ATOM     20  C   UNL     1      49.380   7.221  11.876  0.00  0.00    +0.000 C 
ATOM     21  C   UNL     1      47.655   8.078  13.524  0.00  0.00    +0.000 C 
ATOM     22  O   UNL     1      47.364   8.833  14.445  0.00  0.00    +0.000 OA
BRANCH  21  23
ATOM     23  C   UNL     1      46.596   7.276  12.880  0.00  0.00    +0.000 A 
ATOM     24  C   UNL     1      45.708   7.769  11.936  0.00  0.00    +0.000 A 
ATOM     25  S   UNL     1      44.606   6.611  11.350  0.00  0.00    +0.000 S 
ATOM     26  C   UNL     1      45.382   5.367  12.217  0.00  0.00    +0.000 A 
ATOM     27  N   UNL     1      44.982   4.080  12.074  0.00  0.00    +0.000 NA
ATOM     28  C   UNL     1      45.683   3.234  12.757  0.00  0.00    +0.000 A 
ATOM     29  N   UNL     1      46.713   3.572  13.597  0.00  0.00    +0.000 N 
ATOM     30  C   UNL     1      47.062   4.879  13.874  0.00  0.00    +0.000 A 
ATOM     31  O   UNL     1      47.821   5.138  14.800  0.00  0.00    +0.000 OA
ATOM     32  C   UNL     1      46.388   5.853  13.034  0.00  0.00    +0.000 A 
ATOM     33  H   UNL     1      47.168   2.867  14.158  0.00  0.00    +0.000 HD
ENDBRANCH  21  23
ENDBRANCH  18  19
ENDBRANCH   4  18
TORSDOF 7
ENDMDL
MODEL 7
REMARK VINA RESULT:    -6.398      3.409      8.739
REMARK INTER + INTRA:         -10.285
REMARK INTER:                  -8.993
REMARK INTRA:                  -1.292
REMARK UNBOUND:                -1.269
REMARK  Name = 
REMARK  9 active torsions:
REMARK  status: ('A' for Active; 'I' for Inactive)
REMARK    1  A    between atoms: C_1  and  C_2
REMARK    2  A    between atoms: C_2  and  N_3
REMARK    3  A    between atoms: C_2  and  C_26
REMARK    4  A    between atoms: N_3  and  C_4
REMARK    5  A    between atoms: C_4  and  C_5
REMARK    6  A    between atoms: C_8  and  C_9
REMARK    7  A    between atoms: C_9  and  N_10
REMARK    8  A    between atoms: N_10  and  C_11
REMARK    9  A    between atoms: C_12  and  C_14
REMARK                            x       y       z     vdW  Elec       q    Type
REMARK                         _______ _______ _______ _____ _____    ______ ____
ROOT
ATOM      1  C   UNL     1      49.778   8.093  16.592  0.00  0.00    +0.000 A 
ATOM      2  C   UNL     1      48.526   8.722  16.611  0.00  0.00    +0.000 A 
ATOM      3  C   UNL     1      47.737   8.787  15.457  0.00  0.00    +0.000 A 
ATOM      4  C   UNL     1      48.166   8.205  14.257  0.00  0.00    +0.000 A 
ATOM      5  C   UNL     1      49.449   7.642  14.214  0.00  0.00    +0.000 A 
ATOM      6  C   UNL     1      50.244   7.586  15.369  0.00  0.00    +0.000 A 
ENDROOT
BRANCH   1   7
ATOM      7  C   UNL     1      50.619   7.988  17.850  0.00  0.00    +0.000 C 
BRANCH   7   8
ATOM      8  N   UNL     1      50.836   6.599  18.263  0.00  0.00    +0.000 NA
ATOM      9  H   UNL     1      51.123   6.056  17.450  0.00  0.00    +0.000 HD
BRANCH   8  11
ATOM     10  C   UNL     1      49.907   5.385  20.242  0.00  0.00    +0.000 C 
ATOM     11  C   UNL     1      49.643   5.948  18.841  0.00  0.00    +0.000 C 
BRANCH  11  12
ATOM     12  C   UNL     1      49.149   4.831  17.932  0.00  0.00    +0.000 A 
ATOM     13  C   UNL     1      47.910   4.892  17.279  0.00  0.00    +0.000 A 
ATOM     14  C   UNL     1      47.488   3.831  16.481  0.00  0.00    +0.000 A 
ATOM     15  C   UNL     1      48.330   2.745  16.334  0.00  0.00    +0.000 A 
ATOM     16  N   UNL     1      49.547   2.658  16.913  0.00  0.00    +0.000 NA
ATOM     17  C   UNL     1      49.928   3.700  17.691  0.00  0.00    +0.000 A 
ENDBRANCH  11  12
ENDBRANCH   8  11
ENDBRANCH   7   8
ENDBRANCH   1   7
BRANCH   4  18
ATOM     18  C   UNL     1      47.215   8.050  13.086  0.00  0.00    +0.000 C 
BRANCH  18  19
ATOM     19  N   UNL     1      46.677   6.712  12.848  0.00  0.00    +0.000 N 
ATOM     20  C   UNL     1      47.578   5.590  13.078  0.00  0.00    +0.000 C 
ATOM     21  C   UNL     1      45.444   6.616  12.173  0.00  0.00    +0.000 C 
ATOM     22  O   UNL     1      44.813   7.616  11.847  0.00  0.00    +0.000 OA
BRANCH  21  23
ATOM     23  C   UNL     1      44.883   5.280  11.892  0.00  0.00    +0.000 A 
ATOM     24  C   UNL     1      44.123   4.548  12.791  0.00  0.00    +0.000 A 
ATOM     25  S   UNL     1      43.592   3.046  12.188  0.00  0.00    +0.000 S 
ATOM     26  C   UNL     1      44.224   3.392  10.645  0.00  0.00    +0.000 A 
ATOM     27  N   UNL     1      44.020   2.535   9.614  0.00  0.00    +0.000 NA
ATOM     28  C   UNL     1      44.518   2.939   8.490  0.00  0.00    +0.000 A 
ATOM     29  N   UNL     1      45.233   4.098   8.325  0.00  0.00    +0.000 N 
ATOM     30  C   UNL     1      45.578   4.927   9.373  0.00  0.00    +0.000 A 
ATOM     31  O   UNL     1      46.409   5.814   9.219  0.00  0.00    +0.000 OA
ATOM     32  C   UNL     1      44.934   4.580  10.628  0.00  0.00    +0.000 A 
ATOM     33  H   UNL     1      45.657   4.314   7.435  0.00  0.00    +0.000 HD
ENDBRANCH  21  23
ENDBRANCH  18  19
ENDBRANCH   4  18
TORSDOF 7
ENDMDL
MODEL 8
REMARK VINA RESULT:    -6.325      5.029      8.435
REMARK INTER + INTRA:         -10.183
REMARK INTER:                  -9.067
REMARK INTRA:                  -1.116
REMARK UNBOUND:                -1.269
REMARK  Name = 
REMARK  9 active torsions:
REMARK  status: ('A' for Active; 'I' for Inactive)
REMARK    1  A    between atoms: C_1  and  C_2
REMARK    2  A    between atoms: C_2  and  N_3
REMARK    3  A    between atoms: C_2  and  C_26
REMARK    4  A    between atoms: N_3  and  C_4
REMARK    5  A    between atoms: C_4  and  C_5
REMARK    6  A    between atoms: C_8  and  C_9
REMARK    7  A    between atoms: C_9  and  N_10
REMARK    8  A    between atoms: N_10  and  C_11
REMARK    9  A    between atoms: C_12  and  C_14
REMARK                            x       y       z     vdW  Elec       q    Type
REMARK                         _______ _______ _______ _____ _____    ______ ____
ROOT
ATOM      1  C   UNL     1      49.989  10.047  10.991  0.00  0.00    +0.000 A 
ATOM      2  C   UNL     1      48.745  10.672  11.146  0.00  0.00    +0.000 A 
ATOM      3  C   UNL     1      47.694  10.027  11.808  0.00  0.00    +0.000 A 
ATOM      4  C   UNL     1      47.864   8.748  12.355  0.00  0.00    +0.000 A 
ATOM      5  C   UNL     1      49.082   8.090  12.136  0.00  0.00    +0.000 A 
ATOM      6  C   UNL     1      50.132   8.733  11.464  0.00  0.00    +0.000 A 
ENDROOT
BRANCH   1   7
ATOM      7  C   UNL     1      51.142  10.759  10.307  0.00  0.00    +0.000 C 
BRANCH   7   8
ATOM      8  N   UNL     1      52.356   9.939  10.262  0.00  0.00    +0.000 NA
ATOM      9  H   UNL     1      53.035  10.321  10.918  0.00  0.00    +0.000 HD
BRANCH   8  11
ATOM     10  C   UNL     1      52.316  10.810   7.917  0.00  0.00    +0.000 C 
ATOM     11  C   UNL     1      52.996   9.883   8.932  0.00  0.00    +0.000 C 
BRANCH  11  12
ATOM     12  C   UNL     1      52.993   8.458   8.396  0.00  0.00    +0.000 A 
ATOM     13  C   UNL     1      53.005   7.341   9.241  0.00  0.00    +0.000 A 
ATOM     14  C   UNL     1      53.031   6.056   8.703  0.00  0.00    +0.000 A 
ATOM     15  C   UNL     1      53.017   5.921   7.328  0.00  0.00    +0.000 A 
ATOM     16  N   UNL     1      52.968   6.966   6.474  0.00  0.00    +0.000 NA
ATOM     17  C   UNL     1      52.953   8.204   7.025  0.00  0.00    +0.000 A 
ENDBRANCH  11  12
ENDBRANCH   8  11
ENDBRANCH   7   8
ENDBRANCH   1   7
BRANCH   4  18
ATOM     18  C   UNL     1      46.822   8.157  13.285  0.00  0.00    +0.000 C 
BRANCH  18  19
ATOM     19  N   UNL     1      46.378   6.795  12.993  0.00  0.00    +0.000 N 
ATOM     20  C   UNL     1      47.299   5.717  13.327  0.00  0.00    +0.000 C 
ATOM     21  C   UNL     1      45.235   6.642  12.184  0.00  0.00    +0.000 C 
ATOM     22  O   UNL     1      44.598   7.610  11.785  0.00  0.00    +0.000 OA
BRANCH  21  23
ATOM     23  C   UNL     1      44.773   5.280  11.847  0.00  0.00    +0.000 A 
ATOM     24  C   UNL     1      44.019   4.481  12.693  0.00  0.00    +0.000 A 
ATOM     25  S   UNL     1      43.613   2.965  12.032  0.00  0.00    +0.000 S 
ATOM     26  C   UNL     1      44.293   3.387  10.528  0.00  0.00    +0.000 A 
ATOM     27  N   UNL     1      44.191   2.545   9.470  0.00  0.00    +0.000 NA
ATOM     28  C   UNL     1      44.714   3.008   8.381  0.00  0.00    +0.000 A 
ATOM     29  N   UNL     1      45.361   4.212   8.276  0.00  0.00    +0.000 N 
ATOM     30  C   UNL     1      45.604   5.035   9.357  0.00  0.00    +0.000 A 
ATOM     31  O   UNL     1      46.383   5.975   9.262  0.00  0.00    +0.000 OA
ATOM     32  C   UNL     1      44.926   4.617  10.572  0.00  0.00    +0.000 A 
ATOM     33  H   UNL     1      45.811   4.477   7.412  0.00  0.00    +0.000 HD
ENDBRANCH  21  23
ENDBRANCH  18  19
ENDBRANCH   4  18
TORSDOF 7
ENDMDL
MODEL 9
REMARK VINA RESULT:    -6.293      3.420      7.894
REMARK INTER + INTRA:         -10.137
REMARK INTER:                  -8.073
REMARK INTRA:                  -2.064
REMARK UNBOUND:                -1.269
REMARK  Name = 
REMARK  9 active torsions:
REMARK  status: ('A' for Active; 'I' for Inactive)
REMARK    1  A    between atoms: C_1  and  C_2
REMARK    2  A    between atoms: C_2  and  N_3
REMARK    3  A    between atoms: C_2  and  C_26
REMARK    4  A    between atoms: N_3  and  C_4
REMARK    5  A    between atoms: C_4  and  C_5
REMARK    6  A    between atoms: C_8  and  C_9
REMARK    7  A    between atoms: C_9  and  N_10
REMARK    8  A    between atoms: N_10  and  C_11
REMARK    9  A    between atoms: C_12  and  C_14
REMARK                            x       y       z     vdW  Elec       q    Type
REMARK                         _______ _______ _______ _____ _____    ______ ____
ROOT
ATOM      1  C   UNL     1      50.178   8.573  17.082  0.00  0.00    +0.000 A 
ATOM      2  C   UNL     1      49.369   9.675  16.777  0.00  0.00    +0.000 A 
ATOM      3  C   UNL     1      49.012   9.960  15.454  0.00  0.00    +0.000 A 
ATOM      4  C   UNL     1      49.433   9.137  14.401  0.00  0.00    +0.000 A 
ATOM      5  C   UNL     1      50.304   8.079  14.694  0.00  0.00    +0.000 A 
ATOM      6  C   UNL     1      50.670   7.800  16.019  0.00  0.00    +0.000 A 
ENDROOT
BRANCH   1   7
ATOM      7  C   UNL     1      50.536   8.240  18.519  0.00  0.00    +0.000 C 
BRANCH   7   8
ATOM      8  N   UNL     1      50.199   6.858  18.872  0.00  0.00    +0.000 NA
ATOM      9  H   UNL     1      50.707   6.228  18.253  0.00  0.00    +0.000 HD
BRANCH   8  11
ATOM     10  C   UNL     1      48.062   6.511  20.124  0.00  0.00    +0.000 C 
ATOM     11  C   UNL     1      48.761   6.540  18.760  0.00  0.00    +0.000 C 
BRANCH  11  12
ATOM     12  C   UNL     1      48.562   5.202  18.062  0.00  0.00    +0.000 A 
ATOM     13  C   UNL     1      47.298   4.613  17.922  0.00  0.00    +0.000 A 
ATOM     14  C   UNL     1      47.170   3.372  17.301  0.00  0.00    +0.000 A 
ATOM     15  C   UNL     1      48.309   2.764  16.809  0.00  0.00    +0.000 A 
ATOM     16  N   UNL     1      49.542   3.311  16.887  0.00  0.00    +0.000 NA
ATOM     17  C   UNL     1      49.638   4.513  17.504  0.00  0.00    +0.000 A 
ENDBRANCH  11  12
ENDBRANCH   8  11
ENDBRANCH   7   8
ENDBRANCH   1   7
BRANCH   4  18
ATOM     18  C   UNL     1      48.845   9.292  13.012  0.00  0.00    +0.000 C 
BRANCH  18  19
ATOM     19  N   UNL     1      48.020   8.189  12.521  0.00  0.00    +0.000 N 
ATOM     20  C   UNL     1      48.570   7.389  11.435  0.00  0.00    +0.000 C 
ATOM     21  C   UNL     1      46.675   8.146  12.937  0.00  0.00    +0.000 C 
ATOM     22  O   UNL     1      46.223   8.967  13.728  0.00  0.00    +0.000 OA
BRANCH  21  23
ATOM     23  C   UNL     1      45.806   7.062  12.439  0.00  0.00    +0.000 A 
ATOM     24  C   UNL     1      44.810   7.234  11.490  0.00  0.00    +0.000 A 
ATOM     25  S   UNL     1      43.979   5.802  11.092  0.00  0.00    +0.000 S 
ATOM     26  C   UNL     1      45.030   4.870  12.054  0.00  0.00    +0.000 A 
ATOM     27  N   UNL     1      44.921   3.519  12.075  0.00  0.00    +0.000 NA
ATOM     28  C   UNL     1      45.807   2.933  12.815  0.00  0.00    +0.000 A 
ATOM     29  N   UNL     1      46.755   3.586  13.560  0.00  0.00    +0.000 N 
ATOM     30  C   UNL     1      46.813   4.960  13.672  0.00  0.00    +0.000 A 
ATOM     31  O   UNL     1      47.516   5.487  14.526  0.00  0.00    +0.000 OA
ATOM     32  C   UNL     1      45.921   5.657  12.762  0.00  0.00    +0.000 A 
ATOM     33  H   UNL     1      47.368   3.069  14.174  0.00  0.00    +0.000 HD
ENDBRANCH  21  23
ENDBRANCH  18  19
ENDBRANCH   4  18
TORSDOF 7
ENDMDL
