MODEL 1
REMARK VINA RESULT:    -8.740      0.000      0.000
REMARK INTER + INTRA:         -13.475
REMARK INTER:                 -12.316
REMARK INTRA:                  -1.159
REMARK UNBOUND:                -1.159
REMARK  Name = 
REMARK  8 active torsions:
REMARK  status: ('A' for Active; 'I' for Inactive)
REMARK    1  A    between atoms: C_1  and  C_2
REMARK    2  A    between atoms: C_2  and  C_3
REMARK    3  A    between atoms: C_2  and  C_14
REMARK    4  A    between atoms: C_3  and  O_4
REMARK    5  A    between atoms: O_4  and  C_5
REMARK    6  A    between atoms: C_8  and  C_9
REMARK    7  A    between atoms: C_19  and  O_20
REMARK    8  A    between atoms: O_20  and  C_21
REMARK                            x       y       z     vdW  Elec       q    Type
REMARK                         _______ _______ _______ _____ _____    ______ ____
ROOT
ATOM      1  C   UNL     1      42.621   5.323  11.968  0.00  0.00    +0.000 C 
ATOM      2  C   UNL     1      43.709   4.427  12.564  0.00  0.00    +0.000 C 
ENDROOT
BRANCH   2   3
ATOM      3  C   UNL     1      44.994   5.206  12.811  0.00  0.00    +0.000 A 
ATOM      4  C   UNL     1      45.289   6.415  12.168  0.00  0.00    +0.000 A 
ATOM      5  C   UNL     1      46.500   7.056  12.432  0.00  0.00    +0.000 A 
ATOM      6  F   UNL     1      46.781   8.205  11.799  0.00  0.00    +0.000 F 
ATOM      7  C   UNL     1      47.421   6.527  13.337  0.00  0.00    +0.000 A 
ATOM      8  C   UNL     1      47.130   5.344  14.016  0.00  0.00    +0.000 A 
ATOM      9  C   UNL     1      45.929   4.689  13.727  0.00  0.00    +0.000 A 
BRANCH   8  10
ATOM     10  O   UNL     1      48.072   4.901  14.917  0.00  0.00    +0.000 OA
BRANCH  10  11
ATOM     11  C   UNL     1      47.612   4.562  16.233  0.00  0.00    +0.000 C 
ATOM     12  C   UNL     1      48.268   5.389  17.331  0.00  0.00    +0.000 C 
ATOM     13  C   UNL     1      48.357   4.492  18.558  0.00  0.00    +0.000 C 
ATOM     14  C   UNL     1      48.011   3.076  18.115  0.00  0.00    +0.000 C 
ATOM     15  C   UNL     1      47.916   3.101  16.593  0.00  0.00    +0.000 C 
ENDBRANCH  10  11
ENDBRANCH   8  10
ENDBRANCH   2   3
BRANCH   2  16
ATOM     16  C   UNL     1      43.958   3.180  11.701  0.00  0.00    +0.000 C 
BRANCH  16  17
ATOM     17  O   UNL     1      43.448   3.383  10.368  0.00  0.00    +0.000 OA
BRANCH  17  18
ATOM     18  C   UNL     1      44.411   3.124   9.408  0.00  0.00    +0.000 A 
ATOM     19  C   UNL     1      44.956   4.191   8.706  0.00  0.00    +0.000 A 
ATOM     20  C   UNL     1      45.965   3.917   7.777  0.00  0.00    +0.000 A 
ATOM     21  C   UNL     1      46.404   2.603   7.581  0.00  0.00    +0.000 A 
ATOM     22  C   UNL     1      45.779   1.613   8.332  0.00  0.00    +0.000 A 
ATOM     23  N   UNL     1      44.803   1.847   9.223  0.00  0.00    +0.000 NA
BRANCH  21  24
ATOM     24  C   UNL     1      47.497   2.319   6.629  0.00  0.00    +0.000 C 
ATOM     25  N   UNL     1      47.511   2.944   5.406  0.00  0.00    +0.000 N 
ATOM     26  O   UNL     1      48.391   1.527   6.912  0.00  0.00    +0.000 OA
ATOM     27  H   UNL     1      46.830   3.602   5.062  0.00  0.00    +0.000 HD
ATOM     28  H   UNL     1      48.276   2.705   4.791  0.00  0.00    +0.000 HD
ENDBRANCH  21  24
ENDBRANCH  17  18
ENDBRANCH  16  17
ENDBRANCH   2  16
TORSDOF 7
ENDMDL
MODEL 2
REMARK VINA RESULT:    -8.002      2.255      3.757
REMARK INTER + INTRA:         -12.436
REMARK INTER:                 -11.299
REMARK INTRA:                  -1.137
REMARK UNBOUND:                -1.159
REMARK  Name = 
REMARK  8 active torsions:
REMARK  status: ('A' for Active; 'I' for Inactive)
REMARK    1  A    between atoms: C_1  and  C_2
REMARK    2  A    between atoms: C_2  and  C_3
REMARK    3  A    between atoms: C_2  and  C_14
REMARK    4  A    between atoms: C_3  and  O_4
REMARK    5  A    between atoms: O_4  and  C_5
REMARK    6  A    between atoms: C_8  and  C_9
REMARK    7  A    between atoms: C_19  and  O_20
REMARK    8  A    between atoms: O_20  and  C_21
REMARK                            x       y       z     vdW  Elec       q    Type
REMARK                         _______ _______ _______ _____ _____    ______ ____
ROOT
ATOM      1  C   UNL     1      42.474   5.784  11.945  0.00  0.00    +0.000 C 
ATOM      2  C   UNL     1      43.371   4.594  12.296  0.00  0.00    +0.000 C 
ENDROOT
BRANCH   2   3
ATOM      3  C   UNL     1      44.747   5.056  12.757  0.00  0.00    +0.000 A 
ATOM      4  C   UNL     1      45.527   4.335  13.671  0.00  0.00    +0.000 A 
ATOM      5  C   UNL     1      46.769   4.839  14.061  0.00  0.00    +0.000 A 
ATOM      6  F   UNL     1      47.502   4.150  14.948  0.00  0.00    +0.000 F 
ATOM      7  C   UNL     1      47.260   6.041  13.549  0.00  0.00    +0.000 A 
ATOM      8  C   UNL     1      46.515   6.754  12.610  0.00  0.00    +0.000 A 
ATOM      9  C   UNL     1      45.259   6.262  12.244  0.00  0.00    +0.000 A 
BRANCH   8  10
ATOM     10  O   UNL     1      47.081   7.913  12.125  0.00  0.00    +0.000 OA
BRANCH  10  11
ATOM     11  C   UNL     1      48.442   8.181  12.491  0.00  0.00    +0.000 C 
ATOM     12  C   UNL     1      48.675   9.625  12.916  0.00  0.00    +0.000 C 
ATOM     13  C   UNL     1      50.098   9.977  12.501  0.00  0.00    +0.000 C 
ATOM     14  C   UNL     1      50.603   8.853  11.604  0.00  0.00    +0.000 C 
ATOM     15  C   UNL     1      49.412   7.942  11.326  0.00  0.00    +0.000 C 
ENDBRANCH  10  11
ENDBRANCH   8  10
ENDBRANCH   2   3
BRANCH   2  16
ATOM     16  C   UNL     1      43.468   3.591  11.135  0.00  0.00    +0.000 C 
BRANCH  16  17
ATOM     17  O   UNL     1      43.618   4.286   9.882  0.00  0.00    +0.000 OA
BRANCH  17  18
ATOM     18  C   UNL     1      44.645   3.753   9.122  0.00  0.00    +0.000 A 
ATOM     19  C   UNL     1      44.887   2.387   9.193  0.00  0.00    +0.000 A 
ATOM     20  C   UNL     1      45.893   1.857   8.379  0.00  0.00    +0.000 A 
ATOM     21  C   UNL     1      46.618   2.693   7.521  0.00  0.00    +0.000 A 
ATOM     22  C   UNL     1      46.297   4.046   7.542  0.00  0.00    +0.000 A 
ATOM     23  N   UNL     1      45.343   4.581   8.319  0.00  0.00    +0.000 NA
BRANCH  21  24
ATOM     24  C   UNL     1      47.653   2.127   6.633  0.00  0.00    +0.000 C 
ATOM     25  N   UNL     1      48.036   2.818   5.509  0.00  0.00    +0.000 N 
ATOM     26  O   UNL     1      48.175   1.044   6.880  0.00  0.00    +0.000 OA
ATOM     27  H   UNL     1      47.675   3.708   5.202  0.00  0.00    +0.000 HD
ATOM     28  H   UNL     1      48.741   2.380   4.933  0.00  0.00    +0.000 HD
ENDBRANCH  21  24
ENDBRANCH  17  18
ENDBRANCH  16  17
ENDBRANCH   2  16
TORSDOF 7
ENDMDL
MODEL 3
REMARK VINA RESULT:    -7.940      2.981      7.891
REMARK INTER + INTRA:         -12.348
REMARK INTER:                 -11.292
REMARK INTRA:                  -1.055
REMARK UNBOUND:                -1.159
REMARK  Name = 
REMARK  8 active torsions:
REMARK  status: ('A' for Active; 'I' for Inactive)
REMARK    1  A    between atoms: C_1  and  C_2
REMARK    2  A    between atoms: C_2  and  C_3
REMARK    3  A    between atoms: C_2  and  C_14
REMARK    4  A    between atoms: C_3  and  O_4
REMARK    5  A    between atoms: O_4  and  C_5
REMARK    6  A    between atoms: C_8  and  C_9
REMARK    7  A    between atoms: C_19  and  O_20
REMARK    8  A    between atoms: O_20  and  C_21
REMARK                            x       y       z     vdW  Elec       q    Type
REMARK                         _______ _______ _______ _____ _____    ______ ____
ROOT
ATOM      1  C   UNL     1      46.312   8.488  12.739  0.00  0.00    +0.000 C 
ATOM      2  C   UNL     1      46.761   7.324  11.853  0.00  0.00    +0.000 C 
ENDROOT
BRANCH   2   3
ATOM      3  C   UNL     1      45.615   6.357  11.588  0.00  0.00    +0.000 A 
ATOM      4  C   UNL     1      44.520   6.215  12.451  0.00  0.00    +0.000 A 
ATOM      5  C   UNL     1      43.522   5.288  12.148  0.00  0.00    +0.000 A 
ATOM      6  F   UNL     1      42.486   5.148  12.989  0.00  0.00    +0.000 F 
ATOM      7  C   UNL     1      43.580   4.508  10.993  0.00  0.00    +0.000 A 
ATOM      8  C   UNL     1      44.642   4.661  10.102  0.00  0.00    +0.000 A 
ATOM      9  C   UNL     1      45.655   5.568  10.423  0.00  0.00    +0.000 A 
BRANCH   8  10
ATOM     10  O   UNL     1      44.613   3.880   8.968  0.00  0.00    +0.000 OA
BRANCH  10  11
ATOM     11  C   UNL     1      45.855   3.305   8.536  0.00  0.00    +0.000 C 
ATOM     12  C   UNL     1      46.238   3.703   7.116  0.00  0.00    +0.000 C 
ATOM     13  C   UNL     1      47.000   2.524   6.525  0.00  0.00    +0.000 C 
ATOM     14  C   UNL     1      46.835   1.348   7.480  0.00  0.00    +0.000 C 
ATOM     15  C   UNL     1      45.811   1.771   8.527  0.00  0.00    +0.000 C 
ENDBRANCH  10  11
ENDBRANCH   8  10
ENDBRANCH   2   3
BRANCH   2  16
ATOM     16  C   UNL     1      47.989   6.605  12.434  0.00  0.00    +0.000 C 
BRANCH  16  17
ATOM     17  O   UNL     1      48.303   7.126  13.740  0.00  0.00    +0.000 OA
BRANCH  17  18
ATOM     18  C   UNL     1      48.169   6.158  14.721  0.00  0.00    +0.000 A 
ATOM     19  C   UNL     1      48.702   6.406  15.979  0.00  0.00    +0.000 A 
ATOM     20  C   UNL     1      48.511   5.440  16.973  0.00  0.00    +0.000 A 
ATOM     21  C   UNL     1      47.796   4.271  16.690  0.00  0.00    +0.000 A 
ATOM     22  C   UNL     1      47.317   4.125  15.393  0.00  0.00    +0.000 A 
ATOM     23  N   UNL     1      47.493   5.031  14.419  0.00  0.00    +0.000 NA
BRANCH  21  24
ATOM     24  C   UNL     1      47.560   3.270  17.751  0.00  0.00    +0.000 C 
ATOM     25  N   UNL     1      48.444   3.170  18.798  0.00  0.00    +0.000 N 
ATOM     26  O   UNL     1      46.589   2.521  17.708  0.00  0.00    +0.000 OA
ATOM     27  H   UNL     1      49.276   3.722  18.934  0.00  0.00    +0.000 HD
ATOM     28  H   UNL     1      48.239   2.462  19.489  0.00  0.00    +0.000 HD
ENDBRANCH  21  24
ENDBRANCH  17  18
ENDBRANCH  16  17
ENDBRANCH   2  16
TORSDOF 7
ENDMDL
MODEL 4
REMARK VINA RESULT:    -7.671      2.722      4.156
REMARK INTER + INTRA:         -11.969
REMARK INTER:                 -11.155
REMARK INTRA:                  -0.814
REMARK UNBOUND:                -1.159
REMARK  Name = 
REMARK  8 active torsions:
REMARK  status: ('A' for Active; 'I' for Inactive)
REMARK    1  A    between atoms: C_1  and  C_2
REMARK    2  A    between atoms: C_2  and  C_3
REMARK    3  A    between atoms: C_2  and  C_14
REMARK    4  A    between atoms: C_3  and  O_4
REMARK    5  A    between atoms: O_4  and  C_5
REMARK    6  A    between atoms: C_8  and  C_9
REMARK    7  A    between atoms: C_19  and  O_20
REMARK    8  A    between atoms: O_20  and  C_21
REMARK                            x       y       z     vdW  Elec       q    Type
REMARK                         _______ _______ _______ _____ _____    ______ ____
ROOT
ATOM      1  C   UNL     1      45.736   3.957  12.900  0.00  0.00    +0.000 C 
ATOM      2  C   UNL     1      45.319   4.746  11.657  0.00  0.00    +0.000 C 
ENDROOT
BRANCH   2   3
ATOM      3  C   UNL     1      45.617   6.231  11.820  0.00  0.00    +0.000 A 
ATOM      4  C   UNL     1      44.665   7.231  11.581  0.00  0.00    +0.000 A 
ATOM      5  C   UNL     1      45.024   8.571  11.730  0.00  0.00    +0.000 A 
ATOM      6  F   UNL     1      44.111   9.522  11.485  0.00  0.00    +0.000 F 
ATOM      7  C   UNL     1      46.310   8.940  12.128  0.00  0.00    +0.000 A 
ATOM      8  C   UNL     1      47.261   7.958  12.406  0.00  0.00    +0.000 A 
ATOM      9  C   UNL     1      46.907   6.618  12.227  0.00  0.00    +0.000 A 
BRANCH   8  10
ATOM     10  O   UNL     1      48.497   8.398  12.826  0.00  0.00    +0.000 OA
BRANCH  10  11
ATOM     11  C   UNL     1      49.427   8.804  11.811  0.00  0.00    +0.000 C 
ATOM     12  C   UNL     1      50.309   7.666  11.315  0.00  0.00    +0.000 C 
ATOM     13  C   UNL     1      51.649   8.285  10.939  0.00  0.00    +0.000 C 
ATOM     14  C   UNL     1      51.652   9.718  11.458  0.00  0.00    +0.000 C 
ATOM     15  C   UNL     1      50.401   9.878  12.316  0.00  0.00    +0.000 C 
ENDBRANCH  10  11
ENDBRANCH   8  10
ENDBRANCH   2   3
BRANCH   2  16
ATOM     16  C   UNL     1      43.847   4.498  11.290  0.00  0.00    +0.000 C 
BRANCH  16  17
ATOM     17  O   UNL     1      43.661   4.600   9.865  0.00  0.00    +0.000 OA
BRANCH  17  18
ATOM     18  C   UNL     1      44.632   3.898   9.172  0.00  0.00    +0.000 A 
ATOM     19  C   UNL     1      44.701   2.521   9.331  0.00  0.00    +0.000 A 
ATOM     20  C   UNL     1      45.654   1.822   8.582  0.00  0.00    +0.000 A 
ATOM     21  C   UNL     1      46.498   2.507   7.701  0.00  0.00    +0.000 A 
ATOM     22  C   UNL     1      46.347   3.888   7.632  0.00  0.00    +0.000 A 
ATOM     23  N   UNL     1      45.448   4.583   8.344  0.00  0.00    +0.000 NA
BRANCH  21  24
ATOM     24  C   UNL     1      47.477   1.764   6.882  0.00  0.00    +0.000 C 
ATOM     25  N   UNL     1      48.532   2.434   6.311  0.00  0.00    +0.000 N 
ATOM     26  O   UNL     1      47.360   0.556   6.699  0.00  0.00    +0.000 OA
ATOM     27  H   UNL     1      48.726   3.421   6.386  0.00  0.00    +0.000 HD
ATOM     28  H   UNL     1      49.166   1.878   5.754  0.00  0.00    +0.000 HD
ENDBRANCH  21  24
ENDBRANCH  17  18
ENDBRANCH  16  17
ENDBRANCH   2  16
TORSDOF 7
ENDMDL
MODEL 5
REMARK VINA RESULT:    -7.554      3.058      5.559
REMARK INTER + INTRA:         -11.804
REMARK INTER:                 -10.809
REMARK INTRA:                  -0.994
REMARK UNBOUND:                -1.159
REMARK  Name = 
REMARK  8 active torsions:
REMARK  status: ('A' for Active; 'I' for Inactive)
REMARK    1  A    between atoms: C_1  and  C_2
REMARK    2  A    between atoms: C_2  and  C_3
REMARK    3  A    between atoms: C_2  and  C_14
REMARK    4  A    between atoms: C_3  and  O_4
REMARK    5  A    between atoms: O_4  and  C_5
REMARK    6  A    between atoms: C_8  and  C_9
REMARK    7  A    between atoms: C_19  and  O_20
REMARK    8  A    between atoms: O_20  and  C_21
REMARK                            x       y       z     vdW  Elec       q    Type
REMARK                         _______ _______ _______ _____ _____    ______ ____
ROOT
ATOM      1  C   UNL     1      44.368   4.507  13.004  0.00  0.00    +0.000 C 
ATOM      2  C   UNL     1      44.860   5.170  11.715  0.00  0.00    +0.000 C 
ENDROOT
BRANCH   2   3
ATOM      3  C   UNL     1      45.517   6.513  12.001  0.00  0.00    +0.000 A 
ATOM      4  C   UNL     1      46.781   6.635  12.593  0.00  0.00    +0.000 A 
ATOM      5  C   UNL     1      47.304   7.904  12.843  0.00  0.00    +0.000 A 
ATOM      6  F   UNL     1      48.508   8.010  13.424  0.00  0.00    +0.000 F 
ATOM      7  C   UNL     1      46.602   9.061  12.502  0.00  0.00    +0.000 A 
ATOM      8  C   UNL     1      45.359   8.961  11.877  0.00  0.00    +0.000 A 
ATOM      9  C   UNL     1      44.824   7.689  11.656  0.00  0.00    +0.000 A 
BRANCH   8  10
ATOM     10  O   UNL     1      44.741  10.146  11.540  0.00  0.00    +0.000 OA
BRANCH  10  11
ATOM     11  C   UNL     1      43.677  10.080  10.580  0.00  0.00    +0.000 C 
ATOM     12  C   UNL     1      43.967  10.865   9.307  0.00  0.00    +0.000 C 
ATOM     13  C   UNL     1      42.628  11.383   8.800  0.00  0.00    +0.000 C 
ATOM     14  C   UNL     1      41.599  11.140   9.897  0.00  0.00    +0.000 C 
ATOM     15  C   UNL     1      42.368  10.668  11.127  0.00  0.00    +0.000 C 
ENDBRANCH  10  11
ENDBRANCH   8  10
ENDBRANCH   2   3
BRANCH   2  16
ATOM     16  C   UNL     1      43.736   5.297  10.674  0.00  0.00    +0.000 C 
BRANCH  16  17
ATOM     17  O   UNL     1      43.410   4.004  10.128  0.00  0.00    +0.000 OA
BRANCH  17  18
ATOM     18  C   UNL     1      44.438   3.506   9.346  0.00  0.00    +0.000 A 
ATOM     19  C   UNL     1      44.763   2.160   9.449  0.00  0.00    +0.000 A 
ATOM     20  C   UNL     1      45.769   1.663   8.614  0.00  0.00    +0.000 A 
ATOM     21  C   UNL     1      46.412   2.511   7.704  0.00  0.00    +0.000 A 
ATOM     22  C   UNL     1      46.013   3.843   7.696  0.00  0.00    +0.000 A 
ATOM     23  N   UNL     1      45.057   4.347   8.493  0.00  0.00    +0.000 NA
BRANCH  21  24
ATOM     24  C   UNL     1      47.446   1.977   6.795  0.00  0.00    +0.000 C 
ATOM     25  N   UNL     1      48.473   2.792   6.383  0.00  0.00    +0.000 N 
ATOM     26  O   UNL     1      47.400   0.818   6.398  0.00  0.00    +0.000 OA
ATOM     27  H   UNL     1      48.610   3.758   6.636  0.00  0.00    +0.000 HD
ATOM     28  H   UNL     1      49.147   2.377   5.754  0.00  0.00    +0.000 HD
ENDBRANCH  21  24
ENDBRANCH  17  18
ENDBRANCH  16  17
ENDBRANCH   2  16
TORSDOF 7
ENDMDL
MODEL 6
REMARK VINA RESULT:    -6.984      3.783      7.669
REMARK INTER + INTRA:         -11.001
REMARK INTER:                 -10.011
REMARK INTRA:                  -0.990
REMARK UNBOUND:                -1.159
REMARK  Name = 
REMARK  8 active torsions:
REMARK  status: ('A' for Active; 'I' for Inactive)
REMARK    1  A    between atoms: C_1  and  C_2
REMARK    2  A    between atoms: C_2  and  C_3
REMARK    3  A    between atoms: C_2  and  C_14
REMARK    4  A    between atoms: C_3  and  O_4
REMARK    5  A    between atoms: O_4  and  C_5
REMARK    6  A    between atoms: C_8  and  C_9
REMARK    7  A    between atoms: C_19  and  O_20
REMARK    8  A    between atoms: O_20  and  C_21
REMARK                            x       y       z     vdW  Elec       q    Type
REMARK                         _______ _______ _______ _____ _____    ______ ____
ROOT
ATOM      1  C   UNL     1      47.046   3.695  13.988  0.00  0.00    +0.000 C 
ATOM      2  C   UNL     1      46.343   4.966  13.506  0.00  0.00    +0.000 C 
ENDROOT
BRANCH   2   3
ATOM      3  C   UNL     1      45.215   4.640  12.535  0.00  0.00    +0.000 A 
ATOM      4  C   UNL     1      43.948   5.233  12.610  0.00  0.00    +0.000 A 
ATOM      5  C   UNL     1      42.961   4.862  11.696  0.00  0.00    +0.000 A 
ATOM      6  F   UNL     1      41.747   5.424  11.785  0.00  0.00    +0.000 F 
ATOM      7  C   UNL     1      43.211   3.921  10.696  0.00  0.00    +0.000 A 
ATOM      8  C   UNL     1      44.477   3.347  10.582  0.00  0.00    +0.000 A 
ATOM      9  C   UNL     1      45.455   3.698  11.517  0.00  0.00    +0.000 A 
BRANCH   8  10
ATOM     10  O   UNL     1      44.658   2.452   9.550  0.00  0.00    +0.000 OA
BRANCH  10  11
ATOM     11  C   UNL     1      45.850   2.590   8.764  0.00  0.00    +0.000 C 
ATOM     12  C   UNL     1      45.724   3.634   7.661  0.00  0.00    +0.000 C 
ATOM     13  C   UNL     1      46.594   3.154   6.506  0.00  0.00    +0.000 C 
ATOM     14  C   UNL     1      47.011   1.721   6.813  0.00  0.00    +0.000 C 
ATOM     15  C   UNL     1      46.223   1.286   8.045  0.00  0.00    +0.000 C 
ENDBRANCH  10  11
ENDBRANCH   8  10
ENDBRANCH   2   3
BRANCH   2  16
ATOM     16  C   UNL     1      47.335   5.974  12.905  0.00  0.00    +0.000 C 
BRANCH  16  17
ATOM     17  O   UNL     1      47.445   7.135  13.752  0.00  0.00    +0.000 OA
BRANCH  17  18
ATOM     18  C   UNL     1      46.919   8.262  13.145  0.00  0.00    +0.000 A 
ATOM     19  C   UNL     1      47.782   9.284  12.773  0.00  0.00    +0.000 A 
ATOM     20  C   UNL     1      47.240  10.391  12.113  0.00  0.00    +0.000 A 
ATOM     21  C   UNL     1      45.868  10.446  11.839  0.00  0.00    +0.000 A 
ATOM     22  C   UNL     1      45.098   9.371  12.268  0.00  0.00    +0.000 A 
ATOM     23  N   UNL     1      45.592   8.300  12.910  0.00  0.00    +0.000 NA
BRANCH  21  24
ATOM     24  C   UNL     1      45.303  11.598  11.108  0.00  0.00    +0.000 C 
ATOM     25  N   UNL     1      44.556  12.532  11.785  0.00  0.00    +0.000 N 
ATOM     26  O   UNL     1      45.485  11.732   9.902  0.00  0.00    +0.000 OA
ATOM     27  H   UNL     1      44.334  12.522  12.768  0.00  0.00    +0.000 HD
ATOM     28  H   UNL     1      44.186  13.293  11.233  0.00  0.00    +0.000 HD
ENDBRANCH  21  24
ENDBRANCH  17  18
ENDBRANCH  16  17
ENDBRANCH   2  16
TORSDOF 7
ENDMDL
MODEL 7
REMARK VINA RESULT:    -6.895      3.980      7.595
REMARK INTER + INTRA:         -10.876
REMARK INTER:                  -9.912
REMARK INTRA:                  -0.964
REMARK UNBOUND:                -1.159
REMARK  Name = 
REMARK  8 active torsions:
REMARK  status: ('A' for Active; 'I' for Inactive)
REMARK    1  A    between atoms: C_1  and  C_2
REMARK    2  A    between atoms: C_2  and  C_3
REMARK    3  A    between atoms: C_2  and  C_14
REMARK    4  A    between atoms: C_3  and  O_4
REMARK    5  A    between atoms: O_4  and  C_5
REMARK    6  A    between atoms: C_8  and  C_9
REMARK    7  A    between atoms: C_19  and  O_20
REMARK    8  A    between atoms: O_20  and  C_21
REMARK                            x       y       z     vdW  Elec       q    Type
REMARK                         _______ _______ _______ _____ _____    ______ ____
ROOT
ATOM      1  C   UNL     1      47.041   3.516  14.030  0.00  0.00    +0.000 C 
ATOM      2  C   UNL     1      46.138   4.749  13.951  0.00  0.00    +0.000 C 
ENDROOT
BRANCH   2   3
ATOM      3  C   UNL     1      45.074   4.587  12.874  0.00  0.00    +0.000 A 
ATOM      4  C   UNL     1      43.884   5.326  12.859  0.00  0.00    +0.000 A 
ATOM      5  C   UNL     1      42.948   5.101  11.849  0.00  0.00    +0.000 A 
ATOM      6  F   UNL     1      41.805   5.803  11.852  0.00  0.00    +0.000 F 
ATOM      7  C   UNL     1      43.177   4.164  10.840  0.00  0.00    +0.000 A 
ATOM      8  C   UNL     1      44.371   3.445  10.816  0.00  0.00    +0.000 A 
ATOM      9  C   UNL     1      45.294   3.650  11.846  0.00  0.00    +0.000 A 
BRANCH   8  10
ATOM     10  O   UNL     1      44.540   2.563   9.772  0.00  0.00    +0.000 OA
BRANCH  10  11
ATOM     11  C   UNL     1      45.722   2.711   8.972  0.00  0.00    +0.000 C 
ATOM     12  C   UNL     1      45.571   3.745   7.864  0.00  0.00    +0.000 C 
ATOM     13  C   UNL     1      46.436   3.269   6.704  0.00  0.00    +0.000 C 
ATOM     14  C   UNL     1      46.874   1.843   7.016  0.00  0.00    +0.000 C 
ATOM     15  C   UNL     1      46.104   1.407   8.258  0.00  0.00    +0.000 C 
ENDBRANCH  10  11
ENDBRANCH   8  10
ENDBRANCH   2   3
BRANCH   2  16
ATOM     16  C   UNL     1      46.950   6.040  13.758  0.00  0.00    +0.000 C 
BRANCH  16  17
ATOM     17  O   UNL     1      48.212   5.748  13.124  0.00  0.00    +0.000 OA
BRANCH  17  18
ATOM     18  C   UNL     1      48.921   6.904  12.843  0.00  0.00    +0.000 A 
ATOM     19  C   UNL     1      48.585   7.633  11.710  0.00  0.00    +0.000 A 
ATOM     20  C   UNL     1      49.276   8.825  11.471  0.00  0.00    +0.000 A 
ATOM     21  C   UNL     1      50.267   9.256  12.360  0.00  0.00    +0.000 A 
ATOM     22  C   UNL     1      50.527   8.440  13.455  0.00  0.00    +0.000 A 
ATOM     23  N   UNL     1      49.885   7.287  13.704  0.00  0.00    +0.000 NA
BRANCH  21  24
ATOM     24  C   UNL     1      50.969  10.535  12.127  0.00  0.00    +0.000 C 
ATOM     25  N   UNL     1      51.023  11.472  13.131  0.00  0.00    +0.000 N 
ATOM     26  O   UNL     1      51.501  10.776  11.048  0.00  0.00    +0.000 OA
ATOM     27  H   UNL     1      50.619  11.388  14.050  0.00  0.00    +0.000 HD
ATOM     28  H   UNL     1      51.508  12.331  12.913  0.00  0.00    +0.000 HD
ENDBRANCH  21  24
ENDBRANCH  17  18
ENDBRANCH  16  17
ENDBRANCH   2  16
TORSDOF 7
ENDMDL
MODEL 8
REMARK VINA RESULT:    -6.769      3.869      8.492
REMARK INTER + INTRA:         -10.698
REMARK INTER:                 -10.080
REMARK INTRA:                  -0.618
REMARK UNBOUND:                -1.159
REMARK  Name = 
REMARK  8 active torsions:
REMARK  status: ('A' for Active; 'I' for Inactive)
REMARK    1  A    between atoms: C_1  and  C_2
REMARK    2  A    between atoms: C_2  and  C_3
REMARK    3  A    between atoms: C_2  and  C_14
REMARK    4  A    between atoms: C_3  and  O_4
REMARK    5  A    between atoms: O_4  and  C_5
REMARK    6  A    between atoms: C_8  and  C_9
REMARK    7  A    between atoms: C_19  and  O_20
REMARK    8  A    between atoms: O_20  and  C_21
REMARK                            x       y       z     vdW  Elec       q    Type
REMARK                         _______ _______ _______ _____ _____    ______ ____
ROOT
ATOM      1  C   UNL     1      47.077   3.883  14.049  0.00  0.00    +0.000 C 
ATOM      2  C   UNL     1      46.413   5.172  13.558  0.00  0.00    +0.000 C 
ENDROOT
BRANCH   2   3
ATOM      3  C   UNL     1      45.207   4.872  12.678  0.00  0.00    +0.000 A 
ATOM      4  C   UNL     1      44.053   5.667  12.667  0.00  0.00    +0.000 A 
ATOM      5  C   UNL     1      42.981   5.310  11.849  0.00  0.00    +0.000 A 
ATOM      6  F   UNL     1      41.875   6.069  11.857  0.00  0.00    +0.000 F 
ATOM      7  C   UNL     1      43.036   4.184  11.027  0.00  0.00    +0.000 A 
ATOM      8  C   UNL     1      44.189   3.401  10.995  0.00  0.00    +0.000 A 
ATOM      9  C   UNL     1      45.251   3.743  11.838  0.00  0.00    +0.000 A 
BRANCH   8  10
ATOM     10  O   UNL     1      44.182   2.325  10.134  0.00  0.00    +0.000 OA
BRANCH  10  11
ATOM     11  C   UNL     1      44.683   2.544   8.808  0.00  0.00    +0.000 C 
ATOM     12  C   UNL     1      45.834   1.616   8.441  0.00  0.00    +0.000 C 
ATOM     13  C   UNL     1      46.737   2.395   7.494  0.00  0.00    +0.000 C 
ATOM     14  C   UNL     1      46.276   3.848   7.515  0.00  0.00    +0.000 C 
ATOM     15  C   UNL     1      45.236   3.964   8.625  0.00  0.00    +0.000 C 
ENDBRANCH  10  11
ENDBRANCH   8  10
ENDBRANCH   2   3
BRANCH   2  16
ATOM     16  C   UNL     1      47.417   6.097  12.850  0.00  0.00    +0.000 C 
BRANCH  16  17
ATOM     17  O   UNL     1      48.664   6.129  13.571  0.00  0.00    +0.000 OA
BRANCH  17  18
ATOM     18  C   UNL     1      48.645   7.075  14.582  0.00  0.00    +0.000 A 
ATOM     19  C   UNL     1      48.301   8.382  14.266  0.00  0.00    +0.000 A 
ATOM     20  C   UNL     1      48.236   9.312  15.308  0.00  0.00    +0.000 A 
ATOM     21  C   UNL     1      48.505   8.916  16.623  0.00  0.00    +0.000 A 
ATOM     22  C   UNL     1      48.850   7.584  16.821  0.00  0.00    +0.000 A 
ATOM     23  N   UNL     1      48.929   6.673  15.838  0.00  0.00    +0.000 NA
BRANCH  21  24
ATOM     24  C   UNL     1      48.398   9.890  17.729  0.00  0.00    +0.000 C 
ATOM     25  N   UNL     1      47.656  11.034  17.557  0.00  0.00    +0.000 N 
ATOM     26  O   UNL     1      48.967   9.697  18.799  0.00  0.00    +0.000 OA
ATOM     27  H   UNL     1      47.154  11.302  16.725  0.00  0.00    +0.000 HD
ATOM     28  H   UNL     1      47.625  11.668  18.342  0.00  0.00    +0.000 HD
ENDBRANCH  21  24
ENDBRANCH  17  18
ENDBRANCH  16  17
ENDBRANCH   2  16
TORSDOF 7
ENDMDL
MODEL 9
REMARK VINA RESULT:    -6.681      3.619      7.762
REMARK INTER + INTRA:         -10.573
REMARK INTER:                  -9.418
REMARK INTRA:                  -1.155
REMARK UNBOUND:                -1.159
REMARK  Name = 
REMARK  8 active torsions:
REMARK  status: ('A' for Active; 'I' for Inactive)
REMARK    1  A    between atoms: C_1  and  C_2
REMARK    2  A    between atoms: C_2  and  C_3
REMARK    3  A    between atoms: C_2  and  C_14
REMARK    4  A    between atoms: C_3  and  O_4
REMARK    5  A    between atoms: O_4  and  C_5
REMARK    6  A    between atoms: C_8  and  C_9
REMARK    7  A    between atoms: C_19  and  O_20
REMARK    8  A    between atoms: O_20  and  C_21
REMARK                            x       y       z     vdW  Elec       q    Type
REMARK                         _______ _______ _______ _____ _____    ______ ____
ROOT
ATOM      1  C   UNL     1      49.014   9.252  12.012  0.00  0.00    +0.000 C 
ATOM      2  C   UNL     1      48.580   7.798  11.820  0.00  0.00    +0.000 C 
ENDROOT
BRANCH   2   3
ATOM      3  C   UNL     1      47.066   7.683  11.703  0.00  0.00    +0.000 A 
ATOM      4  C   UNL     1      46.210   8.791  11.760  0.00  0.00    +0.000 A 
ATOM      5  C   UNL     1      44.831   8.599  11.668  0.00  0.00    +0.000 A 
ATOM      6  F   UNL     1      44.018   9.663  11.740  0.00  0.00    +0.000 F 
ATOM      7  C   UNL     1      44.283   7.326  11.503  0.00  0.00    +0.000 A 
ATOM      8  C   UNL     1      45.120   6.215  11.405  0.00  0.00    +0.000 A 
ATOM      9  C   UNL     1      46.499   6.407  11.529  0.00  0.00    +0.000 A 
BRANCH   8  10
ATOM     10  O   UNL     1      44.508   4.996  11.210  0.00  0.00    +0.000 OA
BRANCH  10  11
ATOM     11  C   UNL     1      45.158   4.070  10.328  0.00  0.00    +0.000 C 
ATOM     12  C   UNL     1      45.286   4.588   8.901  0.00  0.00    +0.000 C 
ATOM     13  C   UNL     1      45.204   3.372   7.987  0.00  0.00    +0.000 C 
ATOM     14  C   UNL     1      44.763   2.189   8.840  0.00  0.00    +0.000 C 
ATOM     15  C   UNL     1      44.389   2.747  10.209  0.00  0.00    +0.000 C 
ENDBRANCH  10  11
ENDBRANCH   8  10
ENDBRANCH   2   3
BRANCH   2  16
ATOM     16  C   UNL     1      49.134   6.886  12.927  0.00  0.00    +0.000 C 
BRANCH  16  17
ATOM     17  O   UNL     1      48.836   7.434  14.225  0.00  0.00    +0.000 OA
BRANCH  17  18
ATOM     18  C   UNL     1      48.472   6.447  15.125  0.00  0.00    +0.000 A 
ATOM     19  C   UNL     1      47.595   5.455  14.708  0.00  0.00    +0.000 A 
ATOM     20  C   UNL     1      47.280   4.437  15.614  0.00  0.00    +0.000 A 
ATOM     21  C   UNL     1      47.846   4.433  16.894  0.00  0.00    +0.000 A 
ATOM     22  C   UNL     1      48.701   5.483  17.206  0.00  0.00    +0.000 A 
ATOM     23  N   UNL     1      49.014   6.477  16.360  0.00  0.00    +0.000 NA
BRANCH  21  24
ATOM     24  C   UNL     1      47.543   3.336  17.836  0.00  0.00    +0.000 C 
ATOM     25  N   UNL     1      48.336   3.153  18.943  0.00  0.00    +0.000 N 
ATOM     26  O   UNL     1      46.595   2.581  17.643  0.00  0.00    +0.000 OA
ATOM     27  H   UNL     1      49.142   3.702  19.199  0.00  0.00    +0.000 HD
ATOM     28  H   UNL     1      48.089   2.383  19.547  0.00  0.00    +0.000 HD
ENDBRANCH  21  24
ENDBRANCH  17  18
ENDBRANCH  16  17
ENDBRANCH   2  16
TORSDOF 7
ENDMDL
