MODEL 1
REMARK VINA RESULT:    -7.059      0.000      0.000
REMARK INTER + INTRA:          -9.660
REMARK INTER:                  -8.916
REMARK INTRA:                  -0.745
REMARK UNBOUND:                -0.745
REMARK  Name = 
REMARK  5 active torsions:
REMARK  status: ('A' for Active; 'I' for Inactive)
REMARK    1  A    between atoms: O_1  and  C_2
REMARK    2  A    between atoms: C_5  and  C_6
REMARK    3  A    between atoms: C_6  and  C_7
REMARK    4  A    between atoms: C_7  and  C_8
REMARK    5  A    between atoms: C_12  and  C_13
REMARK                            x       y       z     vdW  Elec       q    Type
REMARK                         _______ _______ _______ _____ _____    ______ ____
ROOT
ATOM      1  C   UNL     1      45.370   3.995  12.620  0.00  0.00    +0.000 C 
ENDROOT
BRANCH   1   2
ATOM      2  C   UNL     1      46.037   5.353  12.714  0.00  0.00    +0.000 A 
ATOM      3  C   UNL     1      47.406   5.537  12.924  0.00  0.00    +0.000 A 
ATOM      4  C   UNL     1      47.960   6.815  12.887  0.00  0.00    +0.000 A 
ATOM      5  C   UNL     1      47.162   7.921  12.589  0.00  0.00    +0.000 A 
ATOM      6  C   UNL     1      45.792   7.774  12.315  0.00  0.00    +0.000 A 
ATOM      7  C   UNL     1      45.245   6.483  12.429  0.00  0.00    +0.000 A 
BRANCH   6   8
ATOM      8  C   UNL     1      44.981   8.895  11.810  0.00  0.00    +0.000 A 
ATOM      9  C   UNL     1      43.843   8.695  11.040  0.00  0.00    +0.000 A 
ATOM     10  N   UNL     1      43.004   9.670  10.627  0.00  0.00    +0.000 NA
ATOM     11  C   UNL     1      43.325  10.910  11.017  0.00  0.00    +0.000 A 
ATOM     12  N   UNL     1      44.397  11.250  11.745  0.00  0.00    +0.000 NA
ATOM     13  C   UNL     1      45.200  10.226  12.118  0.00  0.00    +0.000 A 
ENDBRANCH   6   8
ENDBRANCH   1   2
BRANCH   1  14
ATOM     14  C   UNL     1      44.436   3.784  11.433  0.00  0.00    +0.000 C 
ATOM     15  C   UNL     1      43.253   2.850  11.677  0.00  0.00    +0.000 C 
ATOM     16  C   UNL     1      43.014   4.319  11.566  0.00  0.00    +0.000 C 
BRANCH  14  20
ATOM     17  C   UNL     1      46.229   3.395   7.476  0.00  0.00    +0.000 A 
ATOM     18  C   UNL     1      45.895   2.256   8.197  0.00  0.00    +0.000 A 
ATOM     19  C   UNL     1      45.327   2.391   9.468  0.00  0.00    +0.000 A 
ATOM     20  C   UNL     1      45.095   3.654  10.052  0.00  0.00    +0.000 A 
ATOM     21  C   UNL     1      45.474   4.778   9.294  0.00  0.00    +0.000 A 
ATOM     22  C   UNL     1      46.026   4.654   8.016  0.00  0.00    +0.000 A 
BRANCH  17  23
ATOM     23  O   UNL     1      46.759   3.318   6.223  0.00  0.00    +0.000 OA
ATOM     24  H   UNL     1      47.638   2.909   6.283  0.00  0.00    +0.000 HD
ENDBRANCH  17  23
ENDBRANCH  14  20
ENDBRANCH   1  14
TORSDOF 5
ENDMDL
MODEL 2
REMARK VINA RESULT:    -6.965      3.797      5.153
REMARK INTER + INTRA:          -9.542
REMARK INTER:                  -8.784
REMARK INTRA:                  -0.759
REMARK UNBOUND:                -0.745
REMARK  Name = 
REMARK  5 active torsions:
REMARK  status: ('A' for Active; 'I' for Inactive)
REMARK    1  A    between atoms: O_1  and  C_2
REMARK    2  A    between atoms: C_5  and  C_6
REMARK    3  A    between atoms: C_6  and  C_7
REMARK    4  A    between atoms: C_7  and  C_8
REMARK    5  A    between atoms: C_12  and  C_13
REMARK                            x       y       z     vdW  Elec       q    Type
REMARK                         _______ _______ _______ _____ _____    ______ ____
ROOT
ATOM      1  C   UNL     1      44.811   4.279  12.744  0.00  0.00    +0.000 C 
ENDROOT
BRANCH   1   2
ATOM      2  C   UNL     1      46.055   5.020  13.191  0.00  0.00    +0.000 A 
ATOM      3  C   UNL     1      46.569   6.144  12.539  0.00  0.00    +0.000 A 
ATOM      4  C   UNL     1      47.653   6.837  13.076  0.00  0.00    +0.000 A 
ATOM      5  C   UNL     1      48.206   6.445  14.296  0.00  0.00    +0.000 A 
ATOM      6  C   UNL     1      47.684   5.355  15.011  0.00  0.00    +0.000 A 
ATOM      7  C   UNL     1      46.636   4.631  14.414  0.00  0.00    +0.000 A 
BRANCH   6   8
ATOM      8  C   UNL     1      48.124   5.050  16.384  0.00  0.00    +0.000 A 
ATOM      9  C   UNL     1      47.660   3.941  17.079  0.00  0.00    +0.000 A 
ATOM     10  N   UNL     1      48.095   3.552  18.298  0.00  0.00    +0.000 NA
ATOM     11  C   UNL     1      49.050   4.316  18.840  0.00  0.00    +0.000 A 
ATOM     12  N   UNL     1      49.578   5.420  18.293  0.00  0.00    +0.000 NA
ATOM     13  C   UNL     1      49.092   5.757  17.075  0.00  0.00    +0.000 A 
ENDBRANCH   6   8
ENDBRANCH   1   2
BRANCH   1  14
ATOM     14  C   UNL     1      44.217   4.708  11.407  0.00  0.00    +0.000 C 
ATOM     15  C   UNL     1      42.699   4.883  11.380  0.00  0.00    +0.000 C 
ATOM     16  C   UNL     1      43.575   6.090  11.344  0.00  0.00    +0.000 C 
BRANCH  14  20
ATOM     17  C   UNL     1      46.010   2.904   7.863  0.00  0.00    +0.000 A 
ATOM     18  C   UNL     1      46.050   4.282   8.031  0.00  0.00    +0.000 A 
ATOM     19  C   UNL     1      45.465   4.852   9.167  0.00  0.00    +0.000 A 
ATOM     20  C   UNL     1      44.821   4.069  10.147  0.00  0.00    +0.000 A 
ATOM     21  C   UNL     1      44.783   2.680   9.920  0.00  0.00    +0.000 A 
ATOM     22  C   UNL     1      45.379   2.100   8.797  0.00  0.00    +0.000 A 
BRANCH  17  23
ATOM     23  O   UNL     1      46.588   2.298   6.788  0.00  0.00    +0.000 OA
ATOM     24  H   UNL     1      45.923   2.211   6.087  0.00  0.00    +0.000 HD
ENDBRANCH  17  23
ENDBRANCH  14  20
ENDBRANCH   1  14
TORSDOF 5
ENDMDL
MODEL 3
REMARK VINA RESULT:    -6.749      2.850      4.285
REMARK INTER + INTRA:          -9.270
REMARK INTER:                  -8.763
REMARK INTRA:                  -0.507
REMARK UNBOUND:                -0.745
REMARK  Name = 
REMARK  5 active torsions:
REMARK  status: ('A' for Active; 'I' for Inactive)
REMARK    1  A    between atoms: O_1  and  C_2
REMARK    2  A    between atoms: C_5  and  C_6
REMARK    3  A    between atoms: C_6  and  C_7
REMARK    4  A    between atoms: C_7  and  C_8
REMARK    5  A    between atoms: C_12  and  C_13
REMARK                            x       y       z     vdW  Elec       q    Type
REMARK                         _______ _______ _______ _____ _____    ______ ____
ROOT
ATOM      1  C   UNL     1      45.386   3.931  12.443  0.00  0.00    +0.000 C 
ENDROOT
BRANCH   1   2
ATOM      2  C   UNL     1      45.903   5.346  12.608  0.00  0.00    +0.000 A 
ATOM      3  C   UNL     1      45.164   6.489  12.291  0.00  0.00    +0.000 A 
ATOM      4  C   UNL     1      45.668   7.757  12.575  0.00  0.00    +0.000 A 
ATOM      5  C   UNL     1      46.895   7.898  13.225  0.00  0.00    +0.000 A 
ATOM      6  C   UNL     1      47.644   6.775  13.611  0.00  0.00    +0.000 A 
ATOM      7  C   UNL     1      47.146   5.510  13.250  0.00  0.00    +0.000 A 
BRANCH   6   8
ATOM      8  C   UNL     1      48.838   6.900  14.466  0.00  0.00    +0.000 A 
ATOM      9  C   UNL     1      49.972   7.587  14.055  0.00  0.00    +0.000 A 
ATOM     10  N   UNL     1      51.059   7.820  14.823  0.00  0.00    +0.000 NA
ATOM     11  C   UNL     1      50.995   7.342  16.072  0.00  0.00    +0.000 A 
ATOM     12  N   UNL     1      49.975   6.650  16.596  0.00  0.00    +0.000 NA
ATOM     13  C   UNL     1      48.922   6.444  15.769  0.00  0.00    +0.000 A 
ENDBRANCH   6   8
ENDBRANCH   1   2
BRANCH   1  14
ATOM     14  C   UNL     1      44.417   3.700  11.288  0.00  0.00    +0.000 C 
ATOM     15  C   UNL     1      43.217   2.806  11.598  0.00  0.00    +0.000 C 
ATOM     16  C   UNL     1      43.012   4.275  11.436  0.00  0.00    +0.000 C 
BRANCH  14  20
ATOM     17  C   UNL     1      46.253   3.147   7.371  0.00  0.00    +0.000 A 
ATOM     18  C   UNL     1      46.035   4.430   7.855  0.00  0.00    +0.000 A 
ATOM     19  C   UNL     1      45.439   4.597   9.110  0.00  0.00    +0.000 A 
ATOM     20  C   UNL     1      45.036   3.499   9.897  0.00  0.00    +0.000 A 
ATOM     21  C   UNL     1      45.254   2.219   9.353  0.00  0.00    +0.000 A 
ATOM     22  C   UNL     1      45.865   2.041   8.108  0.00  0.00    +0.000 A 
BRANCH  17  23
ATOM     23  O   UNL     1      46.855   2.930   6.168  0.00  0.00    +0.000 OA
ATOM     24  H   UNL     1      46.166   2.821   5.492  0.00  0.00    +0.000 HD
ENDBRANCH  17  23
ENDBRANCH  14  20
ENDBRANCH   1  14
TORSDOF 5
ENDMDL
MODEL 4
REMARK VINA RESULT:    -6.651      2.665      3.878
REMARK INTER + INTRA:          -9.145
REMARK INTER:                  -8.599
REMARK INTRA:                  -0.546
REMARK UNBOUND:                -0.745
REMARK  Name = 
REMARK  5 active torsions:
REMARK  status: ('A' for Active; 'I' for Inactive)
REMARK    1  A    between atoms: O_1  and  C_2
REMARK    2  A    between atoms: C_5  and  C_6
REMARK    3  A    between atoms: C_6  and  C_7
REMARK    4  A    between atoms: C_7  and  C_8
REMARK    5  A    between atoms: C_12  and  C_13
REMARK                            x       y       z     vdW  Elec       q    Type
REMARK                         _______ _______ _______ _____ _____    ______ ____
ROOT
ATOM      1  C   UNL     1      45.473   4.836  12.156  0.00  0.00    +0.000 C 
ENDROOT
BRANCH   1   2
ATOM      2  C   UNL     1      45.881   6.296  12.183  0.00  0.00    +0.000 A 
ATOM      3  C   UNL     1      45.015   7.341  12.514  0.00  0.00    +0.000 A 
ATOM      4  C   UNL     1      45.493   8.646  12.624  0.00  0.00    +0.000 A 
ATOM      5  C   UNL     1      46.852   8.914  12.456  0.00  0.00    +0.000 A 
ATOM      6  C   UNL     1      47.766   7.885  12.179  0.00  0.00    +0.000 A 
ATOM      7  C   UNL     1      47.247   6.590  12.003  0.00  0.00    +0.000 A 
BRANCH   6   8
ATOM      8  C   UNL     1      49.221   8.118  12.192  0.00  0.00    +0.000 A 
ATOM      9  C   UNL     1      50.061   7.603  11.215  0.00  0.00    +0.000 A 
ATOM     10  N   UNL     1      51.384   7.859  11.115  0.00  0.00    +0.000 NA
ATOM     11  C   UNL     1      51.884   8.682  12.045  0.00  0.00    +0.000 A 
ATOM     12  N   UNL     1      51.196   9.237  13.052  0.00  0.00    +0.000 NA
ATOM     13  C   UNL     1      49.878   8.933  13.098  0.00  0.00    +0.000 A 
ENDBRANCH   6   8
ENDBRANCH   1   2
BRANCH   1  14
ATOM     14  C   UNL     1      44.502   4.430  11.053  0.00  0.00    +0.000 C 
ATOM     15  C   UNL     1      43.199   3.783  11.520  0.00  0.00    +0.000 C 
ATOM     16  C   UNL     1      43.174   5.177  10.988  0.00  0.00    +0.000 C 
BRANCH  14  20
ATOM     17  C   UNL     1      46.323   2.703   7.485  0.00  0.00    +0.000 A 
ATOM     18  C   UNL     1      46.272   4.082   7.634  0.00  0.00    +0.000 A 
ATOM     19  C   UNL     1      45.679   4.627   8.779  0.00  0.00    +0.000 A 
ATOM     20  C   UNL     1      45.116   3.816   9.785  0.00  0.00    +0.000 A 
ATOM     21  C   UNL     1      45.168   2.425   9.577  0.00  0.00    +0.000 A 
ATOM     22  C   UNL     1      45.773   1.871   8.446  0.00  0.00    +0.000 A 
BRANCH  17  23
ATOM     23  O   UNL     1      46.913   2.122   6.403  0.00  0.00    +0.000 OA
ATOM     24  H   UNL     1      47.728   1.681   6.694  0.00  0.00    +0.000 HD
ENDBRANCH  17  23
ENDBRANCH  14  20
ENDBRANCH   1  14
TORSDOF 5
ENDMDL
MODEL 5
REMARK VINA RESULT:    -6.414      4.945      7.801
REMARK INTER + INTRA:          -8.845
REMARK INTER:                  -7.872
REMARK INTRA:                  -0.973
REMARK UNBOUND:                -0.745
REMARK  Name = 
REMARK  5 active torsions:
REMARK  status: ('A' for Active; 'I' for Inactive)
REMARK    1  A    between atoms: O_1  and  C_2
REMARK    2  A    between atoms: C_5  and  C_6
REMARK    3  A    between atoms: C_6  and  C_7
REMARK    4  A    between atoms: C_7  and  C_8
REMARK    5  A    between atoms: C_12  and  C_13
REMARK                            x       y       z     vdW  Elec       q    Type
REMARK                         _______ _______ _______ _____ _____    ______ ____
ROOT
ATOM      1  C   UNL     1      49.897   7.067  15.125  0.00  0.00    +0.000 C 
ENDROOT
BRANCH   1   2
ATOM      2  C   UNL     1      48.973   7.145  13.926  0.00  0.00    +0.000 A 
ATOM      3  C   UNL     1      49.322   7.740  12.711  0.00  0.00    +0.000 A 
ATOM      4  C   UNL     1      48.458   7.672  11.619  0.00  0.00    +0.000 A 
ATOM      5  C   UNL     1      47.258   6.966  11.712  0.00  0.00    +0.000 A 
ATOM      6  C   UNL     1      46.895   6.306  12.897  0.00  0.00    +0.000 A 
ATOM      7  C   UNL     1      47.751   6.449  14.005  0.00  0.00    +0.000 A 
BRANCH   6   8
ATOM      8  C   UNL     1      45.735   5.399  12.953  0.00  0.00    +0.000 A 
ATOM      9  C   UNL     1      44.429   5.870  12.944  0.00  0.00    +0.000 A 
ATOM     10  N   UNL     1      43.325   5.092  12.896  0.00  0.00    +0.000 NA
ATOM     11  C   UNL     1      43.550   3.774  12.845  0.00  0.00    +0.000 A 
ATOM     12  N   UNL     1      44.752   3.181  12.863  0.00  0.00    +0.000 NA
ATOM     13  C   UNL     1      45.815   4.018  12.921  0.00  0.00    +0.000 A 
ENDBRANCH   6   8
ENDBRANCH   1   2
BRANCH   1  14
ATOM     14  C   UNL     1      49.300   7.496  16.462  0.00  0.00    +0.000 C 
ATOM     15  C   UNL     1      49.865   8.784  17.058  0.00  0.00    +0.000 C 
ATOM     16  C   UNL     1      48.492   8.789  16.477  0.00  0.00    +0.000 C 
BRANCH  14  20
ATOM     17  C   UNL     1      48.546   4.349  19.387  0.00  0.00    +0.000 A 
ATOM     18  C   UNL     1      49.475   4.143  18.376  0.00  0.00    +0.000 A 
ATOM     19  C   UNL     1      49.705   5.156  17.439  0.00  0.00    +0.000 A 
ATOM     20  C   UNL     1      49.009   6.381  17.477  0.00  0.00    +0.000 A 
ATOM     21  C   UNL     1      48.058   6.533  18.504  0.00  0.00    +0.000 A 
ATOM     22  C   UNL     1      47.833   5.535  19.456  0.00  0.00    +0.000 A 
BRANCH  17  23
ATOM     23  O   UNL     1      48.305   3.406  20.341  0.00  0.00    +0.000 OA
ATOM     24  H   UNL     1      48.817   3.631  21.134  0.00  0.00    +0.000 HD
ENDBRANCH  17  23
ENDBRANCH  14  20
ENDBRANCH   1  14
TORSDOF 5
ENDMDL
MODEL 6
REMARK VINA RESULT:    -6.335      5.113      7.571
REMARK INTER + INTRA:          -8.746
REMARK INTER:                  -7.702
REMARK INTRA:                  -1.043
REMARK UNBOUND:                -0.745
REMARK  Name = 
REMARK  5 active torsions:
REMARK  status: ('A' for Active; 'I' for Inactive)
REMARK    1  A    between atoms: O_1  and  C_2
REMARK    2  A    between atoms: C_5  and  C_6
REMARK    3  A    between atoms: C_6  and  C_7
REMARK    4  A    between atoms: C_7  and  C_8
REMARK    5  A    between atoms: C_12  and  C_13
REMARK                            x       y       z     vdW  Elec       q    Type
REMARK                         _______ _______ _______ _____ _____    ______ ____
ROOT
ATOM      1  C   UNL     1      49.217   6.938  17.297  0.00  0.00    +0.000 C 
ENDROOT
BRANCH   1   2
ATOM      2  C   UNL     1      49.078   7.011  15.789  0.00  0.00    +0.000 A 
ATOM      3  C   UNL     1      50.024   7.600  14.946  0.00  0.00    +0.000 A 
ATOM      4  C   UNL     1      49.876   7.529  13.562  0.00  0.00    +0.000 A 
ATOM      5  C   UNL     1      48.809   6.826  13.002  0.00  0.00    +0.000 A 
ATOM      6  C   UNL     1      47.867   6.172  13.812  0.00  0.00    +0.000 A 
ATOM      7  C   UNL     1      47.999   6.318  15.205  0.00  0.00    +0.000 A 
BRANCH   6   8
ATOM      8  C   UNL     1      46.853   5.268  13.242  0.00  0.00    +0.000 A 
ATOM      9  C   UNL     1      45.987   5.670  12.234  0.00  0.00    +0.000 A 
ATOM     10  N   UNL     1      45.104   4.866  11.603  0.00  0.00    +0.000 NA
ATOM     11  C   UNL     1      45.098   3.589  12.004  0.00  0.00    +0.000 A 
ATOM     12  N   UNL     1      45.864   3.067  12.972  0.00  0.00    +0.000 NA
ATOM     13  C   UNL     1      46.721   3.929  13.568  0.00  0.00    +0.000 A 
ENDBRANCH   6   8
ENDBRANCH   1   2
BRANCH   1  14
ATOM     14  C   UNL     1      48.703   5.663  17.958  0.00  0.00    +0.000 C 
ATOM     15  C   UNL     1      48.211   5.814  19.397  0.00  0.00    +0.000 C 
ATOM     16  C   UNL     1      47.218   5.611  18.302  0.00  0.00    +0.000 C 
BRANCH  14  20
ATOM     17  C   UNL     1      50.917   1.978  17.220  0.00  0.00    +0.000 A 
ATOM     18  C   UNL     1      51.576   3.088  17.732  0.00  0.00    +0.000 A 
ATOM     19  C   UNL     1      50.859   4.268  17.959  0.00  0.00    +0.000 A 
ATOM     20  C   UNL     1      49.483   4.372  17.668  0.00  0.00    +0.000 A 
ATOM     21  C   UNL     1      48.864   3.230  17.127  0.00  0.00    +0.000 A 
ATOM     22  C   UNL     1      49.568   2.041  16.913  0.00  0.00    +0.000 A 
BRANCH  17  23
ATOM     23  O   UNL     1      51.564   0.798  17.007  0.00  0.00    +0.000 OA
ATOM     24  H   UNL     1      51.171   0.366  16.232  0.00  0.00    +0.000 HD
ENDBRANCH  17  23
ENDBRANCH  14  20
ENDBRANCH   1  14
TORSDOF 5
ENDMDL
MODEL 7
REMARK VINA RESULT:    -6.329      4.047      5.937
REMARK INTER + INTRA:          -8.738
REMARK INTER:                  -8.327
REMARK INTRA:                  -0.411
REMARK UNBOUND:                -0.745
REMARK  Name = 
REMARK  5 active torsions:
REMARK  status: ('A' for Active; 'I' for Inactive)
REMARK    1  A    between atoms: O_1  and  C_2
REMARK    2  A    between atoms: C_5  and  C_6
REMARK    3  A    between atoms: C_6  and  C_7
REMARK    4  A    between atoms: C_7  and  C_8
REMARK    5  A    between atoms: C_12  and  C_13
REMARK                            x       y       z     vdW  Elec       q    Type
REMARK                         _______ _______ _______ _____ _____    ______ ____
ROOT
ATOM      1  C   UNL     1      47.307   6.916  11.750  0.00  0.00    +0.000 C 
ENDROOT
BRANCH   1   2
ATOM      2  C   UNL     1      48.102   7.067  13.032  0.00  0.00    +0.000 A 
ATOM      3  C   UNL     1      48.813   8.219  13.377  0.00  0.00    +0.000 A 
ATOM      4  C   UNL     1      49.427   8.321  14.625  0.00  0.00    +0.000 A 
ATOM      5  C   UNL     1      49.296   7.296  15.561  0.00  0.00    +0.000 A 
ATOM      6  C   UNL     1      48.543   6.145  15.276  0.00  0.00    +0.000 A 
ATOM      7  C   UNL     1      47.992   6.036  13.987  0.00  0.00    +0.000 A 
BRANCH   6   8
ATOM      8  C   UNL     1      48.232   5.149  16.316  0.00  0.00    +0.000 A 
ATOM      9  C   UNL     1      47.148   4.287  16.212  0.00  0.00    +0.000 A 
ATOM     10  N   UNL     1      46.864   3.290  17.079  0.00  0.00    +0.000 NA
ATOM     11  C   UNL     1      47.720   3.150  18.098  0.00  0.00    +0.000 A 
ATOM     12  N   UNL     1      48.795   3.917  18.331  0.00  0.00    +0.000 NA
ATOM     13  C   UNL     1      49.016   4.902  17.429  0.00  0.00    +0.000 A 
ENDBRANCH   6   8
ENDBRANCH   1   2
BRANCH   1  14
ATOM     14  C   UNL     1      45.791   7.015  11.883  0.00  0.00    +0.000 C 
ATOM     15  C   UNL     1      45.279   8.056  12.878  0.00  0.00    +0.000 C 
ATOM     16  C   UNL     1      45.137   8.310  11.415  0.00  0.00    +0.000 C 
BRANCH  14  20
ATOM     17  C   UNL     1      43.586   3.254  11.743  0.00  0.00    +0.000 A 
ATOM     18  C   UNL     1      42.997   4.417  11.265  0.00  0.00    +0.000 A 
ATOM     19  C   UNL     1      43.710   5.620  11.321  0.00  0.00    +0.000 A 
ATOM     20  C   UNL     1      45.009   5.693  11.863  0.00  0.00    +0.000 A 
ATOM     21  C   UNL     1      45.554   4.493  12.359  0.00  0.00    +0.000 A 
ATOM     22  C   UNL     1      44.857   3.284  12.292  0.00  0.00    +0.000 A 
BRANCH  17  23
ATOM     23  O   UNL     1      42.945   2.053  11.686  0.00  0.00    +0.000 OA
ATOM     24  H   UNL     1      42.055   2.159  12.057  0.00  0.00    +0.000 HD
ENDBRANCH  17  23
ENDBRANCH  14  20
ENDBRANCH   1  14
TORSDOF 5
ENDMDL
MODEL 8
REMARK VINA RESULT:    -6.194      4.422      7.548
REMARK INTER + INTRA:          -8.568
REMARK INTER:                  -7.359
REMARK INTRA:                  -1.209
REMARK UNBOUND:                -0.745
REMARK  Name = 
REMARK  5 active torsions:
REMARK  status: ('A' for Active; 'I' for Inactive)
REMARK    1  A    between atoms: O_1  and  C_2
REMARK    2  A    between atoms: C_5  and  C_6
REMARK    3  A    between atoms: C_6  and  C_7
REMARK    4  A    between atoms: C_7  and  C_8
REMARK    5  A    between atoms: C_12  and  C_13
REMARK                            x       y       z     vdW  Elec       q    Type
REMARK                         _______ _______ _______ _____ _____    ______ ____
ROOT
ATOM      1  C   UNL     1      49.246   7.105  13.740  0.00  0.00    +0.000 C 
ENDROOT
BRANCH   1   2
ATOM      2  C   UNL     1      47.777   7.351  13.457  0.00  0.00    +0.000 A 
ATOM      3  C   UNL     1      47.210   8.621  13.327  0.00  0.00    +0.000 A 
ATOM      4  C   UNL     1      45.874   8.762  12.956  0.00  0.00    +0.000 A 
ATOM      5  C   UNL     1      45.102   7.638  12.660  0.00  0.00    +0.000 A 
ATOM      6  C   UNL     1      45.648   6.346  12.724  0.00  0.00    +0.000 A 
ATOM      7  C   UNL     1      46.977   6.227  13.168  0.00  0.00    +0.000 A 
BRANCH   6   8
ATOM      8  C   UNL     1      44.910   5.171  12.229  0.00  0.00    +0.000 A 
ATOM      9  C   UNL     1      44.445   4.179  13.081  0.00  0.00    +0.000 A 
ATOM     10  N   UNL     1      43.682   3.129  12.706  0.00  0.00    +0.000 NA
ATOM     11  C   UNL     1      43.366   3.081  11.406  0.00  0.00    +0.000 A 
ATOM     12  N   UNL     1      43.757   3.957  10.471  0.00  0.00    +0.000 NA
ATOM     13  C   UNL     1      44.526   4.980  10.913  0.00  0.00    +0.000 A 
ENDBRANCH   6   8
ENDBRANCH   1   2
BRANCH   1  14
ATOM     14  C   UNL     1      49.745   7.532  15.116  0.00  0.00    +0.000 C 
ATOM     15  C   UNL     1      51.261   7.658  15.262  0.00  0.00    +0.000 C 
ATOM     16  C   UNL     1      50.425   8.893  15.216  0.00  0.00    +0.000 C 
BRANCH  14  20
ATOM     17  C   UNL     1      47.618   5.856  18.536  0.00  0.00    +0.000 A 
ATOM     18  C   UNL     1      47.953   7.203  18.525  0.00  0.00    +0.000 A 
ATOM     19  C   UNL     1      48.641   7.730  17.427  0.00  0.00    +0.000 A 
ATOM     20  C   UNL     1      49.022   6.930  16.330  0.00  0.00    +0.000 A 
ATOM     21  C   UNL     1      48.684   5.565  16.399  0.00  0.00    +0.000 A 
ATOM     22  C   UNL     1      47.981   5.032  17.483  0.00  0.00    +0.000 A 
BRANCH  17  23
ATOM     23  O   UNL     1      46.924   5.300  19.568  0.00  0.00    +0.000 OA
ATOM     24  H   UNL     1      46.691   4.388  19.329  0.00  0.00    +0.000 HD
ENDBRANCH  17  23
ENDBRANCH  14  20
ENDBRANCH   1  14
TORSDOF 5
ENDMDL
MODEL 9
REMARK VINA RESULT:    -5.817      4.564      7.104
REMARK INTER + INTRA:          -8.092
REMARK INTER:                  -6.965
REMARK INTRA:                  -1.127
REMARK UNBOUND:                -0.745
REMARK  Name = 
REMARK  5 active torsions:
REMARK  status: ('A' for Active; 'I' for Inactive)
REMARK    1  A    between atoms: O_1  and  C_2
REMARK    2  A    between atoms: C_5  and  C_6
REMARK    3  A    between atoms: C_6  and  C_7
REMARK    4  A    between atoms: C_7  and  C_8
REMARK    5  A    between atoms: C_12  and  C_13
REMARK                            x       y       z     vdW  Elec       q    Type
REMARK                         _______ _______ _______ _____ _____    ______ ____
ROOT
ATOM      1  C   UNL     1      48.938   8.996  13.915  0.00  0.00    +0.000 C 
ENDROOT
BRANCH   1   2
ATOM      2  C   UNL     1      49.683   8.088  14.873  0.00  0.00    +0.000 A 
ATOM      3  C   UNL     1      50.909   8.412  15.460  0.00  0.00    +0.000 A 
ATOM      4  C   UNL     1      51.476   7.571  16.417  0.00  0.00    +0.000 A 
ATOM      5  C   UNL     1      50.803   6.423  16.835  0.00  0.00    +0.000 A 
ATOM      6  C   UNL     1      49.543   6.090  16.311  0.00  0.00    +0.000 A 
ATOM      7  C   UNL     1      49.025   6.916  15.298  0.00  0.00    +0.000 A 
BRANCH   6   8
ATOM      8  C   UNL     1      48.735   4.996  16.879  0.00  0.00    +0.000 A 
ATOM      9  C   UNL     1      47.522   4.611  16.326  0.00  0.00    +0.000 A 
ATOM     10  N   UNL     1      46.781   3.558  16.737  0.00  0.00    +0.000 NA
ATOM     11  C   UNL     1      47.294   2.854  17.753  0.00  0.00    +0.000 A 
ATOM     12  N   UNL     1      48.443   3.120  18.391  0.00  0.00    +0.000 NA
ATOM     13  C   UNL     1      49.130   4.193  17.934  0.00  0.00    +0.000 A 
ENDBRANCH   6   8
ENDBRANCH   1   2
BRANCH   1  14
ATOM     14  C   UNL     1      48.738   8.462  12.501  0.00  0.00    +0.000 C 
ATOM     15  C   UNL     1      49.465   9.225  11.395  0.00  0.00    +0.000 C 
ATOM     16  C   UNL     1      49.961   7.878  11.801  0.00  0.00    +0.000 C 
BRANCH  14  20
ATOM     17  C   UNL     1      44.735   7.129  11.395  0.00  0.00    +0.000 A 
ATOM     18  C   UNL     1      44.933   8.434  11.826  0.00  0.00    +0.000 A 
ATOM     19  C   UNL     1      46.219   8.850  12.185  0.00  0.00    +0.000 A 
ATOM     20  C   UNL     1      47.326   7.978  12.138  0.00  0.00    +0.000 A 
ATOM     21  C   UNL     1      47.072   6.658  11.720  0.00  0.00    +0.000 A 
ATOM     22  C   UNL     1      45.793   6.237  11.343  0.00  0.00    +0.000 A 
BRANCH  17  23
ATOM     23  O   UNL     1      43.507   6.682  11.008  0.00  0.00    +0.000 OA
ATOM     24  H   UNL     1      43.587   6.282  10.127  0.00  0.00    +0.000 HD
ENDBRANCH  17  23
ENDBRANCH  14  20
ENDBRANCH   1  14
TORSDOF 5
ENDMDL
