MODEL 1
REMARK VINA RESULT:    -9.567      0.000      0.000
REMARK INTER + INTRA:         -13.579
REMARK INTER:                 -12.643
REMARK INTRA:                  -0.936
REMARK UNBOUND:                -0.936
REMARK  Name = 
REMARK  6 active torsions:
REMARK  status: ('A' for Active; 'I' for Inactive)
REMARK    1  A    between atoms: C_2  and  C_4
REMARK    2  A    between atoms: N_8  and  C_9
REMARK    3  A    between atoms: C_9  and  C_10
REMARK    4  A    between atoms: C_10  and  O_11
REMARK    5  A    between atoms: C_10  and  C_12
REMARK    6  A    between atoms: C_17  and  C_18
REMARK                            x       y       z     vdW  Elec       q    Type
REMARK                         _______ _______ _______ _____ _____    ______ ____
ROOT
ATOM      1  C   UNL     1      43.418   5.703  12.172  0.00  0.00    +0.000 C 
ENDROOT
BRANCH   1   2
ATOM      2  C   UNL     1      44.880   5.694  12.571  0.00  0.00    +0.000 A 
ATOM      3  C   UNL     1      45.399   4.645  13.332  0.00  0.00    +0.000 A 
ATOM      4  C   UNL     1      46.734   4.671  13.711  0.00  0.00    +0.000 A 
ATOM      5  F   UNL     1      47.225   3.667  14.448  0.00  0.00    +0.000 F 
ATOM      6  C   UNL     1      47.575   5.719  13.343  0.00  0.00    +0.000 A 
ATOM      7  C   UNL     1      47.094   6.800  12.587  0.00  0.00    +0.000 A 
ATOM      8  C   UNL     1      45.730   6.761  12.225  0.00  0.00    +0.000 A 
BRANCH   7   9
ATOM      9  C   UNL     1      47.970   7.923  12.177  0.00  0.00    +0.000 A 
ATOM     10  C   UNL     1      49.306   7.715  11.801  0.00  0.00    +0.000 A 
ATOM     11  C   UNL     1      50.093   8.795  11.423  0.00  0.00    +0.000 A 
ATOM     12  N   UNL     1      49.656  10.068  11.399  0.00  0.00    +0.000 NA
ATOM     13  C   UNL     1      48.376  10.267  11.768  0.00  0.00    +0.000 A 
ATOM     14  C   UNL     1      47.511   9.248  12.149  0.00  0.00    +0.000 A 
ENDBRANCH   7   9
ENDBRANCH   1   2
BRANCH   1  15
ATOM     15  O   UNL     1      42.625   5.417  13.331  0.00  0.00    +0.000 OA
ATOM     16  H   UNL     1      42.286   4.509  13.229  0.00  0.00    +0.000 HD
ENDBRANCH   1  15
BRANCH   1  17
ATOM     17  C   UNL     1      43.154   4.676  11.050  0.00  0.00    +0.000 C 
BRANCH  17  22
ATOM     18  C   UNL     1      46.407   2.421   7.791  0.00  0.00    +0.000 A 
ATOM     19  C   UNL     1      45.639   1.899   8.826  0.00  0.00    +0.000 A 
ATOM     20  C   UNL     1      44.804   2.754   9.546  0.00  0.00    +0.000 A 
ATOM     21  C   UNL     1      44.761   4.112   9.239  0.00  0.00    +0.000 A 
ATOM     22  N   UNL     1      43.909   4.999   9.851  0.00  0.00    +0.000 N 
ATOM     23  N   UNL     1      45.532   4.631   8.266  0.00  0.00    +0.000 NA
ATOM     24  C   UNL     1      46.339   3.785   7.565  0.00  0.00    +0.000 A 
ATOM     25  H   UNL     1      44.141   5.964   9.628  0.00  0.00    +0.000 HD
BRANCH  18  27
ATOM     26  N   UNL     1      48.476   2.144   6.542  0.00  0.00    +0.000 N 
ATOM     27  C   UNL     1      47.297   1.590   6.953  0.00  0.00    +0.000 C 
ATOM     28  O   UNL     1      47.005   0.435   6.663  0.00  0.00    +0.000 OA
ATOM     29  H   UNL     1      49.117   1.525   6.059  0.00  0.00    +0.000 HD
ATOM     30  H   UNL     1      48.862   2.983   6.951  0.00  0.00    +0.000 HD
ENDBRANCH  18  27
ENDBRANCH  17  22
ENDBRANCH   1  17
TORSDOF 6
ENDMDL
MODEL 2
REMARK VINA RESULT:    -8.675      2.233      2.723
REMARK INTER + INTRA:         -12.400
REMARK INTER:                 -11.345
REMARK INTRA:                  -1.055
REMARK UNBOUND:                -0.936
REMARK  Name = 
REMARK  6 active torsions:
REMARK  status: ('A' for Active; 'I' for Inactive)
REMARK    1  A    between atoms: C_2  and  C_4
REMARK    2  A    between atoms: N_8  and  C_9
REMARK    3  A    between atoms: C_9  and  C_10
REMARK    4  A    between atoms: C_10  and  O_11
REMARK    5  A    between atoms: C_10  and  C_12
REMARK    6  A    between atoms: C_17  and  C_18
REMARK                            x       y       z     vdW  Elec       q    Type
REMARK                         _______ _______ _______ _____ _____    ______ ____
ROOT
ATOM      1  C   UNL     1      44.139   3.746  12.503  0.00  0.00    +0.000 C 
ENDROOT
BRANCH   1   2
ATOM      2  C   UNL     1      44.626   5.161  12.268  0.00  0.00    +0.000 A 
ATOM      3  C   UNL     1      43.769   6.125  11.732  0.00  0.00    +0.000 A 
ATOM      4  C   UNL     1      44.245   7.407  11.496  0.00  0.00    +0.000 A 
ATOM      5  F   UNL     1      43.421   8.326  10.975  0.00  0.00    +0.000 F 
ATOM      6  C   UNL     1      45.560   7.761  11.789  0.00  0.00    +0.000 A 
ATOM      7  C   UNL     1      46.460   6.823  12.318  0.00  0.00    +0.000 A 
ATOM      8  C   UNL     1      45.960   5.520  12.536  0.00  0.00    +0.000 A 
BRANCH   7   9
ATOM      9  C   UNL     1      47.862   7.177  12.645  0.00  0.00    +0.000 A 
ATOM     10  C   UNL     1      48.365   7.064  13.950  0.00  0.00    +0.000 A 
ATOM     11  C   UNL     1      49.686   7.406  14.212  0.00  0.00    +0.000 A 
ATOM     12  N   UNL     1      50.541   7.860  13.278  0.00  0.00    +0.000 NA
ATOM     13  C   UNL     1      50.055   7.976  12.028  0.00  0.00    +0.000 A 
ATOM     14  C   UNL     1      48.753   7.647  11.669  0.00  0.00    +0.000 A 
ENDBRANCH   7   9
ENDBRANCH   1   2
BRANCH   1  15
ATOM     15  O   UNL     1      45.264   2.923  12.835  0.00  0.00    +0.000 OA
ATOM     16  H   UNL     1      45.844   3.451  13.413  0.00  0.00    +0.000 HD
ENDBRANCH   1  15
BRANCH   1  17
ATOM     17  C   UNL     1      43.406   3.209  11.255  0.00  0.00    +0.000 C 
BRANCH  17  22
ATOM     18  C   UNL     1      46.538   2.688   7.230  0.00  0.00    +0.000 A 
ATOM     19  C   UNL     1      45.993   3.821   7.824  0.00  0.00    +0.000 A 
ATOM     20  C   UNL     1      45.180   3.669   8.948  0.00  0.00    +0.000 A 
ATOM     21  C   UNL     1      44.909   2.397   9.447  0.00  0.00    +0.000 A 
ATOM     22  N   UNL     1      44.182   2.174  10.592  0.00  0.00    +0.000 N 
ATOM     23  N   UNL     1      45.400   1.295   8.853  0.00  0.00    +0.000 NA
ATOM     24  C   UNL     1      46.197   1.456   7.759  0.00  0.00    +0.000 A 
ATOM     25  H   UNL     1      43.937   1.192  10.702  0.00  0.00    +0.000 HD
BRANCH  18  27
ATOM     26  N   UNL     1      48.769   2.544   6.269  0.00  0.00    +0.000 N 
ATOM     27  C   UNL     1      47.435   2.751   6.056  0.00  0.00    +0.000 C 
ATOM     28  O   UNL     1      46.998   2.949   4.928  0.00  0.00    +0.000 OA
ATOM     29  H   UNL     1      49.351   2.486   5.440  0.00  0.00    +0.000 HD
ATOM     30  H   UNL     1      49.135   2.143   7.120  0.00  0.00    +0.000 HD
ENDBRANCH  18  27
ENDBRANCH  17  22
ENDBRANCH   1  17
TORSDOF 6
ENDMDL
MODEL 3
REMARK VINA RESULT:    -8.636      2.134      2.601
REMARK INTER + INTRA:         -12.349
REMARK INTER:                 -11.789
REMARK INTRA:                  -0.560
REMARK UNBOUND:                -0.936
REMARK  Name = 
REMARK  6 active torsions:
REMARK  status: ('A' for Active; 'I' for Inactive)
REMARK    1  A    between atoms: C_2  and  C_4
REMARK    2  A    between atoms: N_8  and  C_9
REMARK    3  A    between atoms: C_9  and  C_10
REMARK    4  A    between atoms: C_10  and  O_11
REMARK    5  A    between atoms: C_10  and  C_12
REMARK    6  A    between atoms: C_17  and  C_18
REMARK                            x       y       z     vdW  Elec       q    Type
REMARK                         _______ _______ _______ _____ _____    ______ ____
ROOT
ATOM      1  C   UNL     1      43.910   4.668  12.414  0.00  0.00    +0.000 C 
ENDROOT
BRANCH   1   2
ATOM      2  C   UNL     1      44.956   5.759  12.305  0.00  0.00    +0.000 A 
ATOM      3  C   UNL     1      46.308   5.464  12.498  0.00  0.00    +0.000 A 
ATOM      4  C   UNL     1      47.246   6.484  12.423  0.00  0.00    +0.000 A 
ATOM      5  F   UNL     1      48.541   6.199  12.616  0.00  0.00    +0.000 F 
ATOM      6  C   UNL     1      46.873   7.799  12.153  0.00  0.00    +0.000 A 
ATOM      7  C   UNL     1      45.525   8.143  11.963  0.00  0.00    +0.000 A 
ATOM      8  C   UNL     1      44.586   7.094  12.058  0.00  0.00    +0.000 A 
BRANCH   7   9
ATOM      9  C   UNL     1      45.104   9.533  11.668  0.00  0.00    +0.000 A 
ATOM     10  C   UNL     1      45.975  10.620  11.845  0.00  0.00    +0.000 A 
ATOM     11  C   UNL     1      45.540  11.906  11.556  0.00  0.00    +0.000 A 
ATOM     12  N   UNL     1      44.303  12.197  11.112  0.00  0.00    +0.000 NA
ATOM     13  C   UNL     1      43.466  11.154  10.950  0.00  0.00    +0.000 A 
ATOM     14  C   UNL     1      43.816   9.833  11.202  0.00  0.00    +0.000 A 
ENDBRANCH   7   9
ENDBRANCH   1   2
BRANCH   1  15
ATOM     15  O   UNL     1      44.557   3.448  12.797  0.00  0.00    +0.000 OA
ATOM     16  H   UNL     1      45.027   3.624  13.632  0.00  0.00    +0.000 HD
ENDBRANCH   1  15
BRANCH   1  17
ATOM     17  C   UNL     1      43.158   4.502  11.075  0.00  0.00    +0.000 C 
BRANCH  17  22
ATOM     18  C   UNL     1      46.486   2.555   7.697  0.00  0.00    +0.000 A 
ATOM     19  C   UNL     1      45.662   1.936   8.629  0.00  0.00    +0.000 A 
ATOM     20  C   UNL     1      44.819   2.724   9.415  0.00  0.00    +0.000 A 
ATOM     21  C   UNL     1      44.825   4.110   9.273  0.00  0.00    +0.000 A 
ATOM     22  N   UNL     1      43.972   4.943   9.954  0.00  0.00    +0.000 N 
ATOM     23  N   UNL     1      45.650   4.718   8.401  0.00  0.00    +0.000 NA
ATOM     24  C   UNL     1      46.464   3.938   7.635  0.00  0.00    +0.000 A 
ATOM     25  H   UNL     1      44.238   5.921   9.860  0.00  0.00    +0.000 HD
BRANCH  18  27
ATOM     26  N   UNL     1      48.507   2.445   6.346  0.00  0.00    +0.000 N 
ATOM     27  C   UNL     1      47.389   1.804   6.800  0.00  0.00    +0.000 C 
ATOM     28  O   UNL     1      47.163   0.637   6.497  0.00  0.00    +0.000 OA
ATOM     29  H   UNL     1      49.165   1.881   5.820  0.00  0.00    +0.000 HD
ATOM     30  H   UNL     1      48.855   3.301   6.755  0.00  0.00    +0.000 HD
ENDBRANCH  18  27
ENDBRANCH  17  22
ENDBRANCH   1  17
TORSDOF 6
ENDMDL
MODEL 4
REMARK VINA RESULT:    -8.507      2.343      3.393
REMARK INTER + INTRA:         -12.178
REMARK INTER:                 -11.390
REMARK INTRA:                  -0.788
REMARK UNBOUND:                -0.936
REMARK  Name = 
REMARK  6 active torsions:
REMARK  status: ('A' for Active; 'I' for Inactive)
REMARK    1  A    between atoms: C_2  and  C_4
REMARK    2  A    between atoms: N_8  and  C_9
REMARK    3  A    between atoms: C_9  and  C_10
REMARK    4  A    between atoms: C_10  and  O_11
REMARK    5  A    between atoms: C_10  and  C_12
REMARK    6  A    between atoms: C_17  and  C_18
REMARK                            x       y       z     vdW  Elec       q    Type
REMARK                         _______ _______ _______ _____ _____    ______ ____
ROOT
ATOM      1  C   UNL     1      43.087   6.015  11.674  0.00  0.00    +0.000 C 
ENDROOT
BRANCH   1   2
ATOM      2  C   UNL     1      44.432   6.532  12.143  0.00  0.00    +0.000 A 
ATOM      3  C   UNL     1      44.956   7.716  11.622  0.00  0.00    +0.000 A 
ATOM      4  C   UNL     1      46.203   8.155  12.044  0.00  0.00    +0.000 A 
ATOM      5  F   UNL     1      46.706   9.288  11.535  0.00  0.00    +0.000 F 
ATOM      6  C   UNL     1      46.945   7.445  12.986  0.00  0.00    +0.000 A 
ATOM      7  C   UNL     1      46.462   6.244  13.529  0.00  0.00    +0.000 A 
ATOM      8  C   UNL     1      45.199   5.807  13.074  0.00  0.00    +0.000 A 
BRANCH   7   9
ATOM      9  C   UNL     1      47.230   5.474  14.537  0.00  0.00    +0.000 A 
ATOM     10  C   UNL     1      46.974   4.114  14.775  0.00  0.00    +0.000 A 
ATOM     11  C   UNL     1      47.717   3.430  15.728  0.00  0.00    +0.000 A 
ATOM     12  N   UNL     1      48.688   3.996  16.469  0.00  0.00    +0.000 NA
ATOM     13  C   UNL     1      48.927   5.302  16.244  0.00  0.00    +0.000 A 
ATOM     14  C   UNL     1      48.243   6.064  15.305  0.00  0.00    +0.000 A 
ENDBRANCH   7   9
ENDBRANCH   1   2
BRANCH   1  15
ATOM     15  O   UNL     1      42.264   5.768  12.821  0.00  0.00    +0.000 OA
ATOM     16  H   UNL     1      41.372   6.096  12.608  0.00  0.00    +0.000 HD
ENDBRANCH   1  15
BRANCH   1  17
ATOM     17  C   UNL     1      43.263   4.734  10.829  0.00  0.00    +0.000 C 
BRANCH  17  22
ATOM     18  C   UNL     1      46.446   2.309   7.624  0.00  0.00    +0.000 A 
ATOM     19  C   UNL     1      45.676   1.836   8.681  0.00  0.00    +0.000 A 
ATOM     20  C   UNL     1      44.863   2.731   9.378  0.00  0.00    +0.000 A 
ATOM     21  C   UNL     1      44.844   4.078   9.026  0.00  0.00    +0.000 A 
ATOM     22  N   UNL     1      44.015   5.002   9.614  0.00  0.00    +0.000 N 
ATOM     23  N   UNL     1      45.617   4.550   8.031  0.00  0.00    +0.000 NA
ATOM     24  C   UNL     1      46.402   3.665   7.353  0.00  0.00    +0.000 A 
ATOM     25  H   UNL     1      44.263   5.955   9.358  0.00  0.00    +0.000 HD
BRANCH  18  27
ATOM     26  N   UNL     1      48.360   2.015   6.152  0.00  0.00    +0.000 N 
ATOM     27  C   UNL     1      47.313   1.433   6.808  0.00  0.00    +0.000 C 
ATOM     28  O   UNL     1      47.121   0.224   6.746  0.00  0.00    +0.000 OA
ATOM     29  H   UNL     1      49.002   1.384   5.685  0.00  0.00    +0.000 HD
ATOM     30  H   UNL     1      48.696   2.943   6.366  0.00  0.00    +0.000 HD
ENDBRANCH  18  27
ENDBRANCH  17  22
ENDBRANCH   1  17
TORSDOF 6
ENDMDL
MODEL 5
REMARK VINA RESULT:    -7.827      3.377      7.097
REMARK INTER + INTRA:         -11.280
REMARK INTER:                 -10.620
REMARK INTRA:                  -0.660
REMARK UNBOUND:                -0.936
REMARK  Name = 
REMARK  6 active torsions:
REMARK  status: ('A' for Active; 'I' for Inactive)
REMARK    1  A    between atoms: C_2  and  C_4
REMARK    2  A    between atoms: N_8  and  C_9
REMARK    3  A    between atoms: C_9  and  C_10
REMARK    4  A    between atoms: C_10  and  O_11
REMARK    5  A    between atoms: C_10  and  C_12
REMARK    6  A    between atoms: C_17  and  C_18
REMARK                            x       y       z     vdW  Elec       q    Type
REMARK                         _______ _______ _______ _____ _____    ______ ____
ROOT
ATOM      1  C   UNL     1      46.122   7.626  12.255  0.00  0.00    +0.000 C 
ENDROOT
BRANCH   1   2
ATOM      2  C   UNL     1      45.221   6.608  11.585  0.00  0.00    +0.000 A 
ATOM      3  C   UNL     1      43.864   6.542  11.908  0.00  0.00    +0.000 A 
ATOM      4  C   UNL     1      43.064   5.583  11.304  0.00  0.00    +0.000 A 
ATOM      5  F   UNL     1      41.764   5.518  11.623  0.00  0.00    +0.000 F 
ATOM      6  C   UNL     1      43.581   4.683  10.374  0.00  0.00    +0.000 A 
ATOM      7  C   UNL     1      44.941   4.706  10.027  0.00  0.00    +0.000 A 
ATOM      8  C   UNL     1      45.740   5.679  10.664  0.00  0.00    +0.000 A 
BRANCH   7   9
ATOM      9  C   UNL     1      45.513   3.764   9.035  0.00  0.00    +0.000 A 
ATOM     10  C   UNL     1      46.171   4.220   7.882  0.00  0.00    +0.000 A 
ATOM     11  C   UNL     1      46.693   3.303   6.978  0.00  0.00    +0.000 A 
ATOM     12  N   UNL     1      46.604   1.969   7.128  0.00  0.00    +0.000 NA
ATOM     13  C   UNL     1      45.965   1.534   8.231  0.00  0.00    +0.000 A 
ATOM     14  C   UNL     1      45.422   2.374   9.195  0.00  0.00    +0.000 A 
ENDBRANCH   7   9
ENDBRANCH   1   2
BRANCH   1  15
ATOM     15  O   UNL     1      45.809   8.925  11.739  0.00  0.00    +0.000 OA
ATOM     16  H   UNL     1      45.928   9.559  12.469  0.00  0.00    +0.000 HD
ENDBRANCH   1  15
BRANCH   1  17
ATOM     17  C   UNL     1      47.607   7.275  12.019  0.00  0.00    +0.000 C 
BRANCH  17  22
ATOM     18  C   UNL     1      47.679   4.346  16.225  0.00  0.00    +0.000 A 
ATOM     19  C   UNL     1      47.002   4.199  15.020  0.00  0.00    +0.000 A 
ATOM     20  C   UNL     1      47.193   5.151  14.017  0.00  0.00    +0.000 A 
ATOM     21  C   UNL     1      48.035   6.238  14.238  0.00  0.00    +0.000 A 
ATOM     22  N   UNL     1      48.332   7.173  13.275  0.00  0.00    +0.000 N 
ATOM     23  N   UNL     1      48.661   6.408  15.417  0.00  0.00    +0.000 NA
ATOM     24  C   UNL     1      48.471   5.469  16.386  0.00  0.00    +0.000 A 
ATOM     25  H   UNL     1      48.813   7.980  13.663  0.00  0.00    +0.000 HD
BRANCH  18  27
ATOM     26  N   UNL     1      48.649   3.217  18.150  0.00  0.00    +0.000 N 
ATOM     27  C   UNL     1      47.565   3.374  17.333  0.00  0.00    +0.000 C 
ATOM     28  O   UNL     1      46.527   2.753  17.534  0.00  0.00    +0.000 OA
ATOM     29  H   UNL     1      48.515   2.626  18.963  0.00  0.00    +0.000 HD
ATOM     30  H   UNL     1      49.419   3.869  18.173  0.00  0.00    +0.000 HD
ENDBRANCH  18  27
ENDBRANCH  17  22
ENDBRANCH   1  17
TORSDOF 6
ENDMDL
MODEL 6
REMARK VINA RESULT:    -7.076      3.025      6.994
REMARK INTER + INTRA:         -10.287
REMARK INTER:                  -9.614
REMARK INTRA:                  -0.674
REMARK UNBOUND:                -0.936
REMARK  Name = 
REMARK  6 active torsions:
REMARK  status: ('A' for Active; 'I' for Inactive)
REMARK    1  A    between atoms: C_2  and  C_4
REMARK    2  A    between atoms: N_8  and  C_9
REMARK    3  A    between atoms: C_9  and  C_10
REMARK    4  A    between atoms: C_10  and  O_11
REMARK    5  A    between atoms: C_10  and  C_12
REMARK    6  A    between atoms: C_17  and  C_18
REMARK                            x       y       z     vdW  Elec       q    Type
REMARK                         _______ _______ _______ _____ _____    ______ ____
ROOT
ATOM      1  C   UNL     1      44.115   6.459  11.646  0.00  0.00    +0.000 C 
ENDROOT
BRANCH   1   2
ATOM      2  C   UNL     1      44.128   5.032  11.137  0.00  0.00    +0.000 A 
ATOM      3  C   UNL     1      43.385   4.043  11.784  0.00  0.00    +0.000 A 
ATOM      4  C   UNL     1      43.435   2.736  11.319  0.00  0.00    +0.000 A 
ATOM      5  F   UNL     1      42.726   1.789  11.948  0.00  0.00    +0.000 F 
ATOM      6  C   UNL     1      44.206   2.386  10.213  0.00  0.00    +0.000 A 
ATOM      7  C   UNL     1      44.978   3.345   9.538  0.00  0.00    +0.000 A 
ATOM      8  C   UNL     1      44.925   4.664  10.036  0.00  0.00    +0.000 A 
BRANCH   7   9
ATOM      9  C   UNL     1      45.801   2.998   8.355  0.00  0.00    +0.000 A 
ATOM     10  C   UNL     1      46.277   1.694   8.145  0.00  0.00    +0.000 A 
ATOM     11  C   UNL     1      47.045   1.412   7.022  0.00  0.00    +0.000 A 
ATOM     12  N   UNL     1      47.384   2.329   6.098  0.00  0.00    +0.000 NA
ATOM     13  C   UNL     1      46.934   3.581   6.304  0.00  0.00    +0.000 A 
ATOM     14  C   UNL     1      46.151   3.954   7.390  0.00  0.00    +0.000 A 
ENDBRANCH   7   9
ENDBRANCH   1   2
BRANCH   1  15
ATOM     15  O   UNL     1      43.131   7.199  10.912  0.00  0.00    +0.000 OA
ATOM     16  H   UNL     1      42.299   7.145  11.416  0.00  0.00    +0.000 HD
ENDBRANCH   1  15
BRANCH   1  17
ATOM     17  C   UNL     1      45.513   7.099  11.503  0.00  0.00    +0.000 C 
BRANCH  17  22
ATOM     18  C   UNL     1      50.242   8.055  13.237  0.00  0.00    +0.000 A 
ATOM     19  C   UNL     1      49.618   8.401  12.044  0.00  0.00    +0.000 A 
ATOM     20  C   UNL     1      48.288   8.027  11.844  0.00  0.00    +0.000 A 
ATOM     21  C   UNL     1      47.612   7.302  12.822  0.00  0.00    +0.000 A 
ATOM     22  N   UNL     1      46.283   6.965  12.729  0.00  0.00    +0.000 N 
ATOM     23  N   UNL     1      48.222   6.929  13.961  0.00  0.00    +0.000 NA
ATOM     24  C   UNL     1      49.519   7.305  14.147  0.00  0.00    +0.000 A 
ATOM     25  H   UNL     1      46.010   6.292  13.441  0.00  0.00    +0.000 HD
BRANCH  18  27
ATOM     26  N   UNL     1      52.280   7.719  14.523  0.00  0.00    +0.000 N 
ATOM     27  C   UNL     1      51.636   8.433  13.552  0.00  0.00    +0.000 C 
ATOM     28  O   UNL     1      52.207   9.332  12.945  0.00  0.00    +0.000 OA
ATOM     29  H   UNL     1      53.265   7.923  14.650  0.00  0.00    +0.000 HD
ATOM     30  H   UNL     1      51.942   6.833  14.870  0.00  0.00    +0.000 HD
ENDBRANCH  18  27
ENDBRANCH  17  22
ENDBRANCH   1  17
TORSDOF 6
ENDMDL
MODEL 7
REMARK VINA RESULT:    -6.958      3.464      7.828
REMARK INTER + INTRA:         -10.131
REMARK INTER:                  -9.478
REMARK INTRA:                  -0.653
REMARK UNBOUND:                -0.936
REMARK  Name = 
REMARK  6 active torsions:
REMARK  status: ('A' for Active; 'I' for Inactive)
REMARK    1  A    between atoms: C_2  and  C_4
REMARK    2  A    between atoms: N_8  and  C_9
REMARK    3  A    between atoms: C_9  and  C_10
REMARK    4  A    between atoms: C_10  and  O_11
REMARK    5  A    between atoms: C_10  and  C_12
REMARK    6  A    between atoms: C_17  and  C_18
REMARK                            x       y       z     vdW  Elec       q    Type
REMARK                         _______ _______ _______ _____ _____    ______ ____
ROOT
ATOM      1  C   UNL     1      45.032   6.467  11.507  0.00  0.00    +0.000 C 
ENDROOT
BRANCH   1   2
ATOM      2  C   UNL     1      44.764   5.076  10.969  0.00  0.00    +0.000 A 
ATOM      3  C   UNL     1      43.848   4.235  11.603  0.00  0.00    +0.000 A 
ATOM      4  C   UNL     1      43.641   2.954  11.111  0.00  0.00    +0.000 A 
ATOM      5  F   UNL     1      42.766   2.149  11.728  0.00  0.00    +0.000 F 
ATOM      6  C   UNL     1      44.322   2.486   9.989  0.00  0.00    +0.000 A 
ATOM      7  C   UNL     1      45.261   3.292   9.326  0.00  0.00    +0.000 A 
ATOM      8  C   UNL     1      45.467   4.586   9.852  0.00  0.00    +0.000 A 
BRANCH   7   9
ATOM      9  C   UNL     1      45.993   2.820   8.127  0.00  0.00    +0.000 A 
ATOM     10  C   UNL     1      46.249   3.668   7.038  0.00  0.00    +0.000 A 
ATOM     11  C   UNL     1      46.939   3.185   5.934  0.00  0.00    +0.000 A 
ATOM     12  N   UNL     1      47.386   1.920   5.826  0.00  0.00    +0.000 NA
ATOM     13  C   UNL     1      47.133   1.105   6.867  0.00  0.00    +0.000 A 
ATOM     14  C   UNL     1      46.462   1.503   8.017  0.00  0.00    +0.000 A 
ENDBRANCH   7   9
ENDBRANCH   1   2
BRANCH   1  15
ATOM     15  O   UNL     1      44.334   7.416  10.691  0.00  0.00    +0.000 OA
ATOM     16  H   UNL     1      43.826   7.991  11.292  0.00  0.00    +0.000 HD
ENDBRANCH   1  15
BRANCH   1  17
ATOM     17  C   UNL     1      46.548   6.759  11.528  0.00  0.00    +0.000 C 
BRANCH  17  22
ATOM     18  C   UNL     1      48.870   8.094  15.899  0.00  0.00    +0.000 A 
ATOM     19  C   UNL     1      48.155   8.848  14.976  0.00  0.00    +0.000 A 
ATOM     20  C   UNL     1      47.597   8.208  13.868  0.00  0.00    +0.000 A 
ATOM     21  C   UNL     1      47.774   6.839  13.690  0.00  0.00    +0.000 A 
ATOM     22  N   UNL     1      47.191   6.128  12.669  0.00  0.00    +0.000 N 
ATOM     23  N   UNL     1      48.498   6.110  14.558  0.00  0.00    +0.000 NA
ATOM     24  C   UNL     1      49.034   6.745  15.639  0.00  0.00    +0.000 A 
ATOM     25  H   UNL     1      47.572   5.187  12.594  0.00  0.00    +0.000 HD
BRANCH  18  27
ATOM     26  N   UNL     1      48.680   8.776  18.227  0.00  0.00    +0.000 N 
ATOM     27  C   UNL     1      49.471   8.677  17.117  0.00  0.00    +0.000 C 
ATOM     28  O   UNL     1      50.645   9.029  17.144  0.00  0.00    +0.000 OA
ATOM     29  H   UNL     1      49.140   9.078  19.079  0.00  0.00    +0.000 HD
ATOM     30  H   UNL     1      47.804   8.284  18.323  0.00  0.00    +0.000 HD
ENDBRANCH  18  27
ENDBRANCH  17  22
ENDBRANCH   1  17
TORSDOF 6
ENDMDL
MODEL 8
REMARK VINA RESULT:    -6.941      5.161      7.218
REMARK INTER + INTRA:         -10.108
REMARK INTER:                  -9.207
REMARK INTRA:                  -0.901
REMARK UNBOUND:                -0.936
REMARK  Name = 
REMARK  6 active torsions:
REMARK  status: ('A' for Active; 'I' for Inactive)
REMARK    1  A    between atoms: C_2  and  C_4
REMARK    2  A    between atoms: N_8  and  C_9
REMARK    3  A    between atoms: C_9  and  C_10
REMARK    4  A    between atoms: C_10  and  O_11
REMARK    5  A    between atoms: C_10  and  C_12
REMARK    6  A    between atoms: C_17  and  C_18
REMARK                            x       y       z     vdW  Elec       q    Type
REMARK                         _______ _______ _______ _____ _____    ______ ____
ROOT
ATOM      1  C   UNL     1      49.109   6.846  16.152  0.00  0.00    +0.000 C 
ENDROOT
BRANCH   1   2
ATOM      2  C   UNL     1      49.050   5.428  16.685  0.00  0.00    +0.000 A 
ATOM      3  C   UNL     1      47.821   4.798  16.886  0.00  0.00    +0.000 A 
ATOM      4  C   UNL     1      47.789   3.511  17.403  0.00  0.00    +0.000 A 
ATOM      5  F   UNL     1      46.607   2.914  17.602  0.00  0.00    +0.000 F 
ATOM      6  C   UNL     1      48.959   2.825  17.722  0.00  0.00    +0.000 A 
ATOM      7  C   UNL     1      50.217   3.423  17.547  0.00  0.00    +0.000 A 
ATOM      8  C   UNL     1      50.227   4.738  17.033  0.00  0.00    +0.000 A 
BRANCH   7   9
ATOM      9  C   UNL     1      51.477   2.712  17.871  0.00  0.00    +0.000 A 
ATOM     10  C   UNL     1      52.524   3.345  18.560  0.00  0.00    +0.000 A 
ATOM     11  C   UNL     1      53.687   2.641  18.844  0.00  0.00    +0.000 A 
ATOM     12  N   UNL     1      53.893   1.360  18.489  0.00  0.00    +0.000 NA
ATOM     13  C   UNL     1      52.890   0.756  17.822  0.00  0.00    +0.000 A 
ATOM     14  C   UNL     1      51.688   1.375  17.504  0.00  0.00    +0.000 A 
ENDBRANCH   7   9
ENDBRANCH   1   2
BRANCH   1  15
ATOM     15  O   UNL     1      48.051   7.605  16.749  0.00  0.00    +0.000 OA
ATOM     16  H   UNL     1      47.860   7.198  17.613  0.00  0.00    +0.000 HD
ENDBRANCH   1  15
BRANCH   1  17
ATOM     17  C   UNL     1      48.998   6.851  14.612  0.00  0.00    +0.000 C 
BRANCH  17  22
ATOM     18  C   UNL     1      44.916   4.510  12.577  0.00  0.00    +0.000 A 
ATOM     19  C   UNL     1      46.106   3.999  13.082  0.00  0.00    +0.000 A 
ATOM     20  C   UNL     1      47.050   4.881  13.611  0.00  0.00    +0.000 A 
ATOM     21  C   UNL     1      46.802   6.252  13.610  0.00  0.00    +0.000 A 
ATOM     22  N   UNL     1      47.647   7.173  14.181  0.00  0.00    +0.000 N 
ATOM     23  N   UNL     1      45.670   6.756  13.086  0.00  0.00    +0.000 NA
ATOM     24  C   UNL     1      44.754   5.884  12.578  0.00  0.00    +0.000 A 
ATOM     25  H   UNL     1      47.396   8.126  13.931  0.00  0.00    +0.000 HD
BRANCH  18  27
ATOM     26  N   UNL     1      43.824   2.342  12.409  0.00  0.00    +0.000 N 
ATOM     27  C   UNL     1      43.845   3.653  12.025  0.00  0.00    +0.000 C 
ATOM     28  O   UNL     1      42.987   4.107  11.277  0.00  0.00    +0.000 OA
ATOM     29  H   UNL     1      43.024   1.799  12.105  0.00  0.00    +0.000 HD
ATOM     30  H   UNL     1      44.350   1.991  13.197  0.00  0.00    +0.000 HD
ENDBRANCH  18  27
ENDBRANCH  17  22
ENDBRANCH   1  17
TORSDOF 6
ENDMDL
MODEL 9
REMARK VINA RESULT:    -6.700      3.847      7.470
REMARK INTER + INTRA:          -9.790
REMARK INTER:                  -8.753
REMARK INTRA:                  -1.038
REMARK UNBOUND:                -0.936
REMARK  Name = 
REMARK  6 active torsions:
REMARK  status: ('A' for Active; 'I' for Inactive)
REMARK    1  A    between atoms: C_2  and  C_4
REMARK    2  A    between atoms: N_8  and  C_9
REMARK    3  A    between atoms: C_9  and  C_10
REMARK    4  A    between atoms: C_10  and  O_11
REMARK    5  A    between atoms: C_10  and  C_12
REMARK    6  A    between atoms: C_17  and  C_18
REMARK                            x       y       z     vdW  Elec       q    Type
REMARK                         _______ _______ _______ _____ _____    ______ ____
ROOT
ATOM      1  C   UNL     1      48.383   8.908  12.457  0.00  0.00    +0.000 C 
ENDROOT
BRANCH   1   2
ATOM      2  C   UNL     1      46.934   8.697  12.067  0.00  0.00    +0.000 A 
ATOM      3  C   UNL     1      46.058   9.780  11.986  0.00  0.00    +0.000 A 
ATOM      4  C   UNL     1      44.728   9.560  11.656  0.00  0.00    +0.000 A 
ATOM      5  F   UNL     1      43.889  10.602  11.586  0.00  0.00    +0.000 F 
ATOM      6  C   UNL     1      44.244   8.280  11.396  0.00  0.00    +0.000 A 
ATOM      7  C   UNL     1      45.087   7.160  11.477  0.00  0.00    +0.000 A 
ATOM      8  C   UNL     1      46.432   7.404  11.829  0.00  0.00    +0.000 A 
BRANCH   7   9
ATOM      9  C   UNL     1      44.597   5.788  11.198  0.00  0.00    +0.000 A 
ATOM     10  C   UNL     1      45.124   5.018  10.149  0.00  0.00    +0.000 A 
ATOM     11  C   UNL     1      44.637   3.737   9.923  0.00  0.00    +0.000 A 
ATOM     12  N   UNL     1      43.661   3.167  10.653  0.00  0.00    +0.000 NA
ATOM     13  C   UNL     1      43.152   3.910  11.654  0.00  0.00    +0.000 A 
ATOM     14  C   UNL     1      43.583   5.194  11.963  0.00  0.00    +0.000 A 
ENDBRANCH   7   9
ENDBRANCH   1   2
BRANCH   1  15
ATOM     15  O   UNL     1      48.962   9.870  11.566  0.00  0.00    +0.000 OA
ATOM     16  H   UNL     1      48.259  10.152  10.954  0.00  0.00    +0.000 HD
ENDBRANCH   1  15
BRANCH   1  17
ATOM     17  C   UNL     1      49.157   7.573  12.415  0.00  0.00    +0.000 C 
BRANCH  17  22
ATOM     18  C   UNL     1      47.840   4.797  16.519  0.00  0.00    +0.000 A 
ATOM     19  C   UNL     1      47.267   4.891  15.256  0.00  0.00    +0.000 A 
ATOM     20  C   UNL     1      47.862   5.720  14.304  0.00  0.00    +0.000 A 
ATOM     21  C   UNL     1      49.001   6.452  14.629  0.00  0.00    +0.000 A 
ATOM     22  N   UNL     1      49.686   7.227  13.725  0.00  0.00    +0.000 N 
ATOM     23  N   UNL     1      49.538   6.397  15.862  0.00  0.00    +0.000 NA
ATOM     24  C   UNL     1      48.951   5.579  16.781  0.00  0.00    +0.000 A 
ATOM     25  H   UNL     1      50.377   7.821  14.178  0.00  0.00    +0.000 HD
BRANCH  18  27
ATOM     26  N   UNL     1      47.691   4.176  18.867  0.00  0.00    +0.000 N 
ATOM     27  C   UNL     1      47.300   3.923  17.582  0.00  0.00    +0.000 C 
ATOM     28  O   UNL     1      46.505   3.025  17.328  0.00  0.00    +0.000 OA
ATOM     29  H   UNL     1      47.230   3.635  19.590  0.00  0.00    +0.000 HD
ATOM     30  H   UNL     1      48.139   5.037  19.146  0.00  0.00    +0.000 HD
ENDBRANCH  18  27
ENDBRANCH  17  22
ENDBRANCH   1  17
TORSDOF 6
ENDMDL
