MODEL 1
REMARK VINA RESULT:    -7.523      0.000      0.000
REMARK INTER + INTRA:         -11.803
REMARK INTER:                 -10.602
REMARK INTRA:                  -1.201
REMARK UNBOUND:                -1.201
REMARK  Name = 
REMARK  7 active torsions:
REMARK  status: ('A' for Active; 'I' for Inactive)
REMARK    1  A    between atoms: C_2  and  C_20
REMARK    2  A    between atoms: N_3  and  C_4
REMARK    3  A    between atoms: C_4  and  C_5
REMARK    4  A    between atoms: C_8  and  C_9
REMARK    5  A    between atoms: C_9  and  N_10
REMARK    6  A    between atoms: N_10  and  C_11
REMARK    7  A    between atoms: C_11  and  C_12
REMARK                            x       y       z     vdW  Elec       q    Type
REMARK                         _______ _______ _______ _____ _____    ______ ____
ROOT
ATOM      1  C   UNL     1      46.081   6.908  12.361  0.00  0.00    +0.000 A 
ATOM      2  C   UNL     1      44.983   6.225  12.863  0.00  0.00    +0.000 A 
ATOM      3  C   UNL     1      44.288   5.331  12.065  0.00  0.00    +0.000 A 
ATOM      4  C   UNL     1      44.649   5.056  10.743  0.00  0.00    +0.000 A 
ATOM      5  C   UNL     1      45.806   5.694  10.263  0.00  0.00    +0.000 A 
ATOM      6  C   UNL     1      46.510   6.618  11.061  0.00  0.00    +0.000 A 
ENDROOT
BRANCH   1   7
ATOM      7  C   UNL     1      46.753   7.905  13.261  0.00  0.00    +0.000 C 
BRANCH   7  10
ATOM      8  O   UNL     1      49.317   6.735  13.517  0.00  0.00    +0.000 OA
ATOM      9  C   UNL     1      48.572   6.770  14.493  0.00  0.00    +0.000 C 
ATOM     10  N   UNL     1      47.294   7.269  14.437  0.00  0.00    +0.000 N 
ATOM     11  H   UNL     1      46.809   7.474  15.300  0.00  0.00    +0.000 HD
BRANCH   9  12
ATOM     12  C   UNL     1      48.987   6.218  15.788  0.00  0.00    +0.000 A 
ATOM     13  C   UNL     1      50.015   6.827  16.500  0.00  0.00    +0.000 A 
ATOM     14  S   UNL     1      50.389   6.040  17.964  0.00  0.00    +0.000 S 
ATOM     15  C   UNL     1      49.151   4.895  17.727  0.00  0.00    +0.000 A 
ATOM     16  N   UNL     1      48.901   3.935  18.657  0.00  0.00    +0.000 NA
ATOM     17  C   UNL     1      47.908   3.162  18.371  0.00  0.00    +0.000 A 
ATOM     18  N   UNL     1      47.147   3.255  17.236  0.00  0.00    +0.000 N 
ATOM     19  C   UNL     1      47.405   4.161  16.243  0.00  0.00    +0.000 A 
ATOM     20  O   UNL     1      46.801   4.118  15.171  0.00  0.00    +0.000 OA
ATOM     21  C   UNL     1      48.485   5.089  16.531  0.00  0.00    +0.000 A 
ATOM     22  H   UNL     1      46.407   2.593  17.060  0.00  0.00    +0.000 HD
ENDBRANCH   9  12
ENDBRANCH   7  10
ENDBRANCH   1   7
BRANCH   4  23
ATOM     23  C   UNL     1      43.921   4.049   9.863  0.00  0.00    +0.000 C 
BRANCH  23  24
ATOM     24  N   UNL     1      43.916   4.302   8.404  0.00  0.00    +0.000 NA
ATOM     25  H   UNL     1      44.343   5.215   8.246  0.00  0.00    +0.000 HD
BRANCH  24  26
ATOM     26  C   UNL     1      44.688   3.315   7.651  0.00  0.00    +0.000 C 
BRANCH  26  27
ATOM     27  C   UNL     1      46.172   3.175   8.056  0.00  0.00    +0.000 C 
ATOM     28  C   UNL     1      47.204   3.613   6.999  0.00  0.00    +0.000 C 
ATOM     29  C   UNL     1      47.394   2.617   5.854  0.00  0.00    +0.000 C 
ATOM     30  N   UNL     1      47.658   1.257   6.330  0.00  0.00    +0.000 NA
ATOM     31  C   UNL     1      46.584   0.793   7.204  0.00  0.00    +0.000 C 
ATOM     32  C   UNL     1      46.434   1.698   8.432  0.00  0.00    +0.000 C 
ATOM     33  H   UNL     1      48.536   1.248   6.848  0.00  0.00    +0.000 HD
ENDBRANCH  26  27
ENDBRANCH  24  26
ENDBRANCH  23  24
ENDBRANCH   4  23
TORSDOF 7
ENDMDL
MODEL 2
REMARK VINA RESULT:    -7.157      1.764      2.248
REMARK INTER + INTRA:         -11.286
REMARK INTER:                 -10.410
REMARK INTRA:                  -0.876
REMARK UNBOUND:                -1.201
REMARK  Name = 
REMARK  7 active torsions:
REMARK  status: ('A' for Active; 'I' for Inactive)
REMARK    1  A    between atoms: C_2  and  C_20
REMARK    2  A    between atoms: N_3  and  C_4
REMARK    3  A    between atoms: C_4  and  C_5
REMARK    4  A    between atoms: C_8  and  C_9
REMARK    5  A    between atoms: C_9  and  N_10
REMARK    6  A    between atoms: N_10  and  C_11
REMARK    7  A    between atoms: C_11  and  C_12
REMARK                            x       y       z     vdW  Elec       q    Type
REMARK                         _______ _______ _______ _____ _____    ______ ____
ROOT
ATOM      1  C   UNL     1      46.918   5.949  12.856  0.00  0.00    +0.000 A 
ATOM      2  C   UNL     1      46.241   6.410  11.737  0.00  0.00    +0.000 A 
ATOM      3  C   UNL     1      45.275   5.626  11.127  0.00  0.00    +0.000 A 
ATOM      4  C   UNL     1      44.919   4.359  11.598  0.00  0.00    +0.000 A 
ATOM      5  C   UNL     1      45.554   3.927  12.776  0.00  0.00    +0.000 A 
ATOM      6  C   UNL     1      46.550   4.710  13.394  0.00  0.00    +0.000 A 
ENDROOT
BRANCH   1   7
ATOM      7  C   UNL     1      47.992   6.825  13.432  0.00  0.00    +0.000 C 
BRANCH   7  10
ATOM      8  O   UNL     1      50.191   6.717  15.210  0.00  0.00    +0.000 OA
ATOM      9  C   UNL     1      49.056   6.844  15.663  0.00  0.00    +0.000 C 
ATOM     10  N   UNL     1      47.934   6.848  14.873  0.00  0.00    +0.000 N 
ATOM     11  H   UNL     1      47.059   7.169  15.264  0.00  0.00    +0.000 HD
BRANCH   9  12
ATOM     12  C   UNL     1      48.822   6.940  17.109  0.00  0.00    +0.000 A 
ATOM     13  C   UNL     1      48.466   8.162  17.670  0.00  0.00    +0.000 A 
ATOM     14  S   UNL     1      48.261   8.102  19.360  0.00  0.00    +0.000 S 
ATOM     15  C   UNL     1      48.581   6.430  19.394  0.00  0.00    +0.000 A 
ATOM     16  N   UNL     1      48.526   5.732  20.560  0.00  0.00    +0.000 NA
ATOM     17  C   UNL     1      48.747   4.467  20.433  0.00  0.00    +0.000 A 
ATOM     18  N   UNL     1      49.025   3.836  19.250  0.00  0.00    +0.000 N 
ATOM     19  C   UNL     1      49.156   4.508  18.065  0.00  0.00    +0.000 A 
ATOM     20  O   UNL     1      49.556   3.936  17.050  0.00  0.00    +0.000 OA
ATOM     21  C   UNL     1      48.873   5.931  18.137  0.00  0.00    +0.000 A 
ATOM     22  H   UNL     1      49.222   2.847  19.231  0.00  0.00    +0.000 HD
ENDBRANCH   9  12
ENDBRANCH   7  10
ENDBRANCH   1   7
BRANCH   4  23
ATOM     23  C   UNL     1      43.834   3.499  10.965  0.00  0.00    +0.000 C 
BRANCH  23  24
ATOM     24  N   UNL     1      44.263   2.250  10.295  0.00  0.00    +0.000 NA
ATOM     25  H   UNL     1      43.528   1.982   9.640  0.00  0.00    +0.000 HD
BRANCH  24  26
ATOM     26  C   UNL     1      45.500   2.408   9.533  0.00  0.00    +0.000 C 
BRANCH  26  27
ATOM     27  C   UNL     1      45.403   2.089   8.025  0.00  0.00    +0.000 C 
ATOM     28  C   UNL     1      46.447   1.098   7.476  0.00  0.00    +0.000 C 
ATOM     29  C   UNL     1      47.843   1.693   7.288  0.00  0.00    +0.000 C 
ATOM     30  N   UNL     1      47.824   2.935   6.513  0.00  0.00    +0.000 NA
ATOM     31  C   UNL     1      46.954   3.927   7.138  0.00  0.00    +0.000 C 
ATOM     32  C   UNL     1      45.512   3.418   7.241  0.00  0.00    +0.000 C 
ATOM     33  H   UNL     1      47.483   2.739   5.573  0.00  0.00    +0.000 HD
ENDBRANCH  26  27
ENDBRANCH  24  26
ENDBRANCH  23  24
ENDBRANCH   4  23
TORSDOF 7
ENDMDL
MODEL 3
REMARK VINA RESULT:    -6.918      2.776      3.660
REMARK INTER + INTRA:         -10.950
REMARK INTER:                  -9.330
REMARK INTRA:                  -1.620
REMARK UNBOUND:                -1.201
REMARK  Name = 
REMARK  7 active torsions:
REMARK  status: ('A' for Active; 'I' for Inactive)
REMARK    1  A    between atoms: C_2  and  C_20
REMARK    2  A    between atoms: N_3  and  C_4
REMARK    3  A    between atoms: C_4  and  C_5
REMARK    4  A    between atoms: C_8  and  C_9
REMARK    5  A    between atoms: C_9  and  N_10
REMARK    6  A    between atoms: N_10  and  C_11
REMARK    7  A    between atoms: C_11  and  C_12
REMARK                            x       y       z     vdW  Elec       q    Type
REMARK                         _______ _______ _______ _____ _____    ______ ____
ROOT
ATOM      1  C   UNL     1      48.331   8.003  13.082  0.00  0.00    +0.000 A 
ATOM      2  C   UNL     1      47.978   6.924  12.284  0.00  0.00    +0.000 A 
ATOM      3  C   UNL     1      46.720   6.858  11.708  0.00  0.00    +0.000 A 
ATOM      4  C   UNL     1      45.756   7.856  11.877  0.00  0.00    +0.000 A 
ATOM      5  C   UNL     1      46.144   8.982  12.624  0.00  0.00    +0.000 A 
ATOM      6  C   UNL     1      47.415   9.051  13.228  0.00  0.00    +0.000 A 
ENDROOT
BRANCH   1   7
ATOM      7  C   UNL     1      49.689   7.982  13.721  0.00  0.00    +0.000 C 
BRANCH   7  10
ATOM      8  O   UNL     1      49.115   8.642  16.413  0.00  0.00    +0.000 OA
ATOM      9  C   UNL     1      49.379   7.478  16.122  0.00  0.00    +0.000 C 
ATOM     10  N   UNL     1      49.723   7.087  14.852  0.00  0.00    +0.000 N 
ATOM     11  H   UNL     1      49.717   6.102  14.622  0.00  0.00    +0.000 HD
BRANCH   9  12
ATOM     12  C   UNL     1      49.402   6.425  17.144  0.00  0.00    +0.000 A 
ATOM     13  C   UNL     1      50.144   6.607  18.306  0.00  0.00    +0.000 A 
ATOM     14  S   UNL     1      50.084   5.277  19.369  0.00  0.00    +0.000 S 
ATOM     15  C   UNL     1      49.017   4.437  18.342  0.00  0.00    +0.000 A 
ATOM     16  N   UNL     1      48.529   3.215  18.691  0.00  0.00    +0.000 NA
ATOM     17  C   UNL     1      47.698   2.713  17.842  0.00  0.00    +0.000 A 
ATOM     18  N   UNL     1      47.313   3.314  16.674  0.00  0.00    +0.000 N 
ATOM     19  C   UNL     1      47.828   4.510  16.251  0.00  0.00    +0.000 A 
ATOM     20  O   UNL     1      47.579   4.948  15.128  0.00  0.00    +0.000 OA
ATOM     21  C   UNL     1      48.737   5.146  17.189  0.00  0.00    +0.000 A 
ATOM     22  H   UNL     1      46.684   2.845  16.040  0.00  0.00    +0.000 HD
ENDBRANCH   9  12
ENDBRANCH   7  10
ENDBRANCH   1   7
BRANCH   4  23
ATOM     23  C   UNL     1      44.382   7.821  11.222  0.00  0.00    +0.000 C 
BRANCH  23  24
ATOM     24  N   UNL     1      43.389   6.875  11.779  0.00  0.00    +0.000 NA
ATOM     25  H   UNL     1      42.493   7.362  11.833  0.00  0.00    +0.000 HD
BRANCH  24  26
ATOM     26  C   UNL     1      43.199   5.690  10.945  0.00  0.00    +0.000 C 
BRANCH  26  27
ATOM     27  C   UNL     1      42.939   4.370  11.705  0.00  0.00    +0.000 C 
ATOM     28  C   UNL     1      43.421   4.328  13.168  0.00  0.00    +0.000 C 
ATOM     29  C   UNL     1      44.932   4.154  13.328  0.00  0.00    +0.000 C 
ATOM     30  N   UNL     1      45.452   3.021  12.559  0.00  0.00    +0.000 NA
ATOM     31  C   UNL     1      45.127   3.160  11.143  0.00  0.00    +0.000 C 
ATOM     32  C   UNL     1      43.611   3.219  10.921  0.00  0.00    +0.000 C 
ATOM     33  H   UNL     1      45.039   2.159  12.913  0.00  0.00    +0.000 HD
ENDBRANCH  26  27
ENDBRANCH  24  26
ENDBRANCH  23  24
ENDBRANCH   4  23
TORSDOF 7
ENDMDL
MODEL 4
REMARK VINA RESULT:    -6.884      2.014      2.475
REMARK INTER + INTRA:         -10.902
REMARK INTER:                  -9.940
REMARK INTRA:                  -0.963
REMARK UNBOUND:                -1.201
REMARK  Name = 
REMARK  7 active torsions:
REMARK  status: ('A' for Active; 'I' for Inactive)
REMARK    1  A    between atoms: C_2  and  C_20
REMARK    2  A    between atoms: N_3  and  C_4
REMARK    3  A    between atoms: C_4  and  C_5
REMARK    4  A    between atoms: C_8  and  C_9
REMARK    5  A    between atoms: C_9  and  N_10
REMARK    6  A    between atoms: N_10  and  C_11
REMARK    7  A    between atoms: C_11  and  C_12
REMARK                            x       y       z     vdW  Elec       q    Type
REMARK                         _______ _______ _______ _____ _____    ______ ____
ROOT
ATOM      1  C   UNL     1      46.692   6.058  12.838  0.00  0.00    +0.000 A 
ATOM      2  C   UNL     1      46.551   6.482  11.525  0.00  0.00    +0.000 A 
ATOM      3  C   UNL     1      45.675   5.834  10.669  0.00  0.00    +0.000 A 
ATOM      4  C   UNL     1      44.888   4.750  11.067  0.00  0.00    +0.000 A 
ATOM      5  C   UNL     1      44.980   4.372  12.418  0.00  0.00    +0.000 A 
ATOM      6  C   UNL     1      45.879   5.013  13.293  0.00  0.00    +0.000 A 
ENDROOT
BRANCH   1   7
ATOM      7  C   UNL     1      47.701   6.767  13.695  0.00  0.00    +0.000 C 
BRANCH   7  10
ATOM      8  O   UNL     1      49.766   7.125  15.597  0.00  0.00    +0.000 OA
ATOM      9  C   UNL     1      48.776   6.463  15.900  0.00  0.00    +0.000 C 
ATOM     10  N   UNL     1      47.759   6.197  15.018  0.00  0.00    +0.000 N 
ATOM     11  H   UNL     1      46.881   5.841  15.373  0.00  0.00    +0.000 HD
BRANCH   9  12
ATOM     12  C   UNL     1      48.646   5.856  17.230  0.00  0.00    +0.000 A 
ATOM     13  C   UNL     1      48.947   4.510  17.406  0.00  0.00    +0.000 A 
ATOM     14  S   UNL     1      48.713   3.963  19.003  0.00  0.00    +0.000 S 
ATOM     15  C   UNL     1      48.262   5.520  19.527  0.00  0.00    +0.000 A 
ATOM     16  N   UNL     1      47.965   5.758  20.833  0.00  0.00    +0.000 NA
ATOM     17  C   UNL     1      47.683   6.988  21.099  0.00  0.00    +0.000 A 
ATOM     18  N   UNL     1      47.662   8.002  20.178  0.00  0.00    +0.000 N 
ATOM     19  C   UNL     1      47.887   7.796  18.844  0.00  0.00    +0.000 A 
ATOM     20  O   UNL     1      47.711   8.696  18.023  0.00  0.00    +0.000 OA
ATOM     21  C   UNL     1      48.256   6.436  18.492  0.00  0.00    +0.000 A 
ATOM     22  H   UNL     1      47.397   8.936  20.451  0.00  0.00    +0.000 HD
ENDBRANCH   9  12
ENDBRANCH   7  10
ENDBRANCH   1   7
BRANCH   4  23
ATOM     23  C   UNL     1      43.892   4.050  10.153  0.00  0.00    +0.000 C 
BRANCH  23  24
ATOM     24  N   UNL     1      43.892   4.440   8.725  0.00  0.00    +0.000 NA
ATOM     25  H   UNL     1      44.386   5.329   8.646  0.00  0.00    +0.000 HD
BRANCH  24  26
ATOM     26  C   UNL     1      44.579   3.474   7.869  0.00  0.00    +0.000 C 
BRANCH  26  27
ATOM     27  C   UNL     1      46.116   3.421   8.019  0.00  0.00    +0.000 C 
ATOM     28  C   UNL     1      46.929   3.804   6.767  0.00  0.00    +0.000 C 
ATOM     29  C   UNL     1      46.969   2.722   5.687  0.00  0.00    +0.000 C 
ATOM     30  N   UNL     1      47.378   1.418   6.213  0.00  0.00    +0.000 NA
ATOM     31  C   UNL     1      46.494   0.991   7.294  0.00  0.00    +0.000 C 
ATOM     32  C   UNL     1      46.511   1.991   8.456  0.00  0.00    +0.000 C 
ATOM     33  H   UNL     1      48.331   1.483   6.569  0.00  0.00    +0.000 HD
ENDBRANCH  26  27
ENDBRANCH  24  26
ENDBRANCH  23  24
ENDBRANCH   4  23
TORSDOF 7
ENDMDL
MODEL 5
REMARK VINA RESULT:    -6.860      2.790      8.322
REMARK INTER + INTRA:         -10.868
REMARK INTER:                  -9.248
REMARK INTRA:                  -1.620
REMARK UNBOUND:                -1.201
REMARK  Name = 
REMARK  7 active torsions:
REMARK  status: ('A' for Active; 'I' for Inactive)
REMARK    1  A    between atoms: C_2  and  C_20
REMARK    2  A    between atoms: N_3  and  C_4
REMARK    3  A    between atoms: C_4  and  C_5
REMARK    4  A    between atoms: C_8  and  C_9
REMARK    5  A    between atoms: C_9  and  N_10
REMARK    6  A    between atoms: N_10  and  C_11
REMARK    7  A    between atoms: C_11  and  C_12
REMARK                            x       y       z     vdW  Elec       q    Type
REMARK                         _______ _______ _______ _____ _____    ______ ____
ROOT
ATOM      1  C   UNL     1      48.344   7.979  13.124  0.00  0.00    +0.000 A 
ATOM      2  C   UNL     1      47.705   8.706  14.117  0.00  0.00    +0.000 A 
ATOM      3  C   UNL     1      48.251   8.790  15.388  0.00  0.00    +0.000 A 
ATOM      4  C   UNL     1      49.457   8.176  15.736  0.00  0.00    +0.000 A 
ATOM      5  C   UNL     1      50.138   7.503  14.707  0.00  0.00    +0.000 A 
ATOM      6  C   UNL     1      49.583   7.397  13.416  0.00  0.00    +0.000 A 
ENDROOT
BRANCH   1   7
ATOM      7  C   UNL     1      47.669   7.882  11.787  0.00  0.00    +0.000 C 
BRANCH   7  10
ATOM      8  O   UNL     1      44.904   7.514  12.271  0.00  0.00    +0.000 OA
ATOM      9  C   UNL     1      45.576   6.568  11.866  0.00  0.00    +0.000 C 
ATOM     10  N   UNL     1      46.930   6.649  11.661  0.00  0.00    +0.000 N 
ATOM     11  H   UNL     1      47.391   5.923  11.128  0.00  0.00    +0.000 HD
BRANCH   9  12
ATOM     12  C   UNL     1      44.969   5.253  11.628  0.00  0.00    +0.000 A 
ATOM     13  C   UNL     1      44.255   4.629  12.645  0.00  0.00    +0.000 A 
ATOM     14  S   UNL     1      43.645   3.098  12.209  0.00  0.00    +0.000 S 
ATOM     15  C   UNL     1      44.262   3.243  10.629  0.00  0.00    +0.000 A 
ATOM     16  N   UNL     1      44.050   2.268   9.704  0.00  0.00    +0.000 NA
ATOM     17  C   UNL     1      44.534   2.527   8.537  0.00  0.00    +0.000 A 
ATOM     18  N   UNL     1      45.218   3.668   8.210  0.00  0.00    +0.000 N 
ATOM     19  C   UNL     1      45.513   4.643   9.123  0.00  0.00    +0.000 A 
ATOM     20  O   UNL     1      46.259   5.580   8.836  0.00  0.00    +0.000 OA
ATOM     21  C   UNL     1      44.953   4.427  10.446  0.00  0.00    +0.000 A 
ATOM     22  H   UNL     1      45.600   3.787   7.284  0.00  0.00    +0.000 HD
ENDBRANCH   9  12
ENDBRANCH   7  10
ENDBRANCH   1   7
BRANCH   4  23
ATOM     23  C   UNL     1      50.092   8.288  17.116  0.00  0.00    +0.000 C 
BRANCH  23  24
ATOM     24  N   UNL     1      50.606   7.043  17.729  0.00  0.00    +0.000 NA
ATOM     25  H   UNL     1      51.076   7.297  18.599  0.00  0.00    +0.000 HD
BRANCH  24  26
ATOM     26  C   UNL     1      49.548   6.090  18.059  0.00  0.00    +0.000 C 
BRANCH  26  27
ATOM     27  C   UNL     1      49.386   4.905  17.082  0.00  0.00    +0.000 C 
ATOM     28  C   UNL     1      48.036   4.817  16.345  0.00  0.00    +0.000 C 
ATOM     29  C   UNL     1      46.881   4.302  17.205  0.00  0.00    +0.000 C 
ATOM     30  N   UNL     1      47.204   3.045  17.884  0.00  0.00    +0.000 NA
ATOM     31  C   UNL     1      48.398   3.190  18.711  0.00  0.00    +0.000 C 
ATOM     32  C   UNL     1      49.614   3.593  17.870  0.00  0.00    +0.000 C 
ATOM     33  H   UNL     1      47.369   2.320  17.186  0.00  0.00    +0.000 HD
ENDBRANCH  26  27
ENDBRANCH  24  26
ENDBRANCH  23  24
ENDBRANCH   4  23
TORSDOF 7
ENDMDL
MODEL 6
REMARK VINA RESULT:    -6.745      3.285      7.842
REMARK INTER + INTRA:         -10.707
REMARK INTER:                  -9.171
REMARK INTRA:                  -1.536
REMARK UNBOUND:                -1.201
REMARK  Name = 
REMARK  7 active torsions:
REMARK  status: ('A' for Active; 'I' for Inactive)
REMARK    1  A    between atoms: C_2  and  C_20
REMARK    2  A    between atoms: N_3  and  C_4
REMARK    3  A    between atoms: C_4  and  C_5
REMARK    4  A    between atoms: C_8  and  C_9
REMARK    5  A    between atoms: C_9  and  N_10
REMARK    6  A    between atoms: N_10  and  C_11
REMARK    7  A    between atoms: C_11  and  C_12
REMARK                            x       y       z     vdW  Elec       q    Type
REMARK                         _______ _______ _______ _____ _____    ______ ____
ROOT
ATOM      1  C   UNL     1      48.514   8.091  13.447  0.00  0.00    +0.000 A 
ATOM      2  C   UNL     1      49.565   7.256  13.798  0.00  0.00    +0.000 A 
ATOM      3  C   UNL     1      49.941   7.121  15.124  0.00  0.00    +0.000 A 
ATOM      4  C   UNL     1      49.293   7.787  16.168  0.00  0.00    +0.000 A 
ATOM      5  C   UNL     1      48.181   8.572  15.815  0.00  0.00    +0.000 A 
ATOM      6  C   UNL     1      47.801   8.730  14.468  0.00  0.00    +0.000 A 
ENDROOT
BRANCH   1   7
ATOM      7  C   UNL     1      48.196   8.236  11.987  0.00  0.00    +0.000 C 
BRANCH   7  10
ATOM      8  O   UNL     1      45.392   7.880  11.846  0.00  0.00    +0.000 OA
ATOM      9  C   UNL     1      46.133   7.006  11.403  0.00  0.00    +0.000 C 
ATOM     10  N   UNL     1      47.501   7.077  11.484  0.00  0.00    +0.000 N 
ATOM     11  H   UNL     1      48.059   6.450  10.919  0.00  0.00    +0.000 HD
BRANCH   9  12
ATOM     12  C   UNL     1      45.589   5.782  10.802  0.00  0.00    +0.000 A 
ATOM     13  C   UNL     1      45.853   5.492   9.467  0.00  0.00    +0.000 A 
ATOM     14  S   UNL     1      45.122   4.052   8.925  0.00  0.00    +0.000 S 
ATOM     15  C   UNL     1      44.478   3.734  10.469  0.00  0.00    +0.000 A 
ATOM     16  N   UNL     1      43.760   2.603  10.706  0.00  0.00    +0.000 NA
ATOM     17  C   UNL     1      43.370   2.468  11.928  0.00  0.00    +0.000 A 
ATOM     18  N   UNL     1      43.625   3.362  12.934  0.00  0.00    +0.000 N 
ATOM     19  C   UNL     1      44.283   4.543  12.727  0.00  0.00    +0.000 A 
ATOM     20  O   UNL     1      44.362   5.393  13.614  0.00  0.00    +0.000 OA
ATOM     21  C   UNL     1      44.788   4.730  11.377  0.00  0.00    +0.000 A 
ATOM     22  H   UNL     1      43.257   3.208  13.861  0.00  0.00    +0.000 HD
ENDBRANCH   9  12
ENDBRANCH   7  10
ENDBRANCH   1   7
BRANCH   4  23
ATOM     23  C   UNL     1      49.666   7.621  17.635  0.00  0.00    +0.000 C 
BRANCH  23  24
ATOM     24  N   UNL     1      48.867   6.666  18.435  0.00  0.00    +0.000 NA
ATOM     25  H   UNL     1      47.897   6.737  18.124  0.00  0.00    +0.000 HD
BRANCH  24  26
ATOM     26  C   UNL     1      49.290   5.278  18.256  0.00  0.00    +0.000 C 
BRANCH  26  27
ATOM     27  C   UNL     1      48.158   4.227  18.266  0.00  0.00    +0.000 C 
ATOM     28  C   UNL     1      48.591   2.767  18.027  0.00  0.00    +0.000 C 
ATOM     29  C   UNL     1      48.921   2.439  16.570  0.00  0.00    +0.000 C 
ATOM     30  N   UNL     1      47.855   2.841  15.649  0.00  0.00    +0.000 NA
ATOM     31  C   UNL     1      47.568   4.267  15.772  0.00  0.00    +0.000 C 
ATOM     32  C   UNL     1      47.118   4.625  17.193  0.00  0.00    +0.000 C 
ATOM     33  H   UNL     1      47.010   2.312  15.863  0.00  0.00    +0.000 HD
ENDBRANCH  26  27
ENDBRANCH  24  26
ENDBRANCH  23  24
ENDBRANCH   4  23
TORSDOF 7
ENDMDL
MODEL 7
REMARK VINA RESULT:    -6.553      2.622      3.386
REMARK INTER + INTRA:         -10.436
REMARK INTER:                  -9.375
REMARK INTRA:                  -1.061
REMARK UNBOUND:                -1.201
REMARK  Name = 
REMARK  7 active torsions:
REMARK  status: ('A' for Active; 'I' for Inactive)
REMARK    1  A    between atoms: C_2  and  C_20
REMARK    2  A    between atoms: N_3  and  C_4
REMARK    3  A    between atoms: C_4  and  C_5
REMARK    4  A    between atoms: C_8  and  C_9
REMARK    5  A    between atoms: C_9  and  N_10
REMARK    6  A    between atoms: N_10  and  C_11
REMARK    7  A    between atoms: C_11  and  C_12
REMARK                            x       y       z     vdW  Elec       q    Type
REMARK                         _______ _______ _______ _____ _____    ______ ____
ROOT
ATOM      1  C   UNL     1      46.697   4.442  14.009  0.00  0.00    +0.000 A 
ATOM      2  C   UNL     1      46.602   5.692  13.415  0.00  0.00    +0.000 A 
ATOM      3  C   UNL     1      45.952   5.844  12.201  0.00  0.00    +0.000 A 
ATOM      4  C   UNL     1      45.354   4.778  11.522  0.00  0.00    +0.000 A 
ATOM      5  C   UNL     1      45.388   3.528  12.164  0.00  0.00    +0.000 A 
ATOM      6  C   UNL     1      46.061   3.359  13.391  0.00  0.00    +0.000 A 
ENDROOT
BRANCH   1   7
ATOM      7  C   UNL     1      47.463   4.339  15.296  0.00  0.00    +0.000 C 
BRANCH   7  10
ATOM      8  O   UNL     1      49.910   5.114  16.489  0.00  0.00    +0.000 OA
ATOM      9  C   UNL     1      49.023   5.950  16.337  0.00  0.00    +0.000 C 
ATOM     10  N   UNL     1      47.790   5.643  15.818  0.00  0.00    +0.000 N 
ATOM     11  H   UNL     1      47.183   6.393  15.514  0.00  0.00    +0.000 HD
BRANCH   9  12
ATOM     12  C   UNL     1      49.210   7.343  16.762  0.00  0.00    +0.000 A 
ATOM     13  C   UNL     1      50.070   8.172  16.050  0.00  0.00    +0.000 A 
ATOM     14  S   UNL     1      50.192   9.744  16.696  0.00  0.00    +0.000 S 
ATOM     15  C   UNL     1      49.054   9.390  17.912  0.00  0.00    +0.000 A 
ATOM     16  N   UNL     1      48.666  10.341  18.803  0.00  0.00    +0.000 NA
ATOM     17  C   UNL     1      47.767   9.950  19.642  0.00  0.00    +0.000 A 
ATOM     18  N   UNL     1      47.225   8.693  19.677  0.00  0.00    +0.000 N 
ATOM     19  C   UNL     1      47.633   7.686  18.845  0.00  0.00    +0.000 A 
ATOM     20  O   UNL     1      47.238   6.530  19.003  0.00  0.00    +0.000 OA
ATOM     21  C   UNL     1      48.613   8.081  17.847  0.00  0.00    +0.000 A 
ATOM     22  H   UNL     1      46.550   8.446  20.385  0.00  0.00    +0.000 HD
ENDBRANCH   9  12
ENDBRANCH   7  10
ENDBRANCH   1   7
BRANCH   4  23
ATOM     23  C   UNL     1      44.603   4.932  10.206  0.00  0.00    +0.000 C 
BRANCH  23  24
ATOM     24  N   UNL     1      45.371   5.425   9.041  0.00  0.00    +0.000 NA
ATOM     25  H   UNL     1      45.940   6.212   9.354  0.00  0.00    +0.000 HD
BRANCH  24  26
ATOM     26  C   UNL     1      46.275   4.419   8.485  0.00  0.00    +0.000 C 
BRANCH  26  27
ATOM     27  C   UNL     1      45.650   3.455   7.452  0.00  0.00    +0.000 C 
ATOM     28  C   UNL     1      45.317   2.040   7.965  0.00  0.00    +0.000 C 
ATOM     29  C   UNL     1      46.533   1.126   8.124  0.00  0.00    +0.000 C 
ATOM     30  N   UNL     1      47.362   1.078   6.918  0.00  0.00    +0.000 NA
ATOM     31  C   UNL     1      47.807   2.415   6.538  0.00  0.00    +0.000 C 
ATOM     32  C   UNL     1      46.618   3.339   6.252  0.00  0.00    +0.000 C 
ATOM     33  H   UNL     1      46.818   0.678   6.153  0.00  0.00    +0.000 HD
ENDBRANCH  26  27
ENDBRANCH  24  26
ENDBRANCH  23  24
ENDBRANCH   4  23
TORSDOF 7
ENDMDL
MODEL 8
REMARK VINA RESULT:    -6.432      1.763      2.324
REMARK INTER + INTRA:         -10.266
REMARK INTER:                  -9.138
REMARK INTRA:                  -1.128
REMARK UNBOUND:                -1.201
REMARK  Name = 
REMARK  7 active torsions:
REMARK  status: ('A' for Active; 'I' for Inactive)
REMARK    1  A    between atoms: C_2  and  C_20
REMARK    2  A    between atoms: N_3  and  C_4
REMARK    3  A    between atoms: C_4  and  C_5
REMARK    4  A    between atoms: C_8  and  C_9
REMARK    5  A    between atoms: C_9  and  N_10
REMARK    6  A    between atoms: N_10  and  C_11
REMARK    7  A    between atoms: C_11  and  C_12
REMARK                            x       y       z     vdW  Elec       q    Type
REMARK                         _______ _______ _______ _____ _____    ______ ____
ROOT
ATOM      1  C   UNL     1      46.185   6.482  12.472  0.00  0.00    +0.000 A 
ATOM      2  C   UNL     1      45.130   6.655  11.588  0.00  0.00    +0.000 A 
ATOM      3  C   UNL     1      44.244   5.620  11.340  0.00  0.00    +0.000 A 
ATOM      4  C   UNL     1      44.344   4.371  11.962  0.00  0.00    +0.000 A 
ATOM      5  C   UNL     1      45.369   4.225  12.913  0.00  0.00    +0.000 A 
ATOM      6  C   UNL     1      46.286   5.266  13.159  0.00  0.00    +0.000 A 
ENDROOT
BRANCH   1   7
ATOM      7  C   UNL     1      47.141   7.625  12.650  0.00  0.00    +0.000 C 
BRANCH   7  10
ATOM      8  O   UNL     1      48.342   9.144  14.714  0.00  0.00    +0.000 OA
ATOM      9  C   UNL     1      48.767   8.017  14.471  0.00  0.00    +0.000 C 
ATOM     10  N   UNL     1      48.277   7.240  13.451  0.00  0.00    +0.000 N 
ATOM     11  H   UNL     1      48.504   6.255  13.431  0.00  0.00    +0.000 HD
BRANCH   9  12
ATOM     12  C   UNL     1      49.884   7.445  15.232  0.00  0.00    +0.000 A 
ATOM     13  C   UNL     1      51.146   8.024  15.145  0.00  0.00    +0.000 A 
ATOM     14  S   UNL     1      52.330   7.218  16.067  0.00  0.00    +0.000 S 
ATOM     15  C   UNL     1      51.187   6.105  16.661  0.00  0.00    +0.000 A 
ATOM     16  N   UNL     1      51.547   5.144  17.554  0.00  0.00    +0.000 NA
ATOM     17  C   UNL     1      50.574   4.397  17.954  0.00  0.00    +0.000 A 
ATOM     18  N   UNL     1      49.275   4.517  17.537  0.00  0.00    +0.000 N 
ATOM     19  C   UNL     1      48.880   5.423  16.591  0.00  0.00    +0.000 A 
ATOM     20  O   UNL     1      47.740   5.403  16.127  0.00  0.00    +0.000 OA
ATOM     21  C   UNL     1      49.926   6.324  16.137  0.00  0.00    +0.000 A 
ATOM     22  H   UNL     1      48.571   3.874  17.866  0.00  0.00    +0.000 HD
ENDBRANCH   9  12
ENDBRANCH   7  10
ENDBRANCH   1   7
BRANCH   4  23
ATOM     23  C   UNL     1      43.358   3.234  11.732  0.00  0.00    +0.000 C 
BRANCH  23  24
ATOM     24  N   UNL     1      43.768   2.157  10.803  0.00  0.00    +0.000 NA
ATOM     25  H   UNL     1      43.007   2.015  10.138  0.00  0.00    +0.000 HD
BRANCH  24  26
ATOM     26  C   UNL     1      44.969   2.491  10.038  0.00  0.00    +0.000 C 
BRANCH  26  27
ATOM     27  C   UNL     1      44.787   2.565   8.506  0.00  0.00    +0.000 C 
ATOM     28  C   UNL     1      45.860   1.848   7.664  0.00  0.00    +0.000 C 
ATOM     29  C   UNL     1      47.191   2.597   7.570  0.00  0.00    +0.000 C 
ATOM     30  N   UNL     1      47.023   3.990   7.151  0.00  0.00    +0.000 NA
ATOM     31  C   UNL     1      46.128   4.703   8.058  0.00  0.00    +0.000 C 
ATOM     32  C   UNL     1      44.739   4.055   8.096  0.00  0.00    +0.000 C 
ATOM     33  H   UNL     1      46.630   4.013   6.210  0.00  0.00    +0.000 HD
ENDBRANCH  26  27
ENDBRANCH  24  26
ENDBRANCH  23  24
ENDBRANCH   4  23
TORSDOF 7
ENDMDL
MODEL 9
REMARK VINA RESULT:    -6.348      3.090      4.996
REMARK INTER + INTRA:         -10.146
REMARK INTER:                  -8.980
REMARK INTRA:                  -1.166
REMARK UNBOUND:                -1.201
REMARK  Name = 
REMARK  7 active torsions:
REMARK  status: ('A' for Active; 'I' for Inactive)
REMARK    1  A    between atoms: C_2  and  C_20
REMARK    2  A    between atoms: N_3  and  C_4
REMARK    3  A    between atoms: C_4  and  C_5
REMARK    4  A    between atoms: C_8  and  C_9
REMARK    5  A    between atoms: C_9  and  N_10
REMARK    6  A    between atoms: N_10  and  C_11
REMARK    7  A    between atoms: C_11  and  C_12
REMARK                            x       y       z     vdW  Elec       q    Type
REMARK                         _______ _______ _______ _____ _____    ______ ____
ROOT
ATOM      1  C   UNL     1      46.647   5.454  12.875  0.00  0.00    +0.000 A 
ATOM      2  C   UNL     1      46.330   6.112  11.696  0.00  0.00    +0.000 A 
ATOM      3  C   UNL     1      45.500   5.515  10.761  0.00  0.00    +0.000 A 
ATOM      4  C   UNL     1      44.932   4.252  10.948  0.00  0.00    +0.000 A 
ATOM      5  C   UNL     1      45.196   3.621  12.176  0.00  0.00    +0.000 A 
ATOM      6  C   UNL     1      46.053   4.212  13.127  0.00  0.00    +0.000 A 
ENDROOT
BRANCH   1   7
ATOM      7  C   UNL     1      47.598   6.133  13.818  0.00  0.00    +0.000 C 
BRANCH   7  10
ATOM      8  O   UNL     1      49.776   7.575  14.908  0.00  0.00    +0.000 OA
ATOM      9  C   UNL     1      49.495   7.715  13.720  0.00  0.00    +0.000 C 
ATOM     10  N   UNL     1      48.422   7.096  13.130  0.00  0.00    +0.000 N 
ATOM     11  H   UNL     1      48.363   7.069  12.120  0.00  0.00    +0.000 HD
BRANCH   9  12
ATOM     12  C   UNL     1      50.269   8.615  12.857  0.00  0.00    +0.000 A 
ATOM     13  C   UNL     1      51.653   8.497  12.801  0.00  0.00    +0.000 A 
ATOM     14  S   UNL     1      52.395   9.637  11.775  0.00  0.00    +0.000 S 
ATOM     15  C   UNL     1      50.888  10.289  11.323  0.00  0.00    +0.000 A 
ATOM     16  N   UNL     1      50.808  11.298  10.414  0.00  0.00    +0.000 NA
ATOM     17  C   UNL     1      49.604  11.666  10.132  0.00  0.00    +0.000 A 
ATOM     18  N   UNL     1      48.472  11.123  10.679  0.00  0.00    +0.000 N 
ATOM     19  C   UNL     1      48.507  10.155  11.645  0.00  0.00    +0.000 A 
ATOM     20  O   UNL     1      47.481   9.798  12.226  0.00  0.00    +0.000 OA
ATOM     21  C   UNL     1      49.837   9.668  11.972  0.00  0.00    +0.000 A 
ATOM     22  H   UNL     1      47.562  11.486  10.437  0.00  0.00    +0.000 HD
ENDBRANCH   9  12
ENDBRANCH   7  10
ENDBRANCH   1   7
BRANCH   4  23
ATOM     23  C   UNL     1      43.987   3.596   9.950  0.00  0.00    +0.000 C 
BRANCH  23  24
ATOM     24  N   UNL     1      43.978   4.134   8.571  0.00  0.00    +0.000 NA
ATOM     25  H   UNL     1      44.394   5.065   8.598  0.00  0.00    +0.000 HD
BRANCH  24  26
ATOM     26  C   UNL     1      44.761   3.326   7.637  0.00  0.00    +0.000 C 
BRANCH  26  27
ATOM     27  C   UNL     1      46.271   3.225   7.943  0.00  0.00    +0.000 C 
ATOM     28  C   UNL     1      47.219   3.710   6.828  0.00  0.00    +0.000 C 
ATOM     29  C   UNL     1      47.363   2.736   5.657  0.00  0.00    +0.000 C 
ATOM     30  N   UNL     1      47.697   1.379   6.093  0.00  0.00    +0.000 NA
ATOM     31  C   UNL     1      46.697   0.870   7.027  0.00  0.00    +0.000 C 
ATOM     32  C   UNL     1      46.600   1.751   8.276  0.00  0.00    +0.000 C 
ATOM     33  H   UNL     1      48.607   1.389   6.553  0.00  0.00    +0.000 HD
ENDBRANCH  26  27
ENDBRANCH  24  26
ENDBRANCH  23  24
ENDBRANCH   4  23
TORSDOF 7
ENDMDL
