MODEL 1
REMARK VINA RESULT:    -8.283      0.000      0.000
REMARK INTER + INTRA:         -12.270
REMARK INTER:                 -11.189
REMARK INTRA:                  -1.081
REMARK UNBOUND:                -1.081
REMARK  Name = 
REMARK  7 active torsions:
REMARK  status: ('A' for Active; 'I' for Inactive)
REMARK    1  A    between atoms: C_1  and  C_2
REMARK    2  A    between atoms: C_6  and  C_7
REMARK    3  A    between atoms: N_9  and  C_10
REMARK    4  A    between atoms: C_10  and  C_11
REMARK    5  A    between atoms: C_14  and  C_15
REMARK    6  A    between atoms: C_15  and  N_16
REMARK    7  A    between atoms: C_17  and  C_19
REMARK                            x       y       z     vdW  Elec       q    Type
REMARK                         _______ _______ _______ _____ _____    ______ ____
ROOT
ATOM      1  C   UNL     1      44.993   6.262  11.354  0.00  0.00    +0.000 A 
ATOM      2  C   UNL     1      46.213   5.752  11.817  0.00  0.00    +0.000 A 
ATOM      3  C   UNL     1      47.045   6.518  12.645  0.00  0.00    +0.000 A 
ATOM      4  C   UNL     1      46.664   7.805  13.048  0.00  0.00    +0.000 A 
ATOM      5  C   UNL     1      45.449   8.319  12.574  0.00  0.00    +0.000 A 
ATOM      6  C   UNL     1      44.616   7.553  11.749  0.00  0.00    +0.000 A 
ENDROOT
BRANCH   1   7
ATOM      7  C   UNL     1      44.127   5.452  10.423  0.00  0.00    +0.000 C 
BRANCH   7  10
ATOM      8  C   UNL     1      44.695   3.267   9.467  0.00  0.00    +0.000 C 
ATOM      9  O   UNL     1      43.910   2.672  10.199  0.00  0.00    +0.000 OA
ATOM     10  N   UNL     1      44.874   4.637   9.501  0.00  0.00    +0.000 N 
ATOM     11  H   UNL     1      45.557   5.038   8.866  0.00  0.00    +0.000 HD
BRANCH   8  17
ATOM     12  C   UNL     1      47.255   3.168   5.157  0.00  0.00    +0.000 C 
ATOM     13  C   UNL     1      46.756   2.489   6.397  0.00  0.00    +0.000 A 
ATOM     14  C   UNL     1      47.050   1.150   6.663  0.00  0.00    +0.000 A 
ATOM     15  C   UNL     1      46.561   0.575   7.828  0.00  0.00    +0.000 A 
ATOM     16  N   UNL     1      45.804   1.224   8.736  0.00  0.00    +0.000 NA
ATOM     17  C   UNL     1      45.529   2.529   8.461  0.00  0.00    +0.000 A 
ATOM     18  C   UNL     1      45.974   3.191   7.318  0.00  0.00    +0.000 A 
ENDBRANCH   8  17
ENDBRANCH   7  10
ENDBRANCH   1   7
BRANCH   4  19
ATOM     19  C   UNL     1      47.534   8.633  13.961  0.00  0.00    +0.000 C 
BRANCH  19  20
ATOM     20  N   UNL     1      47.889   7.922  15.164  0.00  0.00    +0.000 N 
ATOM     21  C   UNL     1      49.175   7.498  15.386  0.00  0.00    +0.000 C 
ATOM     22  O   UNL     1      50.087   7.732  14.597  0.00  0.00    +0.000 OA
ATOM     23  H   UNL     1      47.129   7.490  15.680  0.00  0.00    +0.000 HD
BRANCH  21  24
ATOM     24  C   UNL     1      49.421   6.794  16.654  0.00  0.00    +0.000 A 
ATOM     25  C   UNL     1      50.230   7.374  17.623  0.00  0.00    +0.000 A 
ATOM     26  S   UNL     1      50.361   6.443  19.047  0.00  0.00    +0.000 S 
ATOM     27  C   UNL     1      49.387   5.210  18.397  0.00  0.00    +0.000 A 
ATOM     28  N   UNL     1      49.114   4.079  19.107  0.00  0.00    +0.000 NA
ATOM     29  C   UNL     1      48.385   3.219  18.477  0.00  0.00    +0.000 A 
ATOM     30  N   UNL     1      47.891   3.391  17.210  0.00  0.00    +0.000 N 
ATOM     31  C   UNL     1      48.115   4.527  16.472  0.00  0.00    +0.000 A 
ATOM     32  O   UNL     1      47.611   4.666  15.356  0.00  0.00    +0.000 OA
ATOM     33  C   UNL     1      48.945   5.518  17.124  0.00  0.00    +0.000 A 
ATOM     34  H   UNL     1      47.312   2.685  16.779  0.00  0.00    +0.000 HD
ENDBRANCH  21  24
ENDBRANCH  19  20
ENDBRANCH   4  19
TORSDOF 6
ENDMDL
MODEL 2
REMARK VINA RESULT:    -8.033      0.853      1.566
REMARK INTER + INTRA:         -11.932
REMARK INTER:                 -10.901
REMARK INTRA:                  -1.031
REMARK UNBOUND:                -1.081
REMARK  Name = 
REMARK  7 active torsions:
REMARK  status: ('A' for Active; 'I' for Inactive)
REMARK    1  A    between atoms: C_1  and  C_2
REMARK    2  A    between atoms: C_6  and  C_7
REMARK    3  A    between atoms: N_9  and  C_10
REMARK    4  A    between atoms: C_10  and  C_11
REMARK    5  A    between atoms: C_14  and  C_15
REMARK    6  A    between atoms: C_15  and  N_16
REMARK    7  A    between atoms: C_17  and  C_19
REMARK                            x       y       z     vdW  Elec       q    Type
REMARK                         _______ _______ _______ _____ _____    ______ ____
ROOT
ATOM      1  C   UNL     1      45.379   6.780  11.547  0.00  0.00    +0.000 A 
ATOM      2  C   UNL     1      45.011   8.043  12.030  0.00  0.00    +0.000 A 
ATOM      3  C   UNL     1      45.828   8.734  12.935  0.00  0.00    +0.000 A 
ATOM      4  C   UNL     1      47.044   8.184  13.362  0.00  0.00    +0.000 A 
ATOM      5  C   UNL     1      47.406   6.916  12.889  0.00  0.00    +0.000 A 
ATOM      6  C   UNL     1      46.591   6.227  11.981  0.00  0.00    +0.000 A 
ENDROOT
BRANCH   1   7
ATOM      7  C   UNL     1      44.471   6.021  10.613  0.00  0.00    +0.000 C 
BRANCH   7  10
ATOM      8  C   UNL     1      44.771   3.925   9.376  0.00  0.00    +0.000 C 
ATOM      9  O   UNL     1      43.813   3.390   9.926  0.00  0.00    +0.000 OA
ATOM     10  N   UNL     1      45.174   5.220   9.646  0.00  0.00    +0.000 N 
ATOM     11  H   UNL     1      45.988   5.572   9.151  0.00  0.00    +0.000 HD
BRANCH   8  17
ATOM     12  C   UNL     1      46.836  -0.304   7.649  0.00  0.00    +0.000 C 
ATOM     13  C   UNL     1      46.568   1.165   7.523  0.00  0.00    +0.000 A 
ATOM     14  C   UNL     1      47.058   1.906   6.447  0.00  0.00    +0.000 A 
ATOM     15  C   UNL     1      46.776   3.264   6.384  0.00  0.00    +0.000 A 
ATOM     16  N   UNL     1      46.055   3.934   7.306  0.00  0.00    +0.000 NA
ATOM     17  C   UNL     1      45.583   3.195   8.347  0.00  0.00    +0.000 A 
ATOM     18  C   UNL     1      45.815   1.829   8.497  0.00  0.00    +0.000 A 
ENDBRANCH   8  17
ENDBRANCH   7  10
ENDBRANCH   1   7
BRANCH   4  19
ATOM     19  C   UNL     1      47.950   8.925  14.315  0.00  0.00    +0.000 C 
BRANCH  19  20
ATOM     20  N   UNL     1      48.173   8.188  15.534  0.00  0.00    +0.000 N 
ATOM     21  C   UNL     1      49.422   7.726  15.868  0.00  0.00    +0.000 C 
ATOM     22  O   UNL     1      50.409   7.947  15.170  0.00  0.00    +0.000 OA
ATOM     23  H   UNL     1      47.358   7.770  15.971  0.00  0.00    +0.000 HD
BRANCH  21  24
ATOM     24  C   UNL     1      49.530   7.000  17.141  0.00  0.00    +0.000 A 
ATOM     25  C   UNL     1      50.190   7.581  18.218  0.00  0.00    +0.000 A 
ATOM     26  S   UNL     1      50.173   6.619  19.627  0.00  0.00    +0.000 S 
ATOM     27  C   UNL     1      49.334   5.372  18.832  0.00  0.00    +0.000 A 
ATOM     28  N   UNL     1      49.014   4.215  19.479  0.00  0.00    +0.000 NA
ATOM     29  C   UNL     1      48.401   3.348  18.742  0.00  0.00    +0.000 A 
ATOM     30  N   UNL     1      48.066   3.535  17.428  0.00  0.00    +0.000 N 
ATOM     31  C   UNL     1      48.340   4.696  16.747  0.00  0.00    +0.000 A 
ATOM     32  O   UNL     1      47.976   4.847  15.579  0.00  0.00    +0.000 OA
ATOM     33  C   UNL     1      49.045   5.697  17.520  0.00  0.00    +0.000 A 
ATOM     34  H   UNL     1      47.571   2.821  16.911  0.00  0.00    +0.000 HD
ENDBRANCH  21  24
ENDBRANCH  19  20
ENDBRANCH   4  19
TORSDOF 6
ENDMDL
MODEL 3
REMARK VINA RESULT:    -7.772      2.444      3.086
REMARK INTER + INTRA:         -11.579
REMARK INTER:                 -10.659
REMARK INTRA:                  -0.921
REMARK UNBOUND:                -1.081
REMARK  Name = 
REMARK  7 active torsions:
REMARK  status: ('A' for Active; 'I' for Inactive)
REMARK    1  A    between atoms: C_1  and  C_2
REMARK    2  A    between atoms: C_6  and  C_7
REMARK    3  A    between atoms: N_9  and  C_10
REMARK    4  A    between atoms: C_10  and  C_11
REMARK    5  A    between atoms: C_14  and  C_15
REMARK    6  A    between atoms: C_15  and  N_16
REMARK    7  A    between atoms: C_17  and  C_19
REMARK                            x       y       z     vdW  Elec       q    Type
REMARK                         _______ _______ _______ _____ _____    ______ ____
ROOT
ATOM      1  C   UNL     1      46.152   5.092  13.263  0.00  0.00    +0.000 A 
ATOM      2  C   UNL     1      46.692   6.333  12.901  0.00  0.00    +0.000 A 
ATOM      3  C   UNL     1      47.636   6.973  13.716  0.00  0.00    +0.000 A 
ATOM      4  C   UNL     1      48.078   6.373  14.903  0.00  0.00    +0.000 A 
ATOM      5  C   UNL     1      47.528   5.138  15.271  0.00  0.00    +0.000 A 
ATOM      6  C   UNL     1      46.587   4.497  14.455  0.00  0.00    +0.000 A 
ENDROOT
BRANCH   1   7
ATOM      7  C   UNL     1      45.100   4.434  12.407  0.00  0.00    +0.000 C 
BRANCH   7  10
ATOM      8  C   UNL     1      44.926   4.004   9.999  0.00  0.00    +0.000 C 
ATOM      9  O   UNL     1      43.858   4.602   9.905  0.00  0.00    +0.000 OA
ATOM     10  N   UNL     1      45.617   3.867  11.188  0.00  0.00    +0.000 N 
ATOM     11  H   UNL     1      46.485   3.341  11.170  0.00  0.00    +0.000 HD
BRANCH   8  17
ATOM     12  C   UNL     1      46.736  -0.034   7.642  0.00  0.00    +0.000 C 
ATOM     13  C   UNL     1      46.432   1.433   7.674  0.00  0.00    +0.000 A 
ATOM     14  C   UNL     1      46.730   2.264   6.592  0.00  0.00    +0.000 A 
ATOM     15  C   UNL     1      46.425   3.615   6.680  0.00  0.00    +0.000 A 
ATOM     16  N   UNL     1      45.855   4.197   7.755  0.00  0.00    +0.000 NA
ATOM     17  C   UNL     1      45.569   3.372   8.800  0.00  0.00    +0.000 A 
ATOM     18  C   UNL     1      45.840   2.005   8.804  0.00  0.00    +0.000 A 
ENDBRANCH   8  17
ENDBRANCH   7  10
ENDBRANCH   1   7
BRANCH   4  19
ATOM     19  C   UNL     1      49.113   7.035  15.779  0.00  0.00    +0.000 C 
BRANCH  19  20
ATOM     20  N   UNL     1      50.115   6.102  16.232  0.00  0.00    +0.000 N 
ATOM     21  C   UNL     1      50.387   5.943  17.568  0.00  0.00    +0.000 C 
ATOM     22  O   UNL     1      49.771   6.554  18.438  0.00  0.00    +0.000 OA
ATOM     23  H   UNL     1      50.802   5.801  15.548  0.00  0.00    +0.000 HD
BRANCH  21  24
ATOM     24  C   UNL     1      51.418   4.953  17.912  0.00  0.00    +0.000 A 
ATOM     25  C   UNL     1      52.616   5.369  18.481  0.00  0.00    +0.000 A 
ATOM     26  S   UNL     1      53.672   4.083  18.860  0.00  0.00    +0.000 S 
ATOM     27  C   UNL     1      52.589   2.934  18.228  0.00  0.00    +0.000 A 
ATOM     28  N   UNL     1      52.898   1.606  18.219  0.00  0.00    +0.000 NA
ATOM     29  C   UNL     1      51.993   0.855  17.683  0.00  0.00    +0.000 A 
ATOM     30  N   UNL     1      50.805   1.305  17.171  0.00  0.00    +0.000 N 
ATOM     31  C   UNL     1      50.441   2.629  17.189  0.00  0.00    +0.000 A 
ATOM     32  O   UNL     1      49.341   2.989  16.766  0.00  0.00    +0.000 OA
ATOM     33  C   UNL     1      51.428   3.520  17.761  0.00  0.00    +0.000 A 
ATOM     34  H   UNL     1      50.132   0.662  16.780  0.00  0.00    +0.000 HD
ENDBRANCH  21  24
ENDBRANCH  19  20
ENDBRANCH   4  19
TORSDOF 6
ENDMDL
MODEL 4
REMARK VINA RESULT:    -7.293      5.054     10.152
REMARK INTER + INTRA:         -10.932
REMARK INTER:                 -10.103
REMARK INTRA:                  -0.829
REMARK UNBOUND:                -1.081
REMARK  Name = 
REMARK  7 active torsions:
REMARK  status: ('A' for Active; 'I' for Inactive)
REMARK    1  A    between atoms: C_1  and  C_2
REMARK    2  A    between atoms: C_6  and  C_7
REMARK    3  A    between atoms: N_9  and  C_10
REMARK    4  A    between atoms: C_10  and  C_11
REMARK    5  A    between atoms: C_14  and  C_15
REMARK    6  A    between atoms: C_15  and  N_16
REMARK    7  A    between atoms: C_17  and  C_19
REMARK                            x       y       z     vdW  Elec       q    Type
REMARK                         _______ _______ _______ _____ _____    ______ ____
ROOT
ATOM      1  C   UNL     1      51.463   3.109  17.763  0.00  0.00    +0.000 A 
ATOM      2  C   UNL     1      50.746   2.017  17.256  0.00  0.00    +0.000 A 
ATOM      3  C   UNL     1      49.370   2.113  17.007  0.00  0.00    +0.000 A 
ATOM      4  C   UNL     1      48.684   3.313  17.240  0.00  0.00    +0.000 A 
ATOM      5  C   UNL     1      49.400   4.400  17.760  0.00  0.00    +0.000 A 
ATOM      6  C   UNL     1      50.776   4.305  18.006  0.00  0.00    +0.000 A 
ENDROOT
BRANCH   1   7
ATOM      7  C   UNL     1      52.933   2.982  18.076  0.00  0.00    +0.000 C 
BRANCH   7  10
ATOM      8  C   UNL     1      54.328   0.967  17.996  0.00  0.00    +0.000 C 
ATOM      9  O   UNL     1      54.966   1.371  17.028  0.00  0.00    +0.000 OA
ATOM     10  N   UNL     1      53.307   1.688  18.585  0.00  0.00    +0.000 N 
ATOM     11  H   UNL     1      52.826   1.265  19.373  0.00  0.00    +0.000 HD
BRANCH   8  17
ATOM     12  C   UNL     1      54.958  -3.991  17.600  0.00  0.00    +0.000 C 
ATOM     13  C   UNL     1      54.929  -2.739  18.424  0.00  0.00    +0.000 A 
ATOM     14  C   UNL     1      55.178  -2.764  19.797  0.00  0.00    +0.000 A 
ATOM     15  C   UNL     1      55.136  -1.572  20.508  0.00  0.00    +0.000 A 
ATOM     16  N   UNL     1      54.863  -0.371  19.961  0.00  0.00    +0.000 NA
ATOM     17  C   UNL     1      54.625  -0.365  18.620  0.00  0.00    +0.000 A 
ATOM     18  C   UNL     1      54.642  -1.509  17.825  0.00  0.00    +0.000 A 
ENDBRANCH   8  17
ENDBRANCH   7  10
ENDBRANCH   1   7
BRANCH   4  19
ATOM     19  C   UNL     1      47.208   3.444  16.953  0.00  0.00    +0.000 C 
BRANCH  19  20
ATOM     20  N   UNL     1      46.938   4.448  15.955  0.00  0.00    +0.000 N 
ATOM     21  C   UNL     1      47.041   4.167  14.616  0.00  0.00    +0.000 C 
ATOM     22  O   UNL     1      47.331   3.047  14.203  0.00  0.00    +0.000 OA
ATOM     23  H   UNL     1      46.966   5.416  16.261  0.00  0.00    +0.000 HD
BRANCH  21  24
ATOM     24  C   UNL     1      46.728   5.267  13.691  0.00  0.00    +0.000 A 
ATOM     25  C   UNL     1      47.674   6.254  13.442  0.00  0.00    +0.000 A 
ATOM     26  S   UNL     1      47.159   7.419  12.307  0.00  0.00    +0.000 S 
ATOM     27  C   UNL     1      45.637   6.676  12.151  0.00  0.00    +0.000 A 
ATOM     28  N   UNL     1      44.680   7.196  11.330  0.00  0.00    +0.000 NA
ATOM     29  C   UNL     1      43.566   6.541  11.334  0.00  0.00    +0.000 A 
ATOM     30  N   UNL     1      43.325   5.410  12.068  0.00  0.00    +0.000 N 
ATOM     31  C   UNL     1      44.270   4.836  12.882  0.00  0.00    +0.000 A 
ATOM     32  O   UNL     1      44.034   3.788  13.487  0.00  0.00    +0.000 OA
ATOM     33  C   UNL     1      45.534   5.540  12.931  0.00  0.00    +0.000 A 
ATOM     34  H   UNL     1      42.435   4.935  12.014  0.00  0.00    +0.000 HD
ENDBRANCH  21  24
ENDBRANCH  19  20
ENDBRANCH   4  19
TORSDOF 6
ENDMDL
MODEL 5
REMARK VINA RESULT:    -7.259      2.118      2.817
REMARK INTER + INTRA:         -10.886
REMARK INTER:                  -9.885
REMARK INTRA:                  -1.001
REMARK UNBOUND:                -1.081
REMARK  Name = 
REMARK  7 active torsions:
REMARK  status: ('A' for Active; 'I' for Inactive)
REMARK    1  A    between atoms: C_1  and  C_2
REMARK    2  A    between atoms: C_6  and  C_7
REMARK    3  A    between atoms: N_9  and  C_10
REMARK    4  A    between atoms: C_10  and  C_11
REMARK    5  A    between atoms: C_14  and  C_15
REMARK    6  A    between atoms: C_15  and  N_16
REMARK    7  A    between atoms: C_17  and  C_19
REMARK                            x       y       z     vdW  Elec       q    Type
REMARK                         _______ _______ _______ _____ _____    ______ ____
ROOT
ATOM      1  C   UNL     1      45.508   4.565  12.432  0.00  0.00    +0.000 A 
ATOM      2  C   UNL     1      45.408   5.945  12.212  0.00  0.00    +0.000 A 
ATOM      3  C   UNL     1      46.234   6.846  12.898  0.00  0.00    +0.000 A 
ATOM      4  C   UNL     1      47.196   6.383  13.805  0.00  0.00    +0.000 A 
ATOM      5  C   UNL     1      47.287   5.003  14.035  0.00  0.00    +0.000 A 
ATOM      6  C   UNL     1      46.463   4.103  13.347  0.00  0.00    +0.000 A 
ENDROOT
BRANCH   1   7
ATOM      7  C   UNL     1      44.581   3.607  11.728  0.00  0.00    +0.000 C 
BRANCH   7  10
ATOM      8  C   UNL     1      45.111   3.271   9.358  0.00  0.00    +0.000 C 
ATOM      9  O   UNL     1      44.492   4.273   9.012  0.00  0.00    +0.000 OA
ATOM     10  N   UNL     1      45.214   2.859  10.673  0.00  0.00    +0.000 N 
ATOM     11  H   UNL     1      45.735   2.007  10.860  0.00  0.00    +0.000 HD
BRANCH   8  17
ATOM     12  C   UNL     1      47.605   2.760   5.038  0.00  0.00    +0.000 C 
ATOM     13  C   UNL     1      47.013   2.171   6.283  0.00  0.00    +0.000 A 
ATOM     14  C   UNL     1      47.098   0.804   6.555  0.00  0.00    +0.000 A 
ATOM     15  C   UNL     1      46.531   0.316   7.725  0.00  0.00    +0.000 A 
ATOM     16  N   UNL     1      45.887   1.078   8.632  0.00  0.00    +0.000 NA
ATOM     17  C   UNL     1      45.816   2.409   8.352  0.00  0.00    +0.000 A 
ATOM     18  C   UNL     1      46.353   2.989   7.204  0.00  0.00    +0.000 A 
ENDBRANCH   8  17
ENDBRANCH   7  10
ENDBRANCH   1   7
BRANCH   4  19
ATOM     19  C   UNL     1      48.113   7.335  14.532  0.00  0.00    +0.000 C 
BRANCH  19  20
ATOM     20  N   UNL     1      48.143   7.082  15.951  0.00  0.00    +0.000 N 
ATOM     21  C   UNL     1      49.236   6.505  16.549  0.00  0.00    +0.000 C 
ATOM     22  O   UNL     1      50.247   6.212  15.917  0.00  0.00    +0.000 OA
ATOM     23  H   UNL     1      47.248   7.060  16.430  0.00  0.00    +0.000 HD
BRANCH  21  24
ATOM     24  C   UNL     1      49.157   6.308  18.004  0.00  0.00    +0.000 A 
ATOM     25  C   UNL     1      49.348   5.042  18.543  0.00  0.00    +0.000 A 
ATOM     26  S   UNL     1      49.272   5.010  20.248  0.00  0.00    +0.000 S 
ATOM     27  C   UNL     1      48.928   6.674  20.319  0.00  0.00    +0.000 A 
ATOM     28  N   UNL     1      48.718   7.299  21.513  0.00  0.00    +0.000 NA
ATOM     29  C   UNL     1      48.441   8.557  21.411  0.00  0.00    +0.000 A 
ATOM     30  N   UNL     1      48.368   9.249  20.231  0.00  0.00    +0.000 N 
ATOM     31  C   UNL     1      48.602   8.666  19.010  0.00  0.00    +0.000 A 
ATOM     32  O   UNL     1      48.579   9.333  17.974  0.00  0.00    +0.000 OA
ATOM     33  C   UNL     1      48.900   7.250  19.063  0.00  0.00    +0.000 A 
ATOM     34  H   UNL     1      48.161  10.238  20.221  0.00  0.00    +0.000 HD
ENDBRANCH  21  24
ENDBRANCH  19  20
ENDBRANCH   4  19
TORSDOF 6
ENDMDL
MODEL 6
REMARK VINA RESULT:    -6.986      1.694      2.131
REMARK INTER + INTRA:         -10.517
REMARK INTER:                  -9.575
REMARK INTRA:                  -0.942
REMARK UNBOUND:                -1.081
REMARK  Name = 
REMARK  7 active torsions:
REMARK  status: ('A' for Active; 'I' for Inactive)
REMARK    1  A    between atoms: C_1  and  C_2
REMARK    2  A    between atoms: C_6  and  C_7
REMARK    3  A    between atoms: N_9  and  C_10
REMARK    4  A    between atoms: C_10  and  C_11
REMARK    5  A    between atoms: C_14  and  C_15
REMARK    6  A    between atoms: C_15  and  N_16
REMARK    7  A    between atoms: C_17  and  C_19
REMARK                            x       y       z     vdW  Elec       q    Type
REMARK                         _______ _______ _______ _____ _____    ______ ____
ROOT
ATOM      1  C   UNL     1      45.661   6.808  11.756  0.00  0.00    +0.000 A 
ATOM      2  C   UNL     1      46.662   5.995  12.305  0.00  0.00    +0.000 A 
ATOM      3  C   UNL     1      47.599   6.518  13.207  0.00  0.00    +0.000 A 
ATOM      4  C   UNL     1      47.542   7.862  13.597  0.00  0.00    +0.000 A 
ATOM      5  C   UNL     1      46.549   8.678  13.037  0.00  0.00    +0.000 A 
ATOM      6  C   UNL     1      45.611   8.155  12.138  0.00  0.00    +0.000 A 
ENDROOT
BRANCH   1   7
ATOM      7  C   UNL     1      44.688   6.251  10.748  0.00  0.00    +0.000 C 
BRANCH   7  10
ATOM      8  C   UNL     1      44.730   4.028   9.713  0.00  0.00    +0.000 C 
ATOM      9  O   UNL     1      43.741   3.651  10.335  0.00  0.00    +0.000 OA
ATOM     10  N   UNL     1      45.273   5.293   9.847  0.00  0.00    +0.000 N 
ATOM     11  H   UNL     1      46.102   5.508   9.302  0.00  0.00    +0.000 HD
BRANCH   8  17
ATOM     12  C   UNL     1      47.131   3.313   5.371  0.00  0.00    +0.000 C 
ATOM     13  C   UNL     1      46.580   2.786   6.662  0.00  0.00    +0.000 A 
ATOM     14  C   UNL     1      46.698   1.439   7.009  0.00  0.00    +0.000 A 
ATOM     15  C   UNL     1      46.168   1.010   8.219  0.00  0.00    +0.000 A 
ATOM     16  N   UNL     1      45.531   1.812   9.096  0.00  0.00    +0.000 NA
ATOM     17  C   UNL     1      45.428   3.123   8.742  0.00  0.00    +0.000 A 
ATOM     18  C   UNL     1      45.926   3.645   7.550  0.00  0.00    +0.000 A 
ENDBRANCH   8  17
ENDBRANCH   7  10
ENDBRANCH   1   7
BRANCH   4  19
ATOM     19  C   UNL     1      48.526   8.436  14.588  0.00  0.00    +0.000 C 
BRANCH  19  20
ATOM     20  N   UNL     1      49.005   7.441  15.514  0.00  0.00    +0.000 N 
ATOM     21  C   UNL     1      48.814   7.576  16.866  0.00  0.00    +0.000 C 
ATOM     22  O   UNL     1      48.200   8.524  17.348  0.00  0.00    +0.000 OA
ATOM     23  H   UNL     1      49.729   6.814  15.177  0.00  0.00    +0.000 HD
BRANCH  21  24
ATOM     24  C   UNL     1      49.335   6.491  17.711  0.00  0.00    +0.000 A 
ATOM     25  C   UNL     1      48.541   5.956  18.719  0.00  0.00    +0.000 A 
ATOM     26  S   UNL     1      49.286   4.673  19.563  0.00  0.00    +0.000 S 
ATOM     27  C   UNL     1      50.712   4.826  18.648  0.00  0.00    +0.000 A 
ATOM     28  N   UNL     1      51.789   4.023  18.883  0.00  0.00    +0.000 NA
ATOM     29  C   UNL     1      52.809   4.271  18.130  0.00  0.00    +0.000 A 
ATOM     30  N   UNL     1      52.848   5.234  17.157  0.00  0.00    +0.000 N 
ATOM     31  C   UNL     1      51.776   6.043  16.866  0.00  0.00    +0.000 A 
ATOM     32  O   UNL     1      51.832   6.863  15.948  0.00  0.00    +0.000 OA
ATOM     33  C   UNL     1      50.610   5.821  17.694  0.00  0.00    +0.000 A 
ATOM     34  H   UNL     1      53.674   5.366  16.590  0.00  0.00    +0.000 HD
ENDBRANCH  21  24
ENDBRANCH  19  20
ENDBRANCH   4  19
TORSDOF 6
ENDMDL
MODEL 7
REMARK VINA RESULT:    -6.917      5.176     10.226
REMARK INTER + INTRA:         -10.424
REMARK INTER:                  -9.342
REMARK INTRA:                  -1.082
REMARK UNBOUND:                -1.081
REMARK  Name = 
REMARK  7 active torsions:
REMARK  status: ('A' for Active; 'I' for Inactive)
REMARK    1  A    between atoms: C_1  and  C_2
REMARK    2  A    between atoms: C_6  and  C_7
REMARK    3  A    between atoms: N_9  and  C_10
REMARK    4  A    between atoms: C_10  and  C_11
REMARK    5  A    between atoms: C_14  and  C_15
REMARK    6  A    between atoms: C_15  and  N_16
REMARK    7  A    between atoms: C_17  and  C_19
REMARK                            x       y       z     vdW  Elec       q    Type
REMARK                         _______ _______ _______ _____ _____    ______ ____
ROOT
ATOM      1  C   UNL     1      51.539   2.777  17.684  0.00  0.00    +0.000 A 
ATOM      2  C   UNL     1      50.973   4.009  18.036  0.00  0.00    +0.000 A 
ATOM      3  C   UNL     1      49.619   4.276  17.792  0.00  0.00    +0.000 A 
ATOM      4  C   UNL     1      48.794   3.305  17.209  0.00  0.00    +0.000 A 
ATOM      5  C   UNL     1      49.363   2.077  16.846  0.00  0.00    +0.000 A 
ATOM      6  C   UNL     1      50.716   1.809  17.092  0.00  0.00    +0.000 A 
ENDROOT
BRANCH   1   7
ATOM      7  C   UNL     1      53.007   2.516  17.904  0.00  0.00    +0.000 C 
BRANCH   7  10
ATOM      8  C   UNL     1      54.402   0.515  18.158  0.00  0.00    +0.000 C 
ATOM      9  O   UNL     1      55.210   0.895  17.315  0.00  0.00    +0.000 OA
ATOM     10  N   UNL     1      53.284   1.244  18.519  0.00  0.00    +0.000 N 
ATOM     11  H   UNL     1      52.665   0.841  19.215  0.00  0.00    +0.000 HD
BRANCH   8  17
ATOM     12  C   UNL     1      54.607  -4.494  18.096  0.00  0.00    +0.000 C 
ATOM     13  C   UNL     1      54.681  -3.192  18.835  0.00  0.00    +0.000 A 
ATOM     14  C   UNL     1      54.923  -3.146  20.210  0.00  0.00    +0.000 A 
ATOM     15  C   UNL     1      54.981  -1.910  20.840  0.00  0.00    +0.000 A 
ATOM     16  N   UNL     1      54.813  -0.729  20.211  0.00  0.00    +0.000 NA
ATOM     17  C   UNL     1      54.582  -0.792  18.871  0.00  0.00    +0.000 A 
ATOM     18  C   UNL     1      54.504  -1.984  18.153  0.00  0.00    +0.000 A 
ENDBRANCH   8  17
ENDBRANCH   7  10
ENDBRANCH   1   7
BRANCH   4  19
ATOM     19  C   UNL     1      47.327   3.564  16.964  0.00  0.00    +0.000 C 
BRANCH  19  20
ATOM     20  N   UNL     1      47.116   4.576  15.959  0.00  0.00    +0.000 N 
ATOM     21  C   UNL     1      47.106   4.261  14.623  0.00  0.00    +0.000 C 
ATOM     22  O   UNL     1      47.238   3.108  14.222  0.00  0.00    +0.000 OA
ATOM     23  H   UNL     1      47.276   5.538  16.240  0.00  0.00    +0.000 HD
BRANCH  21  24
ATOM     24  C   UNL     1      46.868   5.374  13.692  0.00  0.00    +0.000 A 
ATOM     25  C   UNL     1      45.763   5.349  12.850  0.00  0.00    +0.000 A 
ATOM     26  S   UNL     1      45.617   6.744  11.877  0.00  0.00    +0.000 S 
ATOM     27  C   UNL     1      47.052   7.402  12.508  0.00  0.00    +0.000 A 
ATOM     28  N   UNL     1      47.527   8.604  12.073  0.00  0.00    +0.000 NA
ATOM     29  C   UNL     1      48.640   8.964  12.622  0.00  0.00    +0.000 A 
ATOM     30  N   UNL     1      49.313   8.245  13.573  0.00  0.00    +0.000 N 
ATOM     31  C   UNL     1      48.855   7.046  14.062  0.00  0.00    +0.000 A 
ATOM     32  O   UNL     1      49.461   6.453  14.956  0.00  0.00    +0.000 OA
ATOM     33  C   UNL     1      47.618   6.584  13.467  0.00  0.00    +0.000 A 
ATOM     34  H   UNL     1      50.173   8.591  13.975  0.00  0.00    +0.000 HD
ENDBRANCH  21  24
ENDBRANCH  19  20
ENDBRANCH   4  19
TORSDOF 6
ENDMDL
MODEL 8
REMARK VINA RESULT:    -6.692      2.411      3.044
REMARK INTER + INTRA:         -10.120
REMARK INTER:                  -9.449
REMARK INTRA:                  -0.671
REMARK UNBOUND:                -1.081
REMARK  Name = 
REMARK  7 active torsions:
REMARK  status: ('A' for Active; 'I' for Inactive)
REMARK    1  A    between atoms: C_1  and  C_2
REMARK    2  A    between atoms: C_6  and  C_7
REMARK    3  A    between atoms: N_9  and  C_10
REMARK    4  A    between atoms: C_10  and  C_11
REMARK    5  A    between atoms: C_14  and  C_15
REMARK    6  A    between atoms: C_15  and  N_16
REMARK    7  A    between atoms: C_17  and  C_19
REMARK                            x       y       z     vdW  Elec       q    Type
REMARK                         _______ _______ _______ _____ _____    ______ ____
ROOT
ATOM      1  C   UNL     1      46.229   5.165  13.123  0.00  0.00    +0.000 A 
ATOM      2  C   UNL     1      46.619   6.436  12.680  0.00  0.00    +0.000 A 
ATOM      3  C   UNL     1      47.575   7.181  13.384  0.00  0.00    +0.000 A 
ATOM      4  C   UNL     1      48.179   6.661  14.537  0.00  0.00    +0.000 A 
ATOM      5  C   UNL     1      47.779   5.395  14.986  0.00  0.00    +0.000 A 
ATOM      6  C   UNL     1      46.826   4.649  14.281  0.00  0.00    +0.000 A 
ENDROOT
BRANCH   1   7
ATOM      7  C   UNL     1      45.164   4.391  12.389  0.00  0.00    +0.000 C 
BRANCH   7  10
ATOM      8  C   UNL     1      44.987   4.058   9.966  0.00  0.00    +0.000 C 
ATOM      9  O   UNL     1      44.017   4.804   9.871  0.00  0.00    +0.000 OA
ATOM     10  N   UNL     1      45.624   3.791  11.164  0.00  0.00    +0.000 N 
ATOM     11  H   UNL     1      46.410   3.149  11.146  0.00  0.00    +0.000 HD
BRANCH   8  17
ATOM     12  C   UNL     1      46.638  -0.082   7.671  0.00  0.00    +0.000 C 
ATOM     13  C   UNL     1      46.349   1.389   7.665  0.00  0.00    +0.000 A 
ATOM     14  C   UNL     1      46.601   2.176   6.540  0.00  0.00    +0.000 A 
ATOM     15  C   UNL     1      46.313   3.534   6.593  0.00  0.00    +0.000 A 
ATOM     16  N   UNL     1      45.804   4.160   7.673  0.00  0.00    +0.000 NA
ATOM     17  C   UNL     1      45.563   3.376   8.760  0.00  0.00    +0.000 A 
ATOM     18  C   UNL     1      45.821   2.007   8.801  0.00  0.00    +0.000 A 
ENDBRANCH   8  17
ENDBRANCH   7  10
ENDBRANCH   1   7
BRANCH   4  19
ATOM     19  C   UNL     1      49.230   7.437  15.292  0.00  0.00    +0.000 C 
BRANCH  19  20
ATOM     20  N   UNL     1      48.927   7.534  16.698  0.00  0.00    +0.000 N 
ATOM     21  C   UNL     1      48.231   8.603  17.204  0.00  0.00    +0.000 C 
ATOM     22  O   UNL     1      47.805   9.504  16.487  0.00  0.00    +0.000 OA
ATOM     23  H   UNL     1      49.485   6.965  17.326  0.00  0.00    +0.000 HD
BRANCH  21  24
ATOM     24  C   UNL     1      47.969   8.586  18.651  0.00  0.00    +0.000 A 
ATOM     25  C   UNL     1      47.908   9.780  19.359  0.00  0.00    +0.000 A 
ATOM     26  S   UNL     1      47.544   9.573  21.014  0.00  0.00    +0.000 S 
ATOM     27  C   UNL     1      47.509   7.881  20.851  0.00  0.00    +0.000 A 
ATOM     28  N   UNL     1      47.268   7.075  21.924  0.00  0.00    +0.000 NA
ATOM     29  C   UNL     1      47.298   5.811  21.656  0.00  0.00    +0.000 A 
ATOM     30  N   UNL     1      47.531   5.280  20.415  0.00  0.00    +0.000 N 
ATOM     31  C   UNL     1      47.746   6.055  19.302  0.00  0.00    +0.000 A 
ATOM     32  O   UNL     1      47.900   5.541  18.192  0.00  0.00    +0.000 OA
ATOM     33  C   UNL     1      47.742   7.481  19.548  0.00  0.00    +0.000 A 
ATOM     34  H   UNL     1      47.525   4.280  20.269  0.00  0.00    +0.000 HD
ENDBRANCH  21  24
ENDBRANCH  19  20
ENDBRANCH   4  19
TORSDOF 6
ENDMDL
MODEL 9
REMARK VINA RESULT:    -6.634      1.905      2.664
REMARK INTER + INTRA:         -10.042
REMARK INTER:                  -9.163
REMARK INTRA:                  -0.879
REMARK UNBOUND:                -1.081
REMARK  Name = 
REMARK  7 active torsions:
REMARK  status: ('A' for Active; 'I' for Inactive)
REMARK    1  A    between atoms: C_1  and  C_2
REMARK    2  A    between atoms: C_6  and  C_7
REMARK    3  A    between atoms: N_9  and  C_10
REMARK    4  A    between atoms: C_10  and  C_11
REMARK    5  A    between atoms: C_14  and  C_15
REMARK    6  A    between atoms: C_15  and  N_16
REMARK    7  A    between atoms: C_17  and  C_19
REMARK                            x       y       z     vdW  Elec       q    Type
REMARK                         _______ _______ _______ _____ _____    ______ ____
ROOT
ATOM      1  C   UNL     1      46.898   7.634  12.651  0.00  0.00    +0.000 A 
ATOM      2  C   UNL     1      48.070   6.913  12.384  0.00  0.00    +0.000 A 
ATOM      3  C   UNL     1      49.259   7.194  13.071  0.00  0.00    +0.000 A 
ATOM      4  C   UNL     1      49.297   8.188  14.057  0.00  0.00    +0.000 A 
ATOM      5  C   UNL     1      48.128   8.917  14.315  0.00  0.00    +0.000 A 
ATOM      6  C   UNL     1      46.938   8.635  13.631  0.00  0.00    +0.000 A 
ENDROOT
BRANCH   1   7
ATOM      7  C   UNL     1      45.636   7.361  11.873  0.00  0.00    +0.000 C 
BRANCH   7  10
ATOM      8  C   UNL     1      44.621   5.409  10.789  0.00  0.00    +0.000 C 
ATOM      9  O   UNL     1      43.523   5.619  11.297  0.00  0.00    +0.000 OA
ATOM     10  N   UNL     1      45.725   6.211  11.011  0.00  0.00    +0.000 N 
ATOM     11  H   UNL     1      46.595   5.949  10.559  0.00  0.00    +0.000 HD
BRANCH   8  17
ATOM     12  C   UNL     1      46.566   3.470   6.595  0.00  0.00    +0.000 C 
ATOM     13  C   UNL     1      45.777   3.320   7.860  0.00  0.00    +0.000 A 
ATOM     14  C   UNL     1      45.220   2.095   8.231  0.00  0.00    +0.000 A 
ATOM     15  C   UNL     1      44.499   2.017   9.416  0.00  0.00    +0.000 A 
ATOM     16  N   UNL     1      44.288   3.058  10.246  0.00  0.00    +0.000 NA
ATOM     17  C   UNL     1      44.840   4.244   9.869  0.00  0.00    +0.000 A 
ATOM     18  C   UNL     1      45.577   4.420   8.700  0.00  0.00    +0.000 A 
ENDBRANCH   8  17
ENDBRANCH   7  10
ENDBRANCH   1   7
BRANCH   4  19
ATOM     19  C   UNL     1      50.561   8.486  14.826  0.00  0.00    +0.000 C 
BRANCH  19  20
ATOM     20  N   UNL     1      50.362   8.400  16.251  0.00  0.00    +0.000 N 
ATOM     21  C   UNL     1      50.432   7.197  16.908  0.00  0.00    +0.000 C 
ATOM     22  O   UNL     1      50.700   6.149  16.327  0.00  0.00    +0.000 OA
ATOM     23  H   UNL     1      49.883   9.178  16.693  0.00  0.00    +0.000 HD
BRANCH  21  24
ATOM     24  C   UNL     1      50.224   7.235  18.364  0.00  0.00    +0.000 A 
ATOM     25  C   UNL     1      51.126   7.913  19.175  0.00  0.00    +0.000 A 
ATOM     26  S   UNL     1      50.701   7.897  20.827  0.00  0.00    +0.000 S 
ATOM     27  C   UNL     1      49.329   6.939  20.522  0.00  0.00    +0.000 A 
ATOM     28  N   UNL     1      48.514   6.533  21.536  0.00  0.00    +0.000 NA
ATOM     29  C   UNL     1      47.527   5.789  21.158  0.00  0.00    +0.000 A 
ATOM     30  N   UNL     1      47.273   5.427  19.862  0.00  0.00    +0.000 N 
ATOM     31  C   UNL     1      48.049   5.839  18.807  0.00  0.00    +0.000 A 
ATOM     32  O   UNL     1      47.758   5.534  17.649  0.00  0.00    +0.000 OA
ATOM     33  C   UNL     1      49.183   6.661  19.176  0.00  0.00    +0.000 A 
ATOM     34  H   UNL     1      46.473   4.854  19.631  0.00  0.00    +0.000 HD
ENDBRANCH  21  24
ENDBRANCH  19  20
ENDBRANCH   4  19
TORSDOF 6
ENDMDL
