MODEL 1
REMARK VINA RESULT:    -8.397      0.000      0.000
REMARK INTER + INTRA:         -14.653
REMARK INTER:                 -12.814
REMARK INTRA:                  -1.839
REMARK UNBOUND:                -1.839
REMARK  Name = 
REMARK  12 active torsions:
REMARK  status: ('A' for Active; 'I' for Inactive)
REMARK    1  A    between atoms: C_1  and  C_2
REMARK    2  A    between atoms: C_2  and  N_3
REMARK    3  A    between atoms: C_2  and  C_20
REMARK    4  A    between atoms: N_3  and  C_4
REMARK    5  A    between atoms: C_4  and  C_5
REMARK    6  A    between atoms: C_8  and  C_9
REMARK    7  A    between atoms: C_9  and  N_10
REMARK    8  A    between atoms: N_10  and  C_11
REMARK    9  A    between atoms: C_11  and  C_12
REMARK   10  A    between atoms: C_23  and  C_24
REMARK   11  A    between atoms: N_26  and  C_27
REMARK   12  A    between atoms: N_26  and  C_28
REMARK                            x       y       z     vdW  Elec       q    Type
REMARK                         _______ _______ _______ _____ _____    ______ ____
ROOT
ATOM      1  C   UNL     1      49.071   7.016  12.618  0.00  0.00    +0.000 C 
ATOM      2  C   UNL     1      48.623   7.650  13.948  0.00  0.00    +0.000 C 
ENDROOT
BRANCH   2   3
ATOM      3  C   UNL     1      49.398   6.953  15.070  0.00  0.00    +0.000 A 
ATOM      4  C   UNL     1      50.720   7.346  15.385  0.00  0.00    +0.000 A 
ATOM      5  C   UNL     1      51.455   6.689  16.385  0.00  0.00    +0.000 A 
ATOM      6  C   UNL     1      50.803   5.792  17.218  0.00  0.00    +0.000 A 
ATOM      7  C   UNL     1      49.424   5.749  17.123  0.00  0.00    +0.000 A 
ATOM      8  C   UNL     1      48.571   5.012  18.056  0.00  0.00    +0.000 A 
ATOM      9  O   UNL     1      48.165   5.506  19.079  0.00  0.00    +0.000 OA
ATOM     10  N   UNL     1      48.162   3.869  17.464  0.00  0.00    +0.000 N 
ATOM     11  C   UNL     1      47.715   3.958  16.180  0.00  0.00    +0.000 A 
ATOM     12  N   UNL     1      47.845   5.042  15.444  0.00  0.00    +0.000 NA
ATOM     13  C   UNL     1      48.796   6.003  15.910  0.00  0.00    +0.000 A 
ATOM     14  H   UNL     1      48.226   3.015  18.006  0.00  0.00    +0.000 HD
BRANCH   6  15
ATOM     15  C   UNL     1      51.472   4.683  17.975  0.00  0.00    +0.000 C 
ATOM     16  O   UNL     1      51.494   3.576  17.441  0.00  0.00    +0.000 OA
ATOM     17  N   UNL     1      52.196   4.945  19.143  0.00  0.00    +0.000 N 
ATOM     18  C   UNL     1      52.269   6.199  19.874  0.00  0.00    +0.000 C 
ATOM     19  C   UNL     1      52.872   3.823  19.790  0.00  0.00    +0.000 C 
ENDBRANCH   6  15
ENDBRANCH   2   3
BRANCH   2  20
ATOM     20  N   UNL     1      47.160   7.504  14.118  0.00  0.00    +0.000 NA
ATOM     21  H   UNL     1      46.860   8.153  14.843  0.00  0.00    +0.000 HD
BRANCH  20  22
ATOM     22  C   UNL     1      46.401   7.794  12.895  0.00  0.00    +0.000 C 
BRANCH  22  23
ATOM     23  C   UNL     1      45.724   6.560  12.340  0.00  0.00    +0.000 A 
ATOM     24  C   UNL     1      45.096   5.639  13.189  0.00  0.00    +0.000 A 
ATOM     25  C   UNL     1      44.499   4.488  12.671  0.00  0.00    +0.000 A 
ATOM     26  C   UNL     1      44.490   4.242  11.290  0.00  0.00    +0.000 A 
ATOM     27  C   UNL     1      45.077   5.182  10.436  0.00  0.00    +0.000 A 
ATOM     28  C   UNL     1      45.687   6.327  10.956  0.00  0.00    +0.000 A 
BRANCH  26  29
ATOM     29  C   UNL     1      43.893   2.966  10.744  0.00  0.00    +0.000 C 
BRANCH  29  30
ATOM     30  N   UNL     1      44.176   2.824   9.319  0.00  0.00    +0.000 NA
ATOM     31  H   UNL     1      44.627   3.676   8.988  0.00  0.00    +0.000 HD
BRANCH  30  32
ATOM     32  C   UNL     1      45.046   1.681   9.062  0.00  0.00    +0.000 C 
BRANCH  32  33
ATOM     33  C   UNL     1      45.991   1.975   7.929  0.00  0.00    +0.000 A 
ATOM     34  C   UNL     1      45.908   3.162   7.194  0.00  0.00    +0.000 A 
ATOM     35  C   UNL     1      46.810   3.404   6.164  0.00  0.00    +0.000 A 
ATOM     36  C   UNL     1      47.767   2.441   5.894  0.00  0.00    +0.000 A 
ATOM     37  N   UNL     1      47.873   1.276   6.568  0.00  0.00    +0.000 NA
ATOM     38  C   UNL     1      46.984   1.071   7.568  0.00  0.00    +0.000 A 
ENDBRANCH  32  33
ENDBRANCH  30  32
ENDBRANCH  29  30
ENDBRANCH  26  29
ENDBRANCH  22  23
ENDBRANCH  20  22
ENDBRANCH   2  20
TORSDOF 9
ENDMDL
MODEL 2
REMARK VINA RESULT:    -7.951      1.609      1.922
REMARK INTER + INTRA:         -13.974
REMARK INTER:                 -12.118
REMARK INTRA:                  -1.856
REMARK UNBOUND:                -1.839
REMARK  Name = 
REMARK  12 active torsions:
REMARK  status: ('A' for Active; 'I' for Inactive)
REMARK    1  A    between atoms: C_1  and  C_2
REMARK    2  A    between atoms: C_2  and  N_3
REMARK    3  A    between atoms: C_2  and  C_20
REMARK    4  A    between atoms: N_3  and  C_4
REMARK    5  A    between atoms: C_4  and  C_5
REMARK    6  A    between atoms: C_8  and  C_9
REMARK    7  A    between atoms: C_9  and  N_10
REMARK    8  A    between atoms: N_10  and  C_11
REMARK    9  A    between atoms: C_11  and  C_12
REMARK   10  A    between atoms: C_23  and  C_24
REMARK   11  A    between atoms: N_26  and  C_27
REMARK   12  A    between atoms: N_26  and  C_28
REMARK                            x       y       z     vdW  Elec       q    Type
REMARK                         _______ _______ _______ _____ _____    ______ ____
ROOT
ATOM      1  C   UNL     1      50.176   7.650  14.263  0.00  0.00    +0.000 C 
ATOM      2  C   UNL     1      48.846   8.102  14.894  0.00  0.00    +0.000 C 
ENDROOT
BRANCH   2   3
ATOM      3  C   UNL     1      48.918   7.780  16.390  0.00  0.00    +0.000 A 
ATOM      4  C   UNL     1      49.369   8.749  17.315  0.00  0.00    +0.000 A 
ATOM      5  C   UNL     1      49.478   8.454  18.683  0.00  0.00    +0.000 A 
ATOM      6  C   UNL     1      48.932   7.272  19.160  0.00  0.00    +0.000 A 
ATOM      7  C   UNL     1      48.148   6.551  18.277  0.00  0.00    +0.000 A 
ATOM      8  C   UNL     1      47.341   5.395  18.668  0.00  0.00    +0.000 A 
ATOM      9  O   UNL     1      46.211   5.512  19.075  0.00  0.00    +0.000 OA
ATOM     10  N   UNL     1      47.970   4.268  18.272  0.00  0.00    +0.000 N 
ATOM     11  C   UNL     1      48.476   4.249  17.007  0.00  0.00    +0.000 A 
ATOM     12  N   UNL     1      48.551   5.320  16.243  0.00  0.00    +0.000 NA
ATOM     13  C   UNL     1      48.422   6.576  16.915  0.00  0.00    +0.000 A 
ATOM     14  H   UNL     1      48.040   3.512  18.944  0.00  0.00    +0.000 HD
BRANCH   6  15
ATOM     15  C   UNL     1      49.354   6.578  20.422  0.00  0.00    +0.000 C 
ATOM     16  O   UNL     1      48.639   6.732  21.410  0.00  0.00    +0.000 OA
ATOM     17  N   UNL     1      50.404   5.654  20.418  0.00  0.00    +0.000 N 
ATOM     18  C   UNL     1      51.319   5.362  19.327  0.00  0.00    +0.000 C 
ATOM     19  C   UNL     1      50.715   4.972  21.671  0.00  0.00    +0.000 C 
ENDBRANCH   6  15
ENDBRANCH   2   3
BRANCH   2  20
ATOM     20  N   UNL     1      47.709   7.417  14.239  0.00  0.00    +0.000 NA
ATOM     21  H   UNL     1      47.039   8.126  13.948  0.00  0.00    +0.000 HD
BRANCH  20  22
ATOM     22  C   UNL     1      48.102   6.640  13.057  0.00  0.00    +0.000 C 
BRANCH  22  23
ATOM     23  C   UNL     1      46.944   5.853  12.484  0.00  0.00    +0.000 A 
ATOM     24  C   UNL     1      46.432   4.732  13.153  0.00  0.00    +0.000 A 
ATOM     25  C   UNL     1      45.382   3.994  12.602  0.00  0.00    +0.000 A 
ATOM     26  C   UNL     1      44.799   4.373  11.383  0.00  0.00    +0.000 A 
ATOM     27  C   UNL     1      45.278   5.517  10.735  0.00  0.00    +0.000 A 
ATOM     28  C   UNL     1      46.338   6.247  11.280  0.00  0.00    +0.000 A 
BRANCH  26  29
ATOM     29  C   UNL     1      43.703   3.536  10.767  0.00  0.00    +0.000 C 
BRANCH  29  30
ATOM     30  N   UNL     1      44.030   3.176   9.391  0.00  0.00    +0.000 NA
ATOM     31  H   UNL     1      44.484   3.972   8.943  0.00  0.00    +0.000 HD
BRANCH  30  32
ATOM     32  C   UNL     1      44.919   2.019   9.341  0.00  0.00    +0.000 C 
BRANCH  32  33
ATOM     33  C   UNL     1      45.918   2.161   8.227  0.00  0.00    +0.000 A 
ATOM     34  C   UNL     1      46.105   3.377   7.561  0.00  0.00    +0.000 A 
ATOM     35  C   UNL     1      47.051   3.473   6.546  0.00  0.00    +0.000 A 
ATOM     36  C   UNL     1      47.777   2.340   6.221  0.00  0.00    +0.000 A 
ATOM     37  N   UNL     1      47.618   1.144   6.827  0.00  0.00    +0.000 NA
ATOM     38  C   UNL     1      46.694   1.083   7.814  0.00  0.00    +0.000 A 
ENDBRANCH  32  33
ENDBRANCH  30  32
ENDBRANCH  29  30
ENDBRANCH  26  29
ENDBRANCH  22  23
ENDBRANCH  20  22
ENDBRANCH   2  20
TORSDOF 9
ENDMDL
MODEL 3
REMARK VINA RESULT:    -7.392      1.738      3.225
REMARK INTER + INTRA:         -13.120
REMARK INTER:                 -11.514
REMARK INTRA:                  -1.607
REMARK UNBOUND:                -1.839
REMARK  Name = 
REMARK  12 active torsions:
REMARK  status: ('A' for Active; 'I' for Inactive)
REMARK    1  A    between atoms: C_1  and  C_2
REMARK    2  A    between atoms: C_2  and  N_3
REMARK    3  A    between atoms: C_2  and  C_20
REMARK    4  A    between atoms: N_3  and  C_4
REMARK    5  A    between atoms: C_4  and  C_5
REMARK    6  A    between atoms: C_8  and  C_9
REMARK    7  A    between atoms: C_9  and  N_10
REMARK    8  A    between atoms: N_10  and  C_11
REMARK    9  A    between atoms: C_11  and  C_12
REMARK   10  A    between atoms: C_23  and  C_24
REMARK   11  A    between atoms: N_26  and  C_27
REMARK   12  A    between atoms: N_26  and  C_28
REMARK                            x       y       z     vdW  Elec       q    Type
REMARK                         _______ _______ _______ _____ _____    ______ ____
ROOT
ATOM      1  C   UNL     1      46.807   3.856  16.914  0.00  0.00    +0.000 C 
ATOM      2  C   UNL     1      48.111   4.560  16.499  0.00  0.00    +0.000 C 
ENDROOT
BRANCH   2   3
ATOM      3  C   UNL     1      48.954   4.745  17.765  0.00  0.00    +0.000 A 
ATOM      4  C   UNL     1      48.354   4.688  19.044  0.00  0.00    +0.000 A 
ATOM      5  C   UNL     1      49.108   4.896  20.210  0.00  0.00    +0.000 A 
ATOM      6  C   UNL     1      50.491   4.940  20.117  0.00  0.00    +0.000 A 
ATOM      7  C   UNL     1      51.041   4.586  18.898  0.00  0.00    +0.000 A 
ATOM      8  C   UNL     1      52.474   4.388  18.683  0.00  0.00    +0.000 A 
ATOM      9  O   UNL     1      53.008   3.322  18.871  0.00  0.00    +0.000 OA
ATOM     10  N   UNL     1      52.975   5.469  18.046  0.00  0.00    +0.000 N 
ATOM     11  C   UNL     1      52.268   5.949  16.985  0.00  0.00    +0.000 A 
ATOM     12  N   UNL     1      51.052   5.541  16.684  0.00  0.00    +0.000 NA
ATOM     13  C   UNL     1      50.353   4.842  17.718  0.00  0.00    +0.000 A 
ATOM     14  H   UNL     1      53.837   5.863  18.405  0.00  0.00    +0.000 HD
BRANCH   6  15
ATOM     15  C   UNL     1      51.397   5.610  21.108  0.00  0.00    +0.000 C 
ATOM     16  O   UNL     1      51.968   4.886  21.921  0.00  0.00    +0.000 OA
ATOM     17  N   UNL     1      51.719   6.966  20.985  0.00  0.00    +0.000 N 
ATOM     18  C   UNL     1      51.137   7.932  20.068  0.00  0.00    +0.000 C 
ATOM     19  C   UNL     1      52.658   7.532  21.950  0.00  0.00    +0.000 C 
ENDBRANCH   6  15
ENDBRANCH   2   3
BRANCH   2  20
ATOM     20  N   UNL     1      47.810   5.853  15.845  0.00  0.00    +0.000 NA
ATOM     21  H   UNL     1      48.390   6.569  16.278  0.00  0.00    +0.000 HD
BRANCH  20  22
ATOM     22  C   UNL     1      48.079   5.851  14.402  0.00  0.00    +0.000 C 
BRANCH  22  23
ATOM     23  C   UNL     1      46.872   5.416  13.600  0.00  0.00    +0.000 A 
ATOM     24  C   UNL     1      46.639   4.062  13.326  0.00  0.00    +0.000 A 
ATOM     25  C   UNL     1      45.538   3.671  12.559  0.00  0.00    +0.000 A 
ATOM     26  C   UNL     1      44.629   4.622  12.071  0.00  0.00    +0.000 A 
ATOM     27  C   UNL     1      44.834   5.970  12.381  0.00  0.00    +0.000 A 
ATOM     28  C   UNL     1      45.943   6.362  13.136  0.00  0.00    +0.000 A 
BRANCH  26  29
ATOM     29  C   UNL     1      43.474   4.196  11.196  0.00  0.00    +0.000 C 
BRANCH  29  30
ATOM     30  N   UNL     1      43.907   3.230  10.190  0.00  0.00    +0.000 NA
ATOM     31  H   UNL     1      43.107   2.664   9.913  0.00  0.00    +0.000 HD
BRANCH  30  32
ATOM     32  C   UNL     1      44.460   3.899   9.016  0.00  0.00    +0.000 C 
BRANCH  32  33
ATOM     33  C   UNL     1      45.479   3.027   8.337  0.00  0.00    +0.000 A 
ATOM     34  C   UNL     1      46.380   3.544   7.401  0.00  0.00    +0.000 A 
ATOM     35  C   UNL     1      47.319   2.708   6.806  0.00  0.00    +0.000 A 
ATOM     36  C   UNL     1      47.320   1.370   7.163  0.00  0.00    +0.000 A 
ATOM     37  N   UNL     1      46.459   0.826   8.050  0.00  0.00    +0.000 NA
ATOM     38  C   UNL     1      45.561   1.666   8.615  0.00  0.00    +0.000 A 
ENDBRANCH  32  33
ENDBRANCH  30  32
ENDBRANCH  29  30
ENDBRANCH  26  29
ENDBRANCH  22  23
ENDBRANCH  20  22
ENDBRANCH   2  20
TORSDOF 9
ENDMDL
MODEL 4
REMARK VINA RESULT:    -6.922      2.940      4.006
REMARK INTER + INTRA:         -12.403
REMARK INTER:                 -10.757
REMARK INTRA:                  -1.645
REMARK UNBOUND:                -1.839
REMARK  Name = 
REMARK  12 active torsions:
REMARK  status: ('A' for Active; 'I' for Inactive)
REMARK    1  A    between atoms: C_1  and  C_2
REMARK    2  A    between atoms: C_2  and  N_3
REMARK    3  A    between atoms: C_2  and  C_20
REMARK    4  A    between atoms: N_3  and  C_4
REMARK    5  A    between atoms: C_4  and  C_5
REMARK    6  A    between atoms: C_8  and  C_9
REMARK    7  A    between atoms: C_9  and  N_10
REMARK    8  A    between atoms: N_10  and  C_11
REMARK    9  A    between atoms: C_11  and  C_12
REMARK   10  A    between atoms: C_23  and  C_24
REMARK   11  A    between atoms: N_26  and  C_27
REMARK   12  A    between atoms: N_26  and  C_28
REMARK                            x       y       z     vdW  Elec       q    Type
REMARK                         _______ _______ _______ _____ _____    ______ ____
ROOT
ATOM      1  C   UNL     1      47.746   3.914  17.250  0.00  0.00    +0.000 C 
ATOM      2  C   UNL     1      48.396   5.181  16.665  0.00  0.00    +0.000 C 
ENDROOT
BRANCH   2   3
ATOM      3  C   UNL     1      48.659   6.139  17.831  0.00  0.00    +0.000 A 
ATOM      4  C   UNL     1      48.245   5.810  19.142  0.00  0.00    +0.000 A 
ATOM      5  C   UNL     1      48.445   6.696  20.212  0.00  0.00    +0.000 A 
ATOM      6  C   UNL     1      49.249   7.810  20.020  0.00  0.00    +0.000 A 
ATOM      7  C   UNL     1      49.955   7.866  18.832  0.00  0.00    +0.000 A 
ATOM      8  C   UNL     1      50.992   8.860  18.552  0.00  0.00    +0.000 A 
ATOM      9  O   UNL     1      52.146   8.683  18.857  0.00  0.00    +0.000 OA
ATOM     10  N   UNL     1      50.483   9.805  17.732  0.00  0.00    +0.000 N 
ATOM     11  C   UNL     1      49.756   9.375  16.663  0.00  0.00    +0.000 A 
ATOM     12  N   UNL     1      49.372   8.125  16.506  0.00  0.00    +0.000 NA
ATOM     13  C   UNL     1      49.427   7.304  17.676  0.00  0.00    +0.000 A 
ATOM     14  H   UNL     1      50.661  10.774  17.971  0.00  0.00    +0.000 HD
BRANCH   6  15
ATOM     15  C   UNL     1      49.187   9.065  20.839  0.00  0.00    +0.000 C 
ATOM     16  O   UNL     1      50.045   9.209  21.708  0.00  0.00    +0.000 OA
ATOM     17  N   UNL     1      48.311  10.102  20.500  0.00  0.00    +0.000 N 
ATOM     18  C   UNL     1      47.261  10.077  19.495  0.00  0.00    +0.000 C 
ATOM     19  C   UNL     1      48.353  11.319  21.307  0.00  0.00    +0.000 C 
ENDBRANCH   6  15
ENDBRANCH   2   3
BRANCH   2  20
ATOM     20  N   UNL     1      47.510   5.787  15.645  0.00  0.00    +0.000 NA
ATOM     21  H   UNL     1      47.502   6.794  15.791  0.00  0.00    +0.000 HD
BRANCH  20  22
ATOM     22  C   UNL     1      47.944   5.522  14.268  0.00  0.00    +0.000 C 
BRANCH  22  23
ATOM     23  C   UNL     1      46.775   5.248  13.347  0.00  0.00    +0.000 A 
ATOM     24  C   UNL     1      46.215   3.967  13.255  0.00  0.00    +0.000 A 
ATOM     25  C   UNL     1      45.155   3.716  12.379  0.00  0.00    +0.000 A 
ATOM     26  C   UNL     1      44.612   4.745  11.595  0.00  0.00    +0.000 A 
ATOM     27  C   UNL     1      45.140   6.035  11.718  0.00  0.00    +0.000 A 
ATOM     28  C   UNL     1      46.209   6.282  12.583  0.00  0.00    +0.000 A 
BRANCH  26  29
ATOM     29  C   UNL     1      43.505   4.452  10.611  0.00  0.00    +0.000 C 
BRANCH  29  30
ATOM     30  N   UNL     1      43.903   3.409   9.670  0.00  0.00    +0.000 NA
ATOM     31  H   UNL     1      43.071   2.906   9.366  0.00  0.00    +0.000 HD
BRANCH  30  32
ATOM     32  C   UNL     1      44.581   3.975   8.506  0.00  0.00    +0.000 C 
BRANCH  32  33
ATOM     33  C   UNL     1      45.625   3.026   7.985  0.00  0.00    +0.000 A 
ATOM     34  C   UNL     1      46.566   3.424   7.029  0.00  0.00    +0.000 A 
ATOM     35  C   UNL     1      47.526   2.522   6.585  0.00  0.00    +0.000 A 
ATOM     36  C   UNL     1      47.510   1.241   7.108  0.00  0.00    +0.000 A 
ATOM     37  N   UNL     1      46.612   0.810   8.020  0.00  0.00    +0.000 NA
ATOM     38  C   UNL     1      45.693   1.712   8.437  0.00  0.00    +0.000 A 
ENDBRANCH  32  33
ENDBRANCH  30  32
ENDBRANCH  29  30
ENDBRANCH  26  29
ENDBRANCH  22  23
ENDBRANCH  20  22
ENDBRANCH   2  20
TORSDOF 9
ENDMDL
MODEL 5
REMARK VINA RESULT:    -6.826      2.165      2.610
REMARK INTER + INTRA:         -12.256
REMARK INTER:                 -10.585
REMARK INTRA:                  -1.671
REMARK UNBOUND:                -1.839
REMARK  Name = 
REMARK  12 active torsions:
REMARK  status: ('A' for Active; 'I' for Inactive)
REMARK    1  A    between atoms: C_1  and  C_2
REMARK    2  A    between atoms: C_2  and  N_3
REMARK    3  A    between atoms: C_2  and  C_20
REMARK    4  A    between atoms: N_3  and  C_4
REMARK    5  A    between atoms: C_4  and  C_5
REMARK    6  A    between atoms: C_8  and  C_9
REMARK    7  A    between atoms: C_9  and  N_10
REMARK    8  A    between atoms: N_10  and  C_11
REMARK    9  A    between atoms: C_11  and  C_12
REMARK   10  A    between atoms: C_23  and  C_24
REMARK   11  A    between atoms: N_26  and  C_27
REMARK   12  A    between atoms: N_26  and  C_28
REMARK                            x       y       z     vdW  Elec       q    Type
REMARK                         _______ _______ _______ _____ _____    ______ ____
ROOT
ATOM      1  C   UNL     1      49.698   7.983  13.142  0.00  0.00    +0.000 C 
ATOM      2  C   UNL     1      48.491   8.546  13.914  0.00  0.00    +0.000 C 
ENDROOT
BRANCH   2   3
ATOM      3  C   UNL     1      48.985   8.938  15.310  0.00  0.00    +0.000 A 
ATOM      4  C   UNL     1      49.600  10.193  15.531  0.00  0.00    +0.000 A 
ATOM      5  C   UNL     1      50.092  10.548  16.797  0.00  0.00    +0.000 A 
ATOM      6  C   UNL     1      49.778   9.751  17.887  0.00  0.00    +0.000 A 
ATOM      7  C   UNL     1      48.838   8.758  17.678  0.00  0.00    +0.000 A 
ATOM      8  C   UNL     1      48.248   7.962  18.755  0.00  0.00    +0.000 A 
ATOM      9  O   UNL     1      47.264   8.323  19.353  0.00  0.00    +0.000 OA
ATOM     10  N   UNL     1      48.825   6.741  18.762  0.00  0.00    +0.000 N 
ATOM     11  C   UNL     1      48.971   6.115  17.560  0.00  0.00    +0.000 A 
ATOM     12  N   UNL     1      48.764   6.712  16.405  0.00  0.00    +0.000 NA
ATOM     13  C   UNL     1      48.734   8.142  16.438  0.00  0.00    +0.000 A 
ATOM     14  H   UNL     1      49.124   6.372  19.657  0.00  0.00    +0.000 HD
BRANCH   6  15
ATOM     15  C   UNL     1      50.572   9.685  19.159  0.00  0.00    +0.000 C 
ATOM     16  O   UNL     1      50.139  10.317  20.121  0.00  0.00    +0.000 OA
ATOM     17  N   UNL     1      51.644   8.796  19.292  0.00  0.00    +0.000 N 
ATOM     18  C   UNL     1      52.250   7.982  18.252  0.00  0.00    +0.000 C 
ATOM     19  C   UNL     1      52.327   8.744  20.582  0.00  0.00    +0.000 C 
ENDBRANCH   6  15
ENDBRANCH   2   3
BRANCH   2  20
ATOM     20  N   UNL     1      47.408   7.540  13.977  0.00  0.00    +0.000 NA
ATOM     21  H   UNL     1      47.139   7.425  14.952  0.00  0.00    +0.000 HD
BRANCH  20  22
ATOM     22  C   UNL     1      46.215   7.922  13.211  0.00  0.00    +0.000 C 
BRANCH  22  23
ATOM     23  C   UNL     1      45.594   6.740  12.500  0.00  0.00    +0.000 A 
ATOM     24  C   UNL     1      44.503   6.057  13.054  0.00  0.00    +0.000 A 
ATOM     25  C   UNL     1      43.955   4.948  12.405  0.00  0.00    +0.000 A 
ATOM     26  C   UNL     1      44.465   4.512  11.173  0.00  0.00    +0.000 A 
ATOM     27  C   UNL     1      45.525   5.219  10.595  0.00  0.00    +0.000 A 
ATOM     28  C   UNL     1      46.082   6.319  11.252  0.00  0.00    +0.000 A 
BRANCH  26  29
ATOM     29  C   UNL     1      43.903   3.278  10.506  0.00  0.00    +0.000 C 
BRANCH  29  30
ATOM     30  N   UNL     1      44.950   2.291  10.265  0.00  0.00    +0.000 NA
ATOM     31  H   UNL     1      44.931   1.602  11.016  0.00  0.00    +0.000 HD
BRANCH  30  32
ATOM     32  C   UNL     1      44.760   1.618   8.983  0.00  0.00    +0.000 C 
BRANCH  32  33
ATOM     33  C   UNL     1      45.883   1.947   8.037  0.00  0.00    +0.000 A 
ATOM     34  C   UNL     1      45.988   3.203   7.433  0.00  0.00    +0.000 A 
ATOM     35  C   UNL     1      47.050   3.474   6.577  0.00  0.00    +0.000 A 
ATOM     36  C   UNL     1      47.974   2.469   6.345  0.00  0.00    +0.000 A 
ATOM     37  N   UNL     1      47.902   1.238   6.895  0.00  0.00    +0.000 NA
ATOM     38  C   UNL     1      46.860   1.007   7.727  0.00  0.00    +0.000 A 
ENDBRANCH  32  33
ENDBRANCH  30  32
ENDBRANCH  29  30
ENDBRANCH  26  29
ENDBRANCH  22  23
ENDBRANCH  20  22
ENDBRANCH   2  20
TORSDOF 9
ENDMDL
MODEL 6
REMARK VINA RESULT:    -6.775      2.816      3.834
REMARK INTER + INTRA:         -12.178
REMARK INTER:                 -10.575
REMARK INTRA:                  -1.604
REMARK UNBOUND:                -1.839
REMARK  Name = 
REMARK  12 active torsions:
REMARK  status: ('A' for Active; 'I' for Inactive)
REMARK    1  A    between atoms: C_1  and  C_2
REMARK    2  A    between atoms: C_2  and  N_3
REMARK    3  A    between atoms: C_2  and  C_20
REMARK    4  A    between atoms: N_3  and  C_4
REMARK    5  A    between atoms: C_4  and  C_5
REMARK    6  A    between atoms: C_8  and  C_9
REMARK    7  A    between atoms: C_9  and  N_10
REMARK    8  A    between atoms: N_10  and  C_11
REMARK    9  A    between atoms: C_11  and  C_12
REMARK   10  A    between atoms: C_23  and  C_24
REMARK   11  A    between atoms: N_26  and  C_27
REMARK   12  A    between atoms: N_26  and  C_28
REMARK                            x       y       z     vdW  Elec       q    Type
REMARK                         _______ _______ _______ _____ _____    ______ ____
ROOT
ATOM      1  C   UNL     1      50.195   7.647  11.404  0.00  0.00    +0.000 C 
ATOM      2  C   UNL     1      49.110   7.810  12.484  0.00  0.00    +0.000 C 
ENDROOT
BRANCH   2   3
ATOM      3  C   UNL     1      49.639   8.813  13.514  0.00  0.00    +0.000 A 
ATOM      4  C   UNL     1      49.595  10.203  13.256  0.00  0.00    +0.000 A 
ATOM      5  C   UNL     1      50.112  11.130  14.175  0.00  0.00    +0.000 A 
ATOM      6  C   UNL     1      50.471  10.692  15.441  0.00  0.00    +0.000 A 
ATOM      7  C   UNL     1      50.114   9.397  15.772  0.00  0.00    +0.000 A 
ATOM      8  C   UNL     1      50.237   8.843  17.121  0.00  0.00    +0.000 A 
ATOM      9  O   UNL     1      49.357   8.953  17.940  0.00  0.00    +0.000 OA
ATOM     10  N   UNL     1      51.321   8.040  17.167  0.00  0.00    +0.000 N 
ATOM     11  C   UNL     1      51.491   7.163  16.138  0.00  0.00    +0.000 A 
ATOM     12  N   UNL     1      50.774   7.198  15.034  0.00  0.00    +0.000 NA
ATOM     13  C   UNL     1      50.058   8.413  14.793  0.00  0.00    +0.000 A 
ATOM     14  H   UNL     1      51.949   8.149  17.956  0.00  0.00    +0.000 HD
BRANCH   6  15
ATOM     15  C   UNL     1      51.449  11.384  16.344  0.00  0.00    +0.000 C 
ATOM     16  O   UNL     1      50.983  12.068  17.252  0.00  0.00    +0.000 OA
ATOM     17  N   UNL     1      52.818  11.108  16.266  0.00  0.00    +0.000 N 
ATOM     18  C   UNL     1      53.504  10.312  15.261  0.00  0.00    +0.000 C 
ATOM     19  C   UNL     1      53.701  11.773  17.221  0.00  0.00    +0.000 C 
ENDBRANCH   6  15
ENDBRANCH   2   3
BRANCH   2  20
ATOM     20  N   UNL     1      48.800   6.501  13.101  0.00  0.00    +0.000 NA
ATOM     21  H   UNL     1      49.466   6.340  13.852  0.00  0.00    +0.000 HD
BRANCH  20  22
ATOM     22  C   UNL     1      47.445   6.430  13.661  0.00  0.00    +0.000 C 
BRANCH  22  23
ATOM     23  C   UNL     1      46.526   5.571  12.819  0.00  0.00    +0.000 A 
ATOM     24  C   UNL     1      46.054   6.021  11.579  0.00  0.00    +0.000 A 
ATOM     25  C   UNL     1      45.183   5.233  10.823  0.00  0.00    +0.000 A 
ATOM     26  C   UNL     1      44.784   3.966  11.273  0.00  0.00    +0.000 A 
ATOM     27  C   UNL     1      45.290   3.495  12.490  0.00  0.00    +0.000 A 
ATOM     28  C   UNL     1      46.150   4.289  13.254  0.00  0.00    +0.000 A 
BRANCH  26  29
ATOM     29  C   UNL     1      43.798   3.146  10.476  0.00  0.00    +0.000 C 
BRANCH  29  30
ATOM     30  N   UNL     1      44.282   2.922   9.117  0.00  0.00    +0.000 NA
ATOM     31  H   UNL     1      44.574   3.815   8.721  0.00  0.00    +0.000 HD
BRANCH  30  32
ATOM     32  C   UNL     1      45.406   1.991   9.100  0.00  0.00    +0.000 C 
BRANCH  32  33
ATOM     33  C   UNL     1      46.229   2.172   7.854  0.00  0.00    +0.000 A 
ATOM     34  C   UNL     1      46.199   3.363   7.123  0.00  0.00    +0.000 A 
ATOM     35  C   UNL     1      46.987   3.498   5.985  0.00  0.00    +0.000 A 
ATOM     36  C   UNL     1      47.778   2.426   5.608  0.00  0.00    +0.000 A 
ATOM     37  N   UNL     1      47.825   1.253   6.276  0.00  0.00    +0.000 NA
ATOM     38  C   UNL     1      47.051   1.154   7.382  0.00  0.00    +0.000 A 
ENDBRANCH  32  33
ENDBRANCH  30  32
ENDBRANCH  29  30
ENDBRANCH  26  29
ENDBRANCH  22  23
ENDBRANCH  20  22
ENDBRANCH   2  20
TORSDOF 9
ENDMDL
MODEL 7
REMARK VINA RESULT:    -6.734      2.998      8.303
REMARK INTER + INTRA:         -12.115
REMARK INTER:                  -9.209
REMARK INTRA:                  -2.907
REMARK UNBOUND:                -1.839
REMARK  Name = 
REMARK  12 active torsions:
REMARK  status: ('A' for Active; 'I' for Inactive)
REMARK    1  A    between atoms: C_1  and  C_2
REMARK    2  A    between atoms: C_2  and  N_3
REMARK    3  A    between atoms: C_2  and  C_20
REMARK    4  A    between atoms: N_3  and  C_4
REMARK    5  A    between atoms: C_4  and  C_5
REMARK    6  A    between atoms: C_8  and  C_9
REMARK    7  A    between atoms: C_9  and  N_10
REMARK    8  A    between atoms: N_10  and  C_11
REMARK    9  A    between atoms: C_11  and  C_12
REMARK   10  A    between atoms: C_23  and  C_24
REMARK   11  A    between atoms: N_26  and  C_27
REMARK   12  A    between atoms: N_26  and  C_28
REMARK                            x       y       z     vdW  Elec       q    Type
REMARK                         _______ _______ _______ _____ _____    ______ ____
ROOT
ATOM      1  C   UNL     1      50.681   8.112  11.697  0.00  0.00    +0.000 C 
ATOM      2  C   UNL     1      50.016   7.907  13.070  0.00  0.00    +0.000 C 
ENDROOT
BRANCH   2   3
ATOM      3  C   UNL     1      48.686   7.185  12.829  0.00  0.00    +0.000 A 
ATOM      4  C   UNL     1      47.955   7.398  11.637  0.00  0.00    +0.000 A 
ATOM      5  C   UNL     1      46.717   6.774  11.421  0.00  0.00    +0.000 A 
ATOM      6  C   UNL     1      46.310   5.772  12.289  0.00  0.00    +0.000 A 
ATOM      7  C   UNL     1      47.248   5.326  13.203  0.00  0.00    +0.000 A 
ATOM      8  C   UNL     1      47.056   4.150  14.052  0.00  0.00    +0.000 A 
ATOM      9  O   UNL     1      47.356   3.040  13.686  0.00  0.00    +0.000 OA
ATOM     10  N   UNL     1      46.747   4.559  15.302  0.00  0.00    +0.000 N 
ATOM     11  C   UNL     1      47.495   5.568  15.830  0.00  0.00    +0.000 A 
ATOM     12  N   UNL     1      48.352   6.276  15.124  0.00  0.00    +0.000 NA
ATOM     13  C   UNL     1      48.208   6.196  13.703  0.00  0.00    +0.000 A 
ATOM     14  H   UNL     1      45.969   4.100  15.763  0.00  0.00    +0.000 HD
BRANCH   6  15
ATOM     15  C   UNL     1      44.886   5.353  12.511  0.00  0.00    +0.000 C 
ATOM     16  O   UNL     1      44.254   5.961  13.372  0.00  0.00    +0.000 OA
ATOM     17  N   UNL     1      44.261   4.447  11.648  0.00  0.00    +0.000 N 
ATOM     18  C   UNL     1      44.877   3.670  10.585  0.00  0.00    +0.000 C 
ATOM     19  C   UNL     1      42.855   4.137  11.891  0.00  0.00    +0.000 C 
ENDBRANCH   6  15
ENDBRANCH   2   3
BRANCH   2  20
ATOM     20  N   UNL     1      49.819   9.210  13.744  0.00  0.00    +0.000 NA
ATOM     21  H   UNL     1      48.863   9.246  14.090  0.00  0.00    +0.000 HD
BRANCH  20  22
ATOM     22  C   UNL     1      50.728   9.420  14.878  0.00  0.00    +0.000 C 
BRANCH  22  23
ATOM     23  C   UNL     1      50.168   8.859  16.167  0.00  0.00    +0.000 A 
ATOM     24  C   UNL     1      48.886   9.211  16.609  0.00  0.00    +0.000 A 
ATOM     25  C   UNL     1      48.388   8.712  17.815  0.00  0.00    +0.000 A 
ATOM     26  C   UNL     1      49.149   7.828  18.595  0.00  0.00    +0.000 A 
ATOM     27  C   UNL     1      50.411   7.440  18.135  0.00  0.00    +0.000 A 
ATOM     28  C   UNL     1      50.915   7.951  16.935  0.00  0.00    +0.000 A 
BRANCH  26  29
ATOM     29  C   UNL     1      48.626   7.339  19.925  0.00  0.00    +0.000 C 
BRANCH  29  30
ATOM     30  N   UNL     1      47.848   6.114  19.763  0.00  0.00    +0.000 NA
ATOM     31  H   UNL     1      47.598   6.012  18.780  0.00  0.00    +0.000 HD
BRANCH  30  32
ATOM     32  C   UNL     1      48.604   4.943  20.197  0.00  0.00    +0.000 C 
BRANCH  32  33
ATOM     33  C   UNL     1      48.958   4.072  19.023  0.00  0.00    +0.000 A 
ATOM     34  C   UNL     1      50.259   4.023  18.512  0.00  0.00    +0.000 A 
ATOM     35  C   UNL     1      50.549   3.193  17.435  0.00  0.00    +0.000 A 
ATOM     36  C   UNL     1      49.521   2.440  16.895  0.00  0.00    +0.000 A 
ATOM     37  N   UNL     1      48.248   2.469  17.347  0.00  0.00    +0.000 NA
ATOM     38  C   UNL     1      47.998   3.283  18.399  0.00  0.00    +0.000 A 
ENDBRANCH  32  33
ENDBRANCH  30  32
ENDBRANCH  29  30
ENDBRANCH  26  29
ENDBRANCH  22  23
ENDBRANCH  20  22
ENDBRANCH   2  20
TORSDOF 9
ENDMDL
MODEL 8
REMARK VINA RESULT:    -6.723      3.582      4.832
REMARK INTER + INTRA:         -12.099
REMARK INTER:                 -10.539
REMARK INTRA:                  -1.560
REMARK UNBOUND:                -1.839
REMARK  Name = 
REMARK  12 active torsions:
REMARK  status: ('A' for Active; 'I' for Inactive)
REMARK    1  A    between atoms: C_1  and  C_2
REMARK    2  A    between atoms: C_2  and  N_3
REMARK    3  A    between atoms: C_2  and  C_20
REMARK    4  A    between atoms: N_3  and  C_4
REMARK    5  A    between atoms: C_4  and  C_5
REMARK    6  A    between atoms: C_8  and  C_9
REMARK    7  A    between atoms: C_9  and  N_10
REMARK    8  A    between atoms: N_10  and  C_11
REMARK    9  A    between atoms: C_11  and  C_12
REMARK   10  A    between atoms: C_23  and  C_24
REMARK   11  A    between atoms: N_26  and  C_27
REMARK   12  A    between atoms: N_26  and  C_28
REMARK                            x       y       z     vdW  Elec       q    Type
REMARK                         _______ _______ _______ _____ _____    ______ ____
ROOT
ATOM      1  C   UNL     1      50.080   7.692  11.309  0.00  0.00    +0.000 C 
ATOM      2  C   UNL     1      49.316   7.796  12.641  0.00  0.00    +0.000 C 
ENDROOT
BRANCH   2   3
ATOM      3  C   UNL     1      50.163   8.653  13.587  0.00  0.00    +0.000 A 
ATOM      4  C   UNL     1      51.126   8.055  14.434  0.00  0.00    +0.000 A 
ATOM      5  C   UNL     1      51.880   8.825  15.333  0.00  0.00    +0.000 A 
ATOM      6  C   UNL     1      51.836  10.207  15.237  0.00  0.00    +0.000 A 
ATOM      7  C   UNL     1      51.191  10.730  14.129  0.00  0.00    +0.000 A 
ATOM      8  C   UNL     1      51.221  12.148  13.769  0.00  0.00    +0.000 A 
ATOM      9  O   UNL     1      52.096  12.614  13.081  0.00  0.00    +0.000 OA
ATOM     10  N   UNL     1      50.044  12.712  14.116  0.00  0.00    +0.000 N 
ATOM     11  C   UNL     1      48.908  12.032  13.793  0.00  0.00    +0.000 A 
ATOM     12  N   UNL     1      48.911  10.793  13.348  0.00  0.00    +0.000 NA
ATOM     13  C   UNL     1      50.118  10.055  13.560  0.00  0.00    +0.000 A 
ATOM     14  H   UNL     1      50.080  13.598  14.607  0.00  0.00    +0.000 HD
BRANCH   6  15
ATOM     15  C   UNL     1      52.156  11.157  16.353  0.00  0.00    +0.000 C 
ATOM     16  O   UNL     1      51.281  11.344  17.196  0.00  0.00    +0.000 OA
ATOM     17  N   UNL     1      53.453  11.654  16.523  0.00  0.00    +0.000 N 
ATOM     18  C   UNL     1      54.582  11.504  15.621  0.00  0.00    +0.000 C 
ATOM     19  C   UNL     1      53.702  12.523  17.670  0.00  0.00    +0.000 C 
ENDBRANCH   6  15
ENDBRANCH   2   3
BRANCH   2  20
ATOM     20  N   UNL     1      49.068   6.446  13.197  0.00  0.00    +0.000 NA
ATOM     21  H   UNL     1      49.800   6.244  13.874  0.00  0.00    +0.000 HD
BRANCH  20  22
ATOM     22  C   UNL     1      47.768   6.325  13.869  0.00  0.00    +0.000 C 
BRANCH  22  23
ATOM     23  C   UNL     1      46.772   5.542  13.043  0.00  0.00    +0.000 A 
ATOM     24  C   UNL     1      46.266   6.059  11.842  0.00  0.00    +0.000 A 
ATOM     25  C   UNL     1      45.324   5.341  11.101  0.00  0.00    +0.000 A 
ATOM     26  C   UNL     1      44.885   4.079  11.526  0.00  0.00    +0.000 A 
ATOM     27  C   UNL     1      45.421   3.541  12.701  0.00  0.00    +0.000 A 
ATOM     28  C   UNL     1      46.353   4.265  13.450  0.00  0.00    +0.000 A 
BRANCH  26  29
ATOM     29  C   UNL     1      43.824   3.337  10.749  0.00  0.00    +0.000 C 
BRANCH  29  30
ATOM     30  N   UNL     1      44.184   3.236   9.338  0.00  0.00    +0.000 NA
ATOM     31  H   UNL     1      44.819   3.999   9.106  0.00  0.00    +0.000 HD
BRANCH  30  32
ATOM     32  C   UNL     1      44.830   1.960   9.044  0.00  0.00    +0.000 C 
BRANCH  32  33
ATOM     33  C   UNL     1      45.877   2.126   7.977  0.00  0.00    +0.000 A 
ATOM     34  C   UNL     1      45.971   3.297   7.218  0.00  0.00    +0.000 A 
ATOM     35  C   UNL     1      46.963   3.418   6.251  0.00  0.00    +0.000 A 
ATOM     36  C   UNL     1      47.829   2.355   6.067  0.00  0.00    +0.000 A 
ATOM     37  N   UNL     1      47.766   1.201   6.767  0.00  0.00    +0.000 NA
ATOM     38  C   UNL     1      46.793   1.115   7.704  0.00  0.00    +0.000 A 
ENDBRANCH  32  33
ENDBRANCH  30  32
ENDBRANCH  29  30
ENDBRANCH  26  29
ENDBRANCH  22  23
ENDBRANCH  20  22
ENDBRANCH   2  20
TORSDOF 9
ENDMDL
MODEL 9
REMARK VINA RESULT:    -6.680      2.825      3.984
REMARK INTER + INTRA:         -12.034
REMARK INTER:                 -10.225
REMARK INTRA:                  -1.810
REMARK UNBOUND:                -1.839
REMARK  Name = 
REMARK  12 active torsions:
REMARK  status: ('A' for Active; 'I' for Inactive)
REMARK    1  A    between atoms: C_1  and  C_2
REMARK    2  A    between atoms: C_2  and  N_3
REMARK    3  A    between atoms: C_2  and  C_20
REMARK    4  A    between atoms: N_3  and  C_4
REMARK    5  A    between atoms: C_4  and  C_5
REMARK    6  A    between atoms: C_8  and  C_9
REMARK    7  A    between atoms: C_9  and  N_10
REMARK    8  A    between atoms: N_10  and  C_11
REMARK    9  A    between atoms: C_11  and  C_12
REMARK   10  A    between atoms: C_23  and  C_24
REMARK   11  A    between atoms: N_26  and  C_27
REMARK   12  A    between atoms: N_26  and  C_28
REMARK                            x       y       z     vdW  Elec       q    Type
REMARK                         _______ _______ _______ _____ _____    ______ ____
ROOT
ATOM      1  C   UNL     1      48.069   5.731  15.198  0.00  0.00    +0.000 C 
ATOM      2  C   UNL     1      48.407   6.867  14.217  0.00  0.00    +0.000 C 
ENDROOT
BRANCH   2   3
ATOM      3  C   UNL     1      49.641   7.591  14.765  0.00  0.00    +0.000 A 
ATOM      4  C   UNL     1      49.941   7.560  16.147  0.00  0.00    +0.000 A 
ATOM      5  C   UNL     1      51.046   8.251  16.667  0.00  0.00    +0.000 A 
ATOM      6  C   UNL     1      51.975   8.790  15.789  0.00  0.00    +0.000 A 
ATOM      7  C   UNL     1      51.842   8.442  14.457  0.00  0.00    +0.000 A 
ATOM      8  C   UNL     1      52.841   8.756  13.434  0.00  0.00    +0.000 A 
ATOM      9  O   UNL     1      53.771   8.024  13.202  0.00  0.00    +0.000 OA
ATOM     10  N   UNL     1      52.402   9.803  12.702  0.00  0.00    +0.000 N 
ATOM     11  C   UNL     1      51.105   9.773  12.288  0.00  0.00    +0.000 A 
ATOM     12  N   UNL     1      50.228   8.891  12.723  0.00  0.00    +0.000 NA
ATOM     13  C   UNL     1      50.586   8.193  13.919  0.00  0.00    +0.000 A 
ATOM     14  H   UNL     1      53.061  10.552  12.518  0.00  0.00    +0.000 HD
BRANCH   6  15
ATOM     15  C   UNL     1      52.902   9.926  16.110  0.00  0.00    +0.000 C 
ATOM     16  O   UNL     1      52.487  11.063  15.898  0.00  0.00    +0.000 OA
ATOM     17  N   UNL     1      54.103   9.702  16.792  0.00  0.00    +0.000 N 
ATOM     18  C   UNL     1      54.707   8.421  17.119  0.00  0.00    +0.000 C 
ATOM     19  C   UNL     1      54.922  10.864  17.126  0.00  0.00    +0.000 C 
ENDBRANCH   6  15
ENDBRANCH   2   3
BRANCH   2  20
ATOM     20  N   UNL     1      47.252   7.782  14.074  0.00  0.00    +0.000 NA
ATOM     21  H   UNL     1      47.520   8.690  14.446  0.00  0.00    +0.000 HD
BRANCH  20  22
ATOM     22  C   UNL     1      46.823   7.962  12.681  0.00  0.00    +0.000 C 
BRANCH  22  23
ATOM     23  C   UNL     1      46.013   6.787  12.180  0.00  0.00    +0.000 A 
ATOM     24  C   UNL     1      45.067   6.160  13.003  0.00  0.00    +0.000 A 
ATOM     25  C   UNL     1      44.345   5.057  12.542  0.00  0.00    +0.000 A 
ATOM     26  C   UNL     1      44.529   4.570  11.239  0.00  0.00    +0.000 A 
ATOM     27  C   UNL     1      45.440   5.221  10.401  0.00  0.00    +0.000 A 
ATOM     28  C   UNL     1      46.173   6.316  10.866  0.00  0.00    +0.000 A 
BRANCH  26  29
ATOM     29  C   UNL     1      43.785   3.343  10.769  0.00  0.00    +0.000 C 
BRANCH  29  30
ATOM     30  N   UNL     1      44.011   3.107   9.346  0.00  0.00    +0.000 NA
ATOM     31  H   UNL     1      44.536   3.892   8.963  0.00  0.00    +0.000 HD
BRANCH  30  32
ATOM     32  C   UNL     1      44.753   1.869   9.124  0.00  0.00    +0.000 C 
BRANCH  32  33
ATOM     33  C   UNL     1      45.829   2.072   8.093  0.00  0.00    +0.000 A 
ATOM     34  C   UNL     1      45.933   3.262   7.365  0.00  0.00    +0.000 A 
ATOM     35  C   UNL     1      46.952   3.417   6.432  0.00  0.00    +0.000 A 
ATOM     36  C   UNL     1      47.835   2.367   6.249  0.00  0.00    +0.000 A 
ATOM     37  N   UNL     1      47.763   1.196   6.919  0.00  0.00    +0.000 NA
ATOM     38  C   UNL     1      46.763   1.077   7.823  0.00  0.00    +0.000 A 
ENDBRANCH  32  33
ENDBRANCH  30  32
ENDBRANCH  29  30
ENDBRANCH  26  29
ENDBRANCH  22  23
ENDBRANCH  20  22
ENDBRANCH   2  20
TORSDOF 9
ENDMDL
