MODEL 1
REMARK VINA RESULT:    -8.660      0.000      0.000
REMARK INTER + INTRA:         -11.860
REMARK INTER:                 -11.192
REMARK INTRA:                  -0.669
REMARK UNBOUND:                -0.669
REMARK  Name = 
REMARK  5 active torsions:
REMARK  status: ('A' for Active; 'I' for Inactive)
REMARK    1  A    between atoms: C_2  and  C_4
REMARK    2  A    between atoms: C_7  and  O_8
REMARK    3  A    between atoms: O_8  and  C_9
REMARK    4  A    between atoms: C_9  and  C_10
REMARK    5  A    between atoms: C_15  and  C_16
REMARK                            x       y       z     vdW  Elec       q    Type
REMARK                         _______ _______ _______ _____ _____    ______ ____
ROOT
ATOM      1  C   UNL     1      44.853   4.805  12.106  0.00  0.00    +0.000 A 
ATOM      2  C   UNL     1      45.499   3.759  12.776  0.00  0.00    +0.000 A 
ATOM      3  C   UNL     1      46.651   4.010  13.499  0.00  0.00    +0.000 A 
ATOM      4  F   UNL     1      47.257   3.004  14.143  0.00  0.00    +0.000 F 
ATOM      5  C   UNL     1      47.201   5.285  13.551  0.00  0.00    +0.000 A 
ATOM      6  C   UNL     1      46.618   6.345  12.843  0.00  0.00    +0.000 A 
ATOM      7  C   UNL     1      45.408   6.093  12.162  0.00  0.00    +0.000 A 
ENDROOT
BRANCH   6   8
ATOM      8  C   UNL     1      47.236   7.742  12.772  0.00  0.00    +0.000 C 
ATOM      9  C   UNL     1      48.319   7.840  11.676  0.00  0.00    +0.000 C 
ATOM     10  C   UNL     1      49.627   7.170  12.100  0.00  0.00    +0.000 C 
ATOM     11  N   UNL     1      50.155   7.739  13.339  0.00  0.00    +0.000 NA
ATOM     12  C   UNL     1      49.189   7.648  14.431  0.00  0.00    +0.000 C 
ATOM     13  C   UNL     1      47.841   8.289  14.082  0.00  0.00    +0.000 C 
ATOM     14  H   UNL     1      50.395   8.718  13.185  0.00  0.00    +0.000 HD
ENDBRANCH   6   8
BRANCH   1  15
ATOM     15  C   UNL     1      43.609   4.468  11.322  0.00  0.00    +0.000 C 
BRANCH  15  16
ATOM     16  O   UNL     1      43.730   4.704   9.919  0.00  0.00    +0.000 OA
BRANCH  16  20
ATOM     17  C   UNL     1      46.358   2.282   7.768  0.00  0.00    +0.000 A 
ATOM     18  C   UNL     1      45.455   1.673   8.644  0.00  0.00    +0.000 A 
ATOM     19  C   UNL     1      44.566   2.455   9.381  0.00  0.00    +0.000 A 
ATOM     20  C   UNL     1      44.570   3.848   9.256  0.00  0.00    +0.000 A 
ATOM     21  C   UNL     1      45.492   4.455   8.397  0.00  0.00    +0.000 A 
ATOM     22  C   UNL     1      46.390   3.675   7.661  0.00  0.00    +0.000 A 
BRANCH  17  24
ATOM     23  N   UNL     1      48.396   2.113   6.456  0.00  0.00    +0.000 N 
ATOM     24  C   UNL     1      47.298   1.470   6.955  0.00  0.00    +0.000 C 
ATOM     25  O   UNL     1      47.122   0.273   6.768  0.00  0.00    +0.000 OA
ATOM     26  H   UNL     1      49.086   1.530   6.001  0.00  0.00    +0.000 HD
ATOM     27  H   UNL     1      48.702   3.011   6.807  0.00  0.00    +0.000 HD
ENDBRANCH  17  24
ENDBRANCH  16  20
ENDBRANCH  15  16
ENDBRANCH   1  15
TORSDOF 5
ENDMDL
MODEL 2
REMARK VINA RESULT:    -8.082      1.816      2.582
REMARK INTER + INTRA:         -11.114
REMARK INTER:                 -10.620
REMARK INTRA:                  -0.493
REMARK UNBOUND:                -0.669
REMARK  Name = 
REMARK  5 active torsions:
REMARK  status: ('A' for Active; 'I' for Inactive)
REMARK    1  A    between atoms: C_2  and  C_4
REMARK    2  A    between atoms: C_7  and  O_8
REMARK    3  A    between atoms: O_8  and  C_9
REMARK    4  A    between atoms: C_9  and  C_10
REMARK    5  A    between atoms: C_15  and  C_16
REMARK                            x       y       z     vdW  Elec       q    Type
REMARK                         _______ _______ _______ _____ _____    ______ ____
ROOT
ATOM      1  C   UNL     1      44.797   5.265  11.724  0.00  0.00    +0.000 A 
ATOM      2  C   UNL     1      44.106   6.457  11.475  0.00  0.00    +0.000 A 
ATOM      3  C   UNL     1      44.764   7.670  11.576  0.00  0.00    +0.000 A 
ATOM      4  F   UNL     1      44.096   8.804  11.329  0.00  0.00    +0.000 F 
ATOM      5  C   UNL     1      46.100   7.730  11.953  0.00  0.00    +0.000 A 
ATOM      6  C   UNL     1      46.808   6.563  12.270  0.00  0.00    +0.000 A 
ATOM      7  C   UNL     1      46.147   5.328  12.101  0.00  0.00    +0.000 A 
ENDROOT
BRANCH   6   8
ATOM      8  C   UNL     1      48.244   6.574  12.796  0.00  0.00    +0.000 C 
ATOM      9  C   UNL     1      48.314   6.992  14.281  0.00  0.00    +0.000 C 
ATOM     10  C   UNL     1      48.126   8.498  14.462  0.00  0.00    +0.000 C 
ATOM     11  N   UNL     1      49.115   9.266  13.708  0.00  0.00    +0.000 NA
ATOM     12  C   UNL     1      49.080   8.943  12.284  0.00  0.00    +0.000 C 
ATOM     13  C   UNL     1      49.250   7.444  12.014  0.00  0.00    +0.000 C 
ATOM     14  H   UNL     1      50.046   9.068  14.074  0.00  0.00    +0.000 HD
ENDBRANCH   6   8
BRANCH   1  15
ATOM     15  C   UNL     1      44.023   3.974  11.611  0.00  0.00    +0.000 C 
BRANCH  15  16
ATOM     16  O   UNL     1      43.540   3.704  10.296  0.00  0.00    +0.000 OA
BRANCH  16  20
ATOM     17  C   UNL     1      46.507   2.584   7.586  0.00  0.00    +0.000 A 
ATOM     18  C   UNL     1      46.077   3.914   7.591  0.00  0.00    +0.000 A 
ATOM     19  C   UNL     1      45.083   4.319   8.482  0.00  0.00    +0.000 A 
ATOM     20  C   UNL     1      44.507   3.406   9.371  0.00  0.00    +0.000 A 
ATOM     21  C   UNL     1      44.924   2.071   9.346  0.00  0.00    +0.000 A 
ATOM     22  C   UNL     1      45.915   1.658   8.450  0.00  0.00    +0.000 A 
BRANCH  17  24
ATOM     23  N   UNL     1      47.890   2.967   5.625  0.00  0.00    +0.000 N 
ATOM     24  C   UNL     1      47.580   2.133   6.664  0.00  0.00    +0.000 C 
ATOM     25  O   UNL     1      48.187   1.085   6.842  0.00  0.00    +0.000 OA
ATOM     26  H   UNL     1      48.695   2.707   5.071  0.00  0.00    +0.000 HD
ATOM     27  H   UNL     1      47.603   3.936   5.606  0.00  0.00    +0.000 HD
ENDBRANCH  17  24
ENDBRANCH  16  20
ENDBRANCH  15  16
ENDBRANCH   1  15
TORSDOF 5
ENDMDL
MODEL 3
REMARK VINA RESULT:    -8.070      2.009      2.651
REMARK INTER + INTRA:         -11.098
REMARK INTER:                 -10.293
REMARK INTRA:                  -0.805
REMARK UNBOUND:                -0.669
REMARK  Name = 
REMARK  5 active torsions:
REMARK  status: ('A' for Active; 'I' for Inactive)
REMARK    1  A    between atoms: C_2  and  C_4
REMARK    2  A    between atoms: C_7  and  O_8
REMARK    3  A    between atoms: O_8  and  C_9
REMARK    4  A    between atoms: C_9  and  C_10
REMARK    5  A    between atoms: C_15  and  C_16
REMARK                            x       y       z     vdW  Elec       q    Type
REMARK                         _______ _______ _______ _____ _____    ______ ____
ROOT
ATOM      1  C   UNL     1      44.630   5.361  11.621  0.00  0.00    +0.000 A 
ATOM      2  C   UNL     1      43.727   6.404  11.382  0.00  0.00    +0.000 A 
ATOM      3  C   UNL     1      44.179   7.710  11.331  0.00  0.00    +0.000 A 
ATOM      4  F   UNL     1      43.308   8.700  11.095  0.00  0.00    +0.000 F 
ATOM      5  C   UNL     1      45.518   8.013  11.545  0.00  0.00    +0.000 A 
ATOM      6  C   UNL     1      46.441   7.004  11.848  0.00  0.00    +0.000 A 
ATOM      7  C   UNL     1      45.983   5.670  11.834  0.00  0.00    +0.000 A 
ENDROOT
BRANCH   6   8
ATOM      8  C   UNL     1      47.902   7.287  12.201  0.00  0.00    +0.000 C 
ATOM      9  C   UNL     1      48.496   6.201  13.124  0.00  0.00    +0.000 C 
ATOM     10  C   UNL     1      48.011   6.347  14.566  0.00  0.00    +0.000 C 
ATOM     11  N   UNL     1      48.330   7.663  15.119  0.00  0.00    +0.000 NA
ATOM     12  C   UNL     1      47.768   8.740  14.309  0.00  0.00    +0.000 C 
ATOM     13  C   UNL     1      48.197   8.660  12.839  0.00  0.00    +0.000 C 
ATOM     14  H   UNL     1      49.343   7.772  15.166  0.00  0.00    +0.000 HD
ENDBRANCH   6   8
BRANCH   1  15
ATOM     15  C   UNL     1      44.077   3.959  11.679  0.00  0.00    +0.000 C 
BRANCH  15  16
ATOM     16  O   UNL     1      43.539   3.499  10.439  0.00  0.00    +0.000 OA
BRANCH  16  20
ATOM     17  C   UNL     1      46.398   2.569   7.547  0.00  0.00    +0.000 A 
ATOM     18  C   UNL     1      45.898   3.873   7.594  0.00  0.00    +0.000 A 
ATOM     19  C   UNL     1      44.938   4.216   8.547  0.00  0.00    +0.000 A 
ATOM     20  C   UNL     1      44.465   3.263   9.456  0.00  0.00    +0.000 A 
ATOM     21  C   UNL     1      44.950   1.953   9.389  0.00  0.00    +0.000 A 
ATOM     22  C   UNL     1      45.908   1.604   8.431  0.00  0.00    +0.000 A 
BRANCH  17  24
ATOM     23  N   UNL     1      47.505   2.934   5.415  0.00  0.00    +0.000 N 
ATOM     24  C   UNL     1      47.437   2.187   6.558  0.00  0.00    +0.000 C 
ATOM     25  O   UNL     1      48.222   1.272   6.767  0.00  0.00    +0.000 OA
ATOM     26  H   UNL     1      48.285   2.740   4.801  0.00  0.00    +0.000 HD
ATOM     27  H   UNL     1      47.062   3.840   5.335  0.00  0.00    +0.000 HD
ENDBRANCH  17  24
ENDBRANCH  16  20
ENDBRANCH  15  16
ENDBRANCH   1  15
TORSDOF 5
ENDMDL
MODEL 4
REMARK VINA RESULT:    -7.391      3.350      4.047
REMARK INTER + INTRA:         -10.220
REMARK INTER:                  -9.788
REMARK INTRA:                  -0.432
REMARK UNBOUND:                -0.669
REMARK  Name = 
REMARK  5 active torsions:
REMARK  status: ('A' for Active; 'I' for Inactive)
REMARK    1  A    between atoms: C_2  and  C_4
REMARK    2  A    between atoms: C_7  and  O_8
REMARK    3  A    between atoms: O_8  and  C_9
REMARK    4  A    between atoms: C_9  and  C_10
REMARK    5  A    between atoms: C_15  and  C_16
REMARK                            x       y       z     vdW  Elec       q    Type
REMARK                         _______ _______ _______ _____ _____    ______ ____
ROOT
ATOM      1  C   UNL     1      44.748   6.388  11.900  0.00  0.00    +0.000 A 
ATOM      2  C   UNL     1      45.711   6.776  12.839  0.00  0.00    +0.000 A 
ATOM      3  C   UNL     1      46.005   8.116  13.013  0.00  0.00    +0.000 A 
ATOM      4  F   UNL     1      46.922   8.477  13.919  0.00  0.00    +0.000 F 
ATOM      5  C   UNL     1      45.380   9.092  12.247  0.00  0.00    +0.000 A 
ATOM      6  C   UNL     1      44.456   8.739  11.254  0.00  0.00    +0.000 A 
ATOM      7  C   UNL     1      44.115   7.375  11.129  0.00  0.00    +0.000 A 
ENDROOT
BRANCH   6   8
ATOM      8  C   UNL     1      43.819   9.756  10.307  0.00  0.00    +0.000 C 
ATOM      9  C   UNL     1      44.601  11.087  10.273  0.00  0.00    +0.000 C 
ATOM     10  C   UNL     1      44.346  11.933  11.521  0.00  0.00    +0.000 C 
ATOM     11  N   UNL     1      42.925  12.225  11.701  0.00  0.00    +0.000 NA
ATOM     12  C   UNL     1      42.127  11.005  11.774  0.00  0.00    +0.000 C 
ATOM     13  C   UNL     1      42.334  10.090  10.561  0.00  0.00    +0.000 C 
ATOM     14  H   UNL     1      42.597  12.795  10.920  0.00  0.00    +0.000 HD
ENDBRANCH   6   8
BRANCH   1  15
ATOM     15  C   UNL     1      44.480   4.912  11.744  0.00  0.00    +0.000 C 
BRANCH  15  16
ATOM     16  O   UNL     1      43.881   4.562  10.497  0.00  0.00    +0.000 OA
BRANCH  16  20
ATOM     17  C   UNL     1      46.446   2.846   7.690  0.00  0.00    +0.000 A 
ATOM     18  C   UNL     1      45.726   2.001   8.539  0.00  0.00    +0.000 A 
ATOM     19  C   UNL     1      44.863   2.544   9.491  0.00  0.00    +0.000 A 
ATOM     20  C   UNL     1      44.713   3.930   9.610  0.00  0.00    +0.000 A 
ATOM     21  C   UNL     1      45.454   4.772   8.775  0.00  0.00    +0.000 A 
ATOM     22  C   UNL     1      46.326   4.232   7.823  0.00  0.00    +0.000 A 
BRANCH  17  24
ATOM     23  N   UNL     1      47.315   2.885   5.421  0.00  0.00    +0.000 N 
ATOM     24  C   UNL     1      47.353   2.292   6.653  0.00  0.00    +0.000 C 
ATOM     25  O   UNL     1      48.125   1.374   6.894  0.00  0.00    +0.000 OA
ATOM     26  H   UNL     1      48.014   2.577   4.758  0.00  0.00    +0.000 HD
ATOM     27  H   UNL     1      46.897   3.793   5.272  0.00  0.00    +0.000 HD
ENDBRANCH  17  24
ENDBRANCH  16  20
ENDBRANCH  15  16
ENDBRANCH   1  15
TORSDOF 5
ENDMDL
MODEL 5
REMARK VINA RESULT:    -7.201      2.419      3.407
REMARK INTER + INTRA:          -9.975
REMARK INTER:                  -9.529
REMARK INTRA:                  -0.447
REMARK UNBOUND:                -0.669
REMARK  Name = 
REMARK  5 active torsions:
REMARK  status: ('A' for Active; 'I' for Inactive)
REMARK    1  A    between atoms: C_2  and  C_4
REMARK    2  A    between atoms: C_7  and  O_8
REMARK    3  A    between atoms: O_8  and  C_9
REMARK    4  A    between atoms: C_9  and  C_10
REMARK    5  A    between atoms: C_15  and  C_16
REMARK                            x       y       z     vdW  Elec       q    Type
REMARK                         _______ _______ _______ _____ _____    ______ ____
ROOT
ATOM      1  C   UNL     1      45.873   4.354  12.952  0.00  0.00    +0.000 A 
ATOM      2  C   UNL     1      46.522   5.473  12.417  0.00  0.00    +0.000 A 
ATOM      3  C   UNL     1      47.443   6.167  13.181  0.00  0.00    +0.000 A 
ATOM      4  F   UNL     1      48.064   7.232  12.658  0.00  0.00    +0.000 F 
ATOM      5  C   UNL     1      47.717   5.789  14.489  0.00  0.00    +0.000 A 
ATOM      6  C   UNL     1      47.043   4.712  15.081  0.00  0.00    +0.000 A 
ATOM      7  C   UNL     1      46.154   3.972  14.273  0.00  0.00    +0.000 A 
ENDROOT
BRANCH   6   8
ATOM      8  C   UNL     1      47.221   4.319  16.547  0.00  0.00    +0.000 C 
ATOM      9  C   UNL     1      48.223   5.239  17.277  0.00  0.00    +0.000 C 
ATOM     10  C   UNL     1      49.671   4.917  16.907  0.00  0.00    +0.000 C 
ATOM     11  N   UNL     1      50.011   3.525  17.196  0.00  0.00    +0.000 NA
ATOM     12  C   UNL     1      49.118   2.596  16.509  0.00  0.00    +0.000 C 
ATOM     13  C   UNL     1      47.640   2.859  16.817  0.00  0.00    +0.000 C 
ATOM     14  H   UNL     1      49.951   3.365  18.202  0.00  0.00    +0.000 HD
ENDBRANCH   6   8
BRANCH   1  15
ATOM     15  C   UNL     1      44.868   3.646  12.077  0.00  0.00    +0.000 C 
BRANCH  15  16
ATOM     16  O   UNL     1      44.537   4.359  10.886  0.00  0.00    +0.000 OA
BRANCH  16  20
ATOM     17  C   UNL     1      46.479   2.832   7.525  0.00  0.00    +0.000 A 
ATOM     18  C   UNL     1      46.430   4.218   7.693  0.00  0.00    +0.000 A 
ATOM     19  C   UNL     1      45.785   4.761   8.804  0.00  0.00    +0.000 A 
ATOM     20  C   UNL     1      45.179   3.930   9.753  0.00  0.00    +0.000 A 
ATOM     21  C   UNL     1      45.209   2.544   9.567  0.00  0.00    +0.000 A 
ATOM     22  C   UNL     1      45.850   1.996   8.451  0.00  0.00    +0.000 A 
BRANCH  17  24
ATOM     23  N   UNL     1      47.175   2.948   5.199  0.00  0.00    +0.000 N 
ATOM     24  C   UNL     1      47.180   2.229   6.363  0.00  0.00    +0.000 C 
ATOM     25  O   UNL     1      47.769   1.159   6.447  0.00  0.00    +0.000 OA
ATOM     26  H   UNL     1      47.749   2.585   4.450  0.00  0.00    +0.000 HD
ATOM     27  H   UNL     1      46.937   3.930   5.172  0.00  0.00    +0.000 HD
ENDBRANCH  17  24
ENDBRANCH  16  20
ENDBRANCH  15  16
ENDBRANCH   1  15
TORSDOF 5
ENDMDL
MODEL 6
REMARK VINA RESULT:    -7.123      4.857      7.837
REMARK INTER + INTRA:          -9.874
REMARK INTER:                  -9.542
REMARK INTRA:                  -0.332
REMARK UNBOUND:                -0.669
REMARK  Name = 
REMARK  5 active torsions:
REMARK  status: ('A' for Active; 'I' for Inactive)
REMARK    1  A    between atoms: C_2  and  C_4
REMARK    2  A    between atoms: C_7  and  O_8
REMARK    3  A    between atoms: O_8  and  C_9
REMARK    4  A    between atoms: C_9  and  C_10
REMARK    5  A    between atoms: C_15  and  C_16
REMARK                            x       y       z     vdW  Elec       q    Type
REMARK                         _______ _______ _______ _____ _____    ______ ____
ROOT
ATOM      1  C   UNL     1      46.673   4.991  14.074  0.00  0.00    +0.000 A 
ATOM      2  C   UNL     1      47.726   5.820  13.668  0.00  0.00    +0.000 A 
ATOM      3  C   UNL     1      47.633   6.520  12.479  0.00  0.00    +0.000 A 
ATOM      4  F   UNL     1      48.642   7.316  12.103  0.00  0.00    +0.000 F 
ATOM      5  C   UNL     1      46.520   6.393  11.658  0.00  0.00    +0.000 A 
ATOM      6  C   UNL     1      45.473   5.526  12.000  0.00  0.00    +0.000 A 
ATOM      7  C   UNL     1      45.548   4.866  13.245  0.00  0.00    +0.000 A 
ENDROOT
BRANCH   6   8
ATOM      8  C   UNL     1      44.276   5.261  11.086  0.00  0.00    +0.000 C 
ATOM      9  C   UNL     1      43.127   4.545  11.830  0.00  0.00    +0.000 C 
ATOM     10  C   UNL     1      43.422   3.061  12.046  0.00  0.00    +0.000 C 
ATOM     11  N   UNL     1      43.676   2.365  10.786  0.00  0.00    +0.000 NA
ATOM     12  C   UNL     1      44.777   2.973  10.044  0.00  0.00    +0.000 C 
ATOM     13  C   UNL     1      44.565   4.471   9.793  0.00  0.00    +0.000 C 
ATOM     14  H   UNL     1      42.832   2.388  10.213  0.00  0.00    +0.000 HD
ENDBRANCH   6   8
BRANCH   1  15
ATOM     15  C   UNL     1      46.837   4.241  15.373  0.00  0.00    +0.000 C 
BRANCH  15  16
ATOM     16  O   UNL     1      47.679   4.901  16.317  0.00  0.00    +0.000 OA
BRANCH  16  20
ATOM     17  C   UNL     1      50.937   2.556  17.455  0.00  0.00    +0.000 A 
ATOM     18  C   UNL     1      51.050   3.946  17.551  0.00  0.00    +0.000 A 
ATOM     19  C   UNL     1      49.980   4.758  17.175  0.00  0.00    +0.000 A 
ATOM     20  C   UNL     1      48.792   4.196  16.696  0.00  0.00    +0.000 A 
ATOM     21  C   UNL     1      48.693   2.806  16.578  0.00  0.00    +0.000 A 
ATOM     22  C   UNL     1      49.765   1.988  16.948  0.00  0.00    +0.000 A 
BRANCH  17  24
ATOM     23  N   UNL     1      51.761   0.343  18.026  0.00  0.00    +0.000 N 
ATOM     24  C   UNL     1      52.052   1.670  17.872  0.00  0.00    +0.000 C 
ATOM     25  O   UNL     1      53.189   2.095  18.035  0.00  0.00    +0.000 OA
ATOM     26  H   UNL     1      52.548  -0.269  18.198  0.00  0.00    +0.000 HD
ATOM     27  H   UNL     1      50.920  -0.073  17.647  0.00  0.00    +0.000 HD
ENDBRANCH  17  24
ENDBRANCH  16  20
ENDBRANCH  15  16
ENDBRANCH   1  15
TORSDOF 5
ENDMDL
MODEL 7
REMARK VINA RESULT:    -7.030      4.812      8.668
REMARK INTER + INTRA:          -9.754
REMARK INTER:                  -9.581
REMARK INTRA:                  -0.173
REMARK UNBOUND:                -0.669
REMARK  Name = 
REMARK  5 active torsions:
REMARK  status: ('A' for Active; 'I' for Inactive)
REMARK    1  A    between atoms: C_2  and  C_4
REMARK    2  A    between atoms: C_7  and  O_8
REMARK    3  A    between atoms: O_8  and  C_9
REMARK    4  A    between atoms: C_9  and  C_10
REMARK    5  A    between atoms: C_15  and  C_16
REMARK                            x       y       z     vdW  Elec       q    Type
REMARK                         _______ _______ _______ _____ _____    ______ ____
ROOT
ATOM      1  C   UNL     1      46.641   5.239  13.575  0.00  0.00    +0.000 A 
ATOM      2  C   UNL     1      47.553   6.157  13.040  0.00  0.00    +0.000 A 
ATOM      3  C   UNL     1      47.286   6.770  11.829  0.00  0.00    +0.000 A 
ATOM      4  F   UNL     1      48.162   7.651  11.330  0.00  0.00    +0.000 F 
ATOM      5  C   UNL     1      46.135   6.468  11.113  0.00  0.00    +0.000 A 
ATOM      6  C   UNL     1      45.228   5.510  11.585  0.00  0.00    +0.000 A 
ATOM      7  C   UNL     1      45.477   4.939  12.851  0.00  0.00    +0.000 A 
ENDROOT
BRANCH   6   8
ATOM      8  C   UNL     1      44.003   5.057  10.791  0.00  0.00    +0.000 C 
ATOM      9  C   UNL     1      42.993   4.290  11.672  0.00  0.00    +0.000 C 
ATOM     10  C   UNL     1      43.457   2.864  11.968  0.00  0.00    +0.000 C 
ATOM     11  N   UNL     1      43.691   2.101  10.743  0.00  0.00    +0.000 NA
ATOM     12  C   UNL     1      44.666   2.756   9.875  0.00  0.00    +0.000 C 
ATOM     13  C   UNL     1      44.280   4.200   9.538  0.00  0.00    +0.000 C 
ATOM     14  H   UNL     1      42.810   1.994  10.239  0.00  0.00    +0.000 HD
ENDBRANCH   6   8
BRANCH   1  15
ATOM     15  C   UNL     1      46.993   4.593  14.892  0.00  0.00    +0.000 C 
BRANCH  15  16
ATOM     16  O   UNL     1      48.258   4.999  15.415  0.00  0.00    +0.000 OA
BRANCH  16  20
ATOM     17  C   UNL     1      48.798   4.694  19.540  0.00  0.00    +0.000 A 
ATOM     18  C   UNL     1      48.530   3.530  18.815  0.00  0.00    +0.000 A 
ATOM     19  C   UNL     1      48.341   3.598  17.435  0.00  0.00    +0.000 A 
ATOM     20  C   UNL     1      48.411   4.825  16.766  0.00  0.00    +0.000 A 
ATOM     21  C   UNL     1      48.654   5.991  17.499  0.00  0.00    +0.000 A 
ATOM     22  C   UNL     1      48.838   5.928  18.884  0.00  0.00    +0.000 A 
BRANCH  17  24
ATOM     23  N   UNL     1      50.327   4.669  21.428  0.00  0.00    +0.000 N 
ATOM     24  C   UNL     1      49.027   4.644  21.006  0.00  0.00    +0.000 C 
ATOM     25  O   UNL     1      48.099   4.618  21.804  0.00  0.00    +0.000 OA
ATOM     26  H   UNL     1      50.470   4.748  22.426  0.00  0.00    +0.000 HD
ATOM     27  H   UNL     1      51.086   4.954  20.824  0.00  0.00    +0.000 HD
ENDBRANCH  17  24
ENDBRANCH  16  20
ENDBRANCH  15  16
ENDBRANCH   1  15
TORSDOF 5
ENDMDL
MODEL 8
REMARK VINA RESULT:    -6.605      4.664      6.493
REMARK INTER + INTRA:          -9.205
REMARK INTER:                  -8.090
REMARK INTRA:                  -1.115
REMARK UNBOUND:                -0.669
REMARK  Name = 
REMARK  5 active torsions:
REMARK  status: ('A' for Active; 'I' for Inactive)
REMARK    1  A    between atoms: C_2  and  C_4
REMARK    2  A    between atoms: C_7  and  O_8
REMARK    3  A    between atoms: O_8  and  C_9
REMARK    4  A    between atoms: C_9  and  C_10
REMARK    5  A    between atoms: C_15  and  C_16
REMARK                            x       y       z     vdW  Elec       q    Type
REMARK                         _______ _______ _______ _____ _____    ______ ____
ROOT
ATOM      1  C   UNL     1      49.102   7.888  14.762  0.00  0.00    +0.000 A 
ATOM      2  C   UNL     1      48.640   9.143  15.175  0.00  0.00    +0.000 A 
ATOM      3  C   UNL     1      48.443   9.398  16.520  0.00  0.00    +0.000 A 
ATOM      4  F   UNL     1      48.007  10.604  16.905  0.00  0.00    +0.000 F 
ATOM      5  C   UNL     1      48.669   8.415  17.475  0.00  0.00    +0.000 A 
ATOM      6  C   UNL     1      49.073   7.128  17.096  0.00  0.00    +0.000 A 
ATOM      7  C   UNL     1      49.333   6.898  15.729  0.00  0.00    +0.000 A 
ENDROOT
BRANCH   6   8
ATOM      8  C   UNL     1      49.232   5.976  18.090  0.00  0.00    +0.000 C 
ATOM      9  C   UNL     1      49.121   4.598  17.401  0.00  0.00    +0.000 C 
ATOM     10  C   UNL     1      47.674   4.242  17.060  0.00  0.00    +0.000 C 
ATOM     11  N   UNL     1      46.817   4.249  18.244  0.00  0.00    +0.000 NA
ATOM     12  C   UNL     1      46.848   5.540  18.928  0.00  0.00    +0.000 C 
ATOM     13  C   UNL     1      48.270   5.978  19.296  0.00  0.00    +0.000 C 
ATOM     14  H   UNL     1      47.125   3.521  18.888  0.00  0.00    +0.000 HD
ENDBRANCH   6   8
BRANCH   1  15
ATOM     15  C   UNL     1      49.285   7.664  13.281  0.00  0.00    +0.000 C 
BRANCH  15  16
ATOM     16  O   UNL     1      48.830   6.388  12.830  0.00  0.00    +0.000 OA
BRANCH  16  20
ATOM     17  C   UNL     1      44.717   5.694  12.840  0.00  0.00    +0.000 A 
ATOM     18  C   UNL     1      45.197   6.843  12.206  0.00  0.00    +0.000 A 
ATOM     19  C   UNL     1      46.567   7.106  12.188  0.00  0.00    +0.000 A 
ATOM     20  C   UNL     1      47.469   6.232  12.805  0.00  0.00    +0.000 A 
ATOM     21  C   UNL     1      46.981   5.097  13.460  0.00  0.00    +0.000 A 
ATOM     22  C   UNL     1      45.608   4.832  13.485  0.00  0.00    +0.000 A 
BRANCH  17  24
ATOM     23  N   UNL     1      42.498   5.977  11.889  0.00  0.00    +0.000 N 
ATOM     24  C   UNL     1      43.266   5.380  12.851  0.00  0.00    +0.000 C 
ATOM     25  O   UNL     1      42.781   4.597  13.657  0.00  0.00    +0.000 OA
ATOM     26  H   UNL     1      41.536   5.671  11.834  0.00  0.00    +0.000 HD
ATOM     27  H   UNL     1      42.900   6.405  11.066  0.00  0.00    +0.000 HD
ENDBRANCH  17  24
ENDBRANCH  16  20
ENDBRANCH  15  16
ENDBRANCH   1  15
TORSDOF 5
ENDMDL
MODEL 9
REMARK VINA RESULT:    -6.440      4.293      6.338
REMARK INTER + INTRA:          -8.991
REMARK INTER:                  -8.500
REMARK INTRA:                  -0.491
REMARK UNBOUND:                -0.669
REMARK  Name = 
REMARK  5 active torsions:
REMARK  status: ('A' for Active; 'I' for Inactive)
REMARK    1  A    between atoms: C_2  and  C_4
REMARK    2  A    between atoms: C_7  and  O_8
REMARK    3  A    between atoms: O_8  and  C_9
REMARK    4  A    between atoms: C_9  and  C_10
REMARK    5  A    between atoms: C_15  and  C_16
REMARK                            x       y       z     vdW  Elec       q    Type
REMARK                         _______ _______ _______ _____ _____    ______ ____
ROOT
ATOM      1  C   UNL     1      48.775   7.071  15.507  0.00  0.00    +0.000 A 
ATOM      2  C   UNL     1      48.825   8.225  16.298  0.00  0.00    +0.000 A 
ATOM      3  C   UNL     1      48.715   8.125  17.673  0.00  0.00    +0.000 A 
ATOM      4  F   UNL     1      48.771   9.234  18.420  0.00  0.00    +0.000 F 
ATOM      5  C   UNL     1      48.526   6.894  18.288  0.00  0.00    +0.000 A 
ATOM      6  C   UNL     1      48.411   5.723  17.527  0.00  0.00    +0.000 A 
ATOM      7  C   UNL     1      48.588   5.828  16.131  0.00  0.00    +0.000 A 
ENDROOT
BRANCH   6   8
ATOM      8  C   UNL     1      48.093   4.358  18.137  0.00  0.00    +0.000 C 
ATOM      9  C   UNL     1      49.368   3.620  18.601  0.00  0.00    +0.000 C 
ATOM     10  C   UNL     1      50.147   3.029  17.427  0.00  0.00    +0.000 C 
ATOM     11  N   UNL     1      49.330   2.109  16.637  0.00  0.00    +0.000 NA
ATOM     12  C   UNL     1      48.119   2.755  16.136  0.00  0.00    +0.000 C 
ATOM     13  C   UNL     1      47.282   3.386  17.254  0.00  0.00    +0.000 C 
ATOM     14  H   UNL     1      49.070   1.309  17.213  0.00  0.00    +0.000 HD
ENDBRANCH   6   8
BRANCH   1  15
ATOM     15  C   UNL     1      48.886   7.244  14.012  0.00  0.00    +0.000 C 
BRANCH  15  16
ATOM     16  O   UNL     1      48.555   6.071  13.270  0.00  0.00    +0.000 OA
BRANCH  16  20
ATOM     17  C   UNL     1      44.581   5.665  12.068  0.00  0.00    +0.000 A 
ATOM     18  C   UNL     1      45.354   6.672  11.484  0.00  0.00    +0.000 A 
ATOM     19  C   UNL     1      46.685   6.836  11.867  0.00  0.00    +0.000 A 
ATOM     20  C   UNL     1      47.256   6.005  12.836  0.00  0.00    +0.000 A 
ATOM     21  C   UNL     1      46.471   5.015  13.436  0.00  0.00    +0.000 A 
ATOM     22  C   UNL     1      45.134   4.850  13.059  0.00  0.00    +0.000 A 
BRANCH  17  24
ATOM     23  N   UNL     1      42.373   6.565  11.597  0.00  0.00    +0.000 N 
ATOM     24  C   UNL     1      43.169   5.454  11.660  0.00  0.00    +0.000 C 
ATOM     25  O   UNL     1      42.742   4.348  11.357  0.00  0.00    +0.000 OA
ATOM     26  H   UNL     1      41.449   6.429  11.211  0.00  0.00    +0.000 HD
ATOM     27  H   UNL     1      42.754   7.501  11.579  0.00  0.00    +0.000 HD
ENDBRANCH  17  24
ENDBRANCH  16  20
ENDBRANCH  15  16
ENDBRANCH   1  15
TORSDOF 5
ENDMDL
