MODEL 1
REMARK VINA RESULT:    -8.160      0.000      0.000
REMARK INTER + INTRA:         -13.718
REMARK INTER:                 -12.453
REMARK INTRA:                  -1.266
REMARK UNBOUND:                -1.266
REMARK  Name = 
REMARK  11 active torsions:
REMARK  status: ('A' for Active; 'I' for Inactive)
REMARK    1  A    between atoms: C_1  and  C_2
REMARK    2  A    between atoms: C_2  and  C_3
REMARK    3  A    between atoms: C_2  and  O_4
REMARK    4  A    between atoms: O_4  and  C_5
REMARK    5  A    between atoms: C_7  and  C_8
REMARK    6  A    between atoms: C_8  and  C_9
REMARK    7  A    between atoms: C_9  and  O_10
REMARK    8  A    between atoms: O_10  and  C_11
REMARK    9  A    between atoms: C_14  and  C_15
REMARK   10  A    between atoms: C_23  and  N_24
REMARK   11  A    between atoms: N_24  and  C_25
REMARK                            x       y       z     vdW  Elec       q    Type
REMARK                         _______ _______ _______ _____ _____    ______ ____
ROOT
ATOM      1  C   UNL     1      46.872   5.096  13.902  0.00  0.00    +0.000 A 
ATOM      2  C   UNL     1      45.561   4.657  13.637  0.00  0.00    +0.000 A 
ATOM      3  C   UNL     1      44.725   5.325  12.732  0.00  0.00    +0.000 A 
ATOM      4  C   UNL     1      45.213   6.489  12.131  0.00  0.00    +0.000 A 
ATOM      5  C   UNL     1      46.505   6.936  12.386  0.00  0.00    +0.000 A 
ATOM      6  F   UNL     1      46.896   8.068  11.778  0.00  0.00    +0.000 F 
ATOM      7  C   UNL     1      47.367   6.260  13.260  0.00  0.00    +0.000 A 
ENDROOT
BRANCH   7   8
ATOM      8  N   UNL     1      48.724   6.643  13.389  0.00  0.00    +0.000 N 
ATOM      9  H   UNL     1      49.380   5.889  13.201  0.00  0.00    +0.000 HD
BRANCH   8  10
ATOM     10  C   UNL     1      49.231   7.831  14.022  0.00  0.00    +0.000 C 
ATOM     11  C   UNL     1      49.962   8.767  13.041  0.00  0.00    +0.000 C 
ATOM     12  N   UNL     1      51.106   8.851  13.966  0.00  0.00    +0.000 NA
ATOM     13  C   UNL     1      50.591   7.693  14.727  0.00  0.00    +0.000 C 
ATOM     14  H   UNL     1      51.126   9.716  14.506  0.00  0.00    +0.000 HD
ENDBRANCH   8  10
ENDBRANCH   7   8
BRANCH   1  15
ATOM     15  O   UNL     1      47.744   4.430  14.738  0.00  0.00    +0.000 OA
BRANCH  15  17
ATOM     16  C   UNL     1      47.793   3.052  16.706  0.00  0.00    +0.000 C 
ATOM     17  C   UNL     1      47.500   4.444  16.154  0.00  0.00    +0.000 C 
ATOM     18  C   UNL     1      48.401   5.478  16.827  0.00  0.00    +0.000 C 
ENDBRANCH  15  17
ENDBRANCH   1  15
BRANCH   3  19
ATOM     19  C   UNL     1      43.356   4.736  12.433  0.00  0.00    +0.000 C 
BRANCH  19  20
ATOM     20  C   UNL     1      43.347   3.849  11.195  0.00  0.00    +0.000 C 
BRANCH  20  21
ATOM     21  O   UNL     1      43.618   4.562   9.985  0.00  0.00    +0.000 OA
BRANCH  21  22
ATOM     22  C   UNL     1      44.573   3.870   9.253  0.00  0.00    +0.000 A 
ATOM     23  C   UNL     1      44.675   2.504   9.435  0.00  0.00    +0.000 A 
ATOM     24  C   UNL     1      45.617   1.809   8.669  0.00  0.00    +0.000 A 
ATOM     25  C   UNL     1      46.421   2.498   7.747  0.00  0.00    +0.000 A 
ATOM     26  C   UNL     1      46.249   3.866   7.658  0.00  0.00    +0.000 A 
ATOM     27  N   UNL     1      45.347   4.560   8.387  0.00  0.00    +0.000 NA
BRANCH  25  28
ATOM     28  C   UNL     1      47.408   1.756   6.929  0.00  0.00    +0.000 C 
ATOM     29  N   UNL     1      48.504   2.420   6.447  0.00  0.00    +0.000 N 
ATOM     30  O   UNL     1      47.261   0.564   6.687  0.00  0.00    +0.000 OA
ATOM     31  H   UNL     1      48.729   3.392   6.580  0.00  0.00    +0.000 HD
ATOM     32  H   UNL     1      49.145   1.877   5.882  0.00  0.00    +0.000 HD
ENDBRANCH  25  28
ENDBRANCH  21  22
ENDBRANCH  20  21
ENDBRANCH  19  20
ENDBRANCH   3  19
TORSDOF 9
ENDMDL
MODEL 2
REMARK VINA RESULT:    -7.522      1.815      3.144
REMARK INTER + INTRA:         -12.745
REMARK INTER:                 -11.566
REMARK INTRA:                  -1.179
REMARK UNBOUND:                -1.266
REMARK  Name = 
REMARK  11 active torsions:
REMARK  status: ('A' for Active; 'I' for Inactive)
REMARK    1  A    between atoms: C_1  and  C_2
REMARK    2  A    between atoms: C_2  and  C_3
REMARK    3  A    between atoms: C_2  and  O_4
REMARK    4  A    between atoms: O_4  and  C_5
REMARK    5  A    between atoms: C_7  and  C_8
REMARK    6  A    between atoms: C_8  and  C_9
REMARK    7  A    between atoms: C_9  and  O_10
REMARK    8  A    between atoms: O_10  and  C_11
REMARK    9  A    between atoms: C_14  and  C_15
REMARK   10  A    between atoms: C_23  and  N_24
REMARK   11  A    between atoms: N_24  and  C_25
REMARK                            x       y       z     vdW  Elec       q    Type
REMARK                         _______ _______ _______ _____ _____    ______ ____
ROOT
ATOM      1  C   UNL     1      46.962   7.130  13.212  0.00  0.00    +0.000 A 
ATOM      2  C   UNL     1      45.760   6.927  12.508  0.00  0.00    +0.000 A 
ATOM      3  C   UNL     1      45.058   5.716  12.576  0.00  0.00    +0.000 A 
ATOM      4  C   UNL     1      45.618   4.679  13.329  0.00  0.00    +0.000 A 
ATOM      5  C   UNL     1      46.806   4.865  14.026  0.00  0.00    +0.000 A 
ATOM      6  F   UNL     1      47.285   3.817  14.717  0.00  0.00    +0.000 F 
ATOM      7  C   UNL     1      47.502   6.080  13.998  0.00  0.00    +0.000 A 
ENDROOT
BRANCH   7   8
ATOM      8  N   UNL     1      48.625   6.299  14.833  0.00  0.00    +0.000 N 
ATOM      9  H   UNL     1      49.515   6.113  14.377  0.00  0.00    +0.000 HD
BRANCH   8  10
ATOM     10  C   UNL     1      48.622   6.448  16.264  0.00  0.00    +0.000 C 
ATOM     11  C   UNL     1      49.837   7.237  16.786  0.00  0.00    +0.000 C 
ATOM     12  N   UNL     1      50.100   6.182  17.781  0.00  0.00    +0.000 NA
ATOM     13  C   UNL     1      49.187   5.264  17.067  0.00  0.00    +0.000 C 
ATOM     14  H   UNL     1      49.783   6.423  18.720  0.00  0.00    +0.000 HD
ENDBRANCH   8  10
ENDBRANCH   7   8
BRANCH   1  15
ATOM     15  O   UNL     1      47.648   8.327  13.217  0.00  0.00    +0.000 OA
BRANCH  15  17
ATOM     16  C   UNL     1      48.784  10.205  12.239  0.00  0.00    +0.000 C 
ATOM     17  C   UNL     1      48.218   8.810  11.990  0.00  0.00    +0.000 C 
ATOM     18  C   UNL     1      49.326   7.867  11.525  0.00  0.00    +0.000 C 
ENDBRANCH  15  17
ENDBRANCH   1  15
BRANCH   3  19
ATOM     19  C   UNL     1      43.721   5.606  11.860  0.00  0.00    +0.000 C 
BRANCH  19  20
ATOM     20  C   UNL     1      43.620   4.371  10.975  0.00  0.00    +0.000 C 
BRANCH  20  21
ATOM     21  O   UNL     1      43.614   4.674   9.577  0.00  0.00    +0.000 OA
BRANCH  21  22
ATOM     22  C   UNL     1      44.644   3.980   8.957  0.00  0.00    +0.000 A 
ATOM     23  C   UNL     1      44.746   2.620   9.181  0.00  0.00    +0.000 A 
ATOM     24  C   UNL     1      45.767   1.923   8.526  0.00  0.00    +0.000 A 
ATOM     25  C   UNL     1      46.647   2.603   7.669  0.00  0.00    +0.000 A 
ATOM     26  C   UNL     1      46.466   3.966   7.531  0.00  0.00    +0.000 A 
ATOM     27  N   UNL     1      45.490   4.662   8.153  0.00  0.00    +0.000 NA
BRANCH  25  28
ATOM     28  C   UNL     1      47.718   1.858   6.967  0.00  0.00    +0.000 C 
ATOM     29  N   UNL     1      48.612   2.550   6.196  0.00  0.00    +0.000 N 
ATOM     30  O   UNL     1      47.818   0.642   7.075  0.00  0.00    +0.000 OA
ATOM     31  H   UNL     1      48.629   3.544   6.033  0.00  0.00    +0.000 HD
ATOM     32  H   UNL     1      49.319   2.000   5.725  0.00  0.00    +0.000 HD
ENDBRANCH  25  28
ENDBRANCH  21  22
ENDBRANCH  20  21
ENDBRANCH  19  20
ENDBRANCH   3  19
TORSDOF 9
ENDMDL
MODEL 3
REMARK VINA RESULT:    -7.434      1.827      3.227
REMARK INTER + INTRA:         -12.611
REMARK INTER:                 -11.497
REMARK INTRA:                  -1.114
REMARK UNBOUND:                -1.266
REMARK  Name = 
REMARK  11 active torsions:
REMARK  status: ('A' for Active; 'I' for Inactive)
REMARK    1  A    between atoms: C_1  and  C_2
REMARK    2  A    between atoms: C_2  and  C_3
REMARK    3  A    between atoms: C_2  and  O_4
REMARK    4  A    between atoms: O_4  and  C_5
REMARK    5  A    between atoms: C_7  and  C_8
REMARK    6  A    between atoms: C_8  and  C_9
REMARK    7  A    between atoms: C_9  and  O_10
REMARK    8  A    between atoms: O_10  and  C_11
REMARK    9  A    between atoms: C_14  and  C_15
REMARK   10  A    between atoms: C_23  and  N_24
REMARK   11  A    between atoms: N_24  and  C_25
REMARK                            x       y       z     vdW  Elec       q    Type
REMARK                         _______ _______ _______ _____ _____    ______ ____
ROOT
ATOM      1  C   UNL     1      46.063   7.434  12.235  0.00  0.00    +0.000 A 
ATOM      2  C   UNL     1      44.871   6.731  11.978  0.00  0.00    +0.000 A 
ATOM      3  C   UNL     1      44.580   5.513  12.607  0.00  0.00    +0.000 A 
ATOM      4  C   UNL     1      45.543   4.977  13.467  0.00  0.00    +0.000 A 
ATOM      5  C   UNL     1      46.727   5.659  13.727  0.00  0.00    +0.000 A 
ATOM      6  F   UNL     1      47.606   5.074  14.557  0.00  0.00    +0.000 F 
ATOM      7  C   UNL     1      47.017   6.895  13.135  0.00  0.00    +0.000 A 
ENDROOT
BRANCH   7   8
ATOM      8  N   UNL     1      48.153   7.645  13.528  0.00  0.00    +0.000 N 
ATOM      9  H   UNL     1      47.926   8.485  14.054  0.00  0.00    +0.000 HD
BRANCH   8  10
ATOM     10  C   UNL     1      49.494   7.511  13.024  0.00  0.00    +0.000 C 
ATOM     11  C   UNL     1      50.525   8.308  13.844  0.00  0.00    +0.000 C 
ATOM     12  N   UNL     1      51.061   8.899  12.605  0.00  0.00    +0.000 NA
ATOM     13  C   UNL     1      49.872   8.440  11.857  0.00  0.00    +0.000 C 
ATOM     14  H   UNL     1      51.931   8.465  12.295  0.00  0.00    +0.000 HD
ENDBRANCH   8  10
ENDBRANCH   7   8
BRANCH   1  15
ATOM     15  O   UNL     1      46.355   8.664  11.683  0.00  0.00    +0.000 OA
BRANCH  15  17
ATOM     16  C   UNL     1      46.473  11.038  12.040  0.00  0.00    +0.000 C 
ATOM     17  C   UNL     1      45.572   9.806  12.069  0.00  0.00    +0.000 C 
ATOM     18  C   UNL     1      44.402   9.985  11.104  0.00  0.00    +0.000 C 
ENDBRANCH  15  17
ENDBRANCH   1  15
BRANCH   3  19
ATOM     19  C   UNL     1      43.232   4.860  12.345  0.00  0.00    +0.000 C 
BRANCH  19  20
ATOM     20  C   UNL     1      43.253   3.907  11.158  0.00  0.00    +0.000 C 
BRANCH  20  21
ATOM     21  O   UNL     1      43.484   4.563   9.908  0.00  0.00    +0.000 OA
BRANCH  21  22
ATOM     22  C   UNL     1      44.467   3.876   9.209  0.00  0.00    +0.000 A 
ATOM     23  C   UNL     1      44.596   2.517   9.425  0.00  0.00    +0.000 A 
ATOM     24  C   UNL     1      45.568   1.826   8.692  0.00  0.00    +0.000 A 
ATOM     25  C   UNL     1      46.373   2.512   7.768  0.00  0.00    +0.000 A 
ATOM     26  C   UNL     1      46.171   3.873   7.644  0.00  0.00    +0.000 A 
ATOM     27  N   UNL     1      45.241   4.563   8.341  0.00  0.00    +0.000 NA
BRANCH  25  28
ATOM     28  C   UNL     1      47.391   1.775   6.985  0.00  0.00    +0.000 C 
ATOM     29  N   UNL     1      48.476   2.454   6.501  0.00  0.00    +0.000 N 
ATOM     30  O   UNL     1      47.278   0.573   6.774  0.00  0.00    +0.000 OA
ATOM     31  H   UNL     1      48.674   3.435   6.609  0.00  0.00    +0.000 HD
ATOM     32  H   UNL     1      49.139   1.912   5.960  0.00  0.00    +0.000 HD
ENDBRANCH  25  28
ENDBRANCH  21  22
ENDBRANCH  20  21
ENDBRANCH  19  20
ENDBRANCH   3  19
TORSDOF 9
ENDMDL
MODEL 4
REMARK VINA RESULT:    -6.217      3.672      8.095
REMARK INTER + INTRA:         -10.754
REMARK INTER:                  -9.038
REMARK INTRA:                  -1.715
REMARK UNBOUND:                -1.266
REMARK  Name = 
REMARK  11 active torsions:
REMARK  status: ('A' for Active; 'I' for Inactive)
REMARK    1  A    between atoms: C_1  and  C_2
REMARK    2  A    between atoms: C_2  and  C_3
REMARK    3  A    between atoms: C_2  and  O_4
REMARK    4  A    between atoms: O_4  and  C_5
REMARK    5  A    between atoms: C_7  and  C_8
REMARK    6  A    between atoms: C_8  and  C_9
REMARK    7  A    between atoms: C_9  and  O_10
REMARK    8  A    between atoms: O_10  and  C_11
REMARK    9  A    between atoms: C_14  and  C_15
REMARK   10  A    between atoms: C_23  and  N_24
REMARK   11  A    between atoms: N_24  and  C_25
REMARK                            x       y       z     vdW  Elec       q    Type
REMARK                         _______ _______ _______ _____ _____    ______ ____
ROOT
ATOM      1  C   UNL     1      46.905   4.919  14.082  0.00  0.00    +0.000 A 
ATOM      2  C   UNL     1      47.727   6.057  14.185  0.00  0.00    +0.000 A 
ATOM      3  C   UNL     1      47.815   7.002  13.154  0.00  0.00    +0.000 A 
ATOM      4  C   UNL     1      47.098   6.755  11.980  0.00  0.00    +0.000 A 
ATOM      5  C   UNL     1      46.285   5.633  11.863  0.00  0.00    +0.000 A 
ATOM      6  F   UNL     1      45.636   5.460  10.700  0.00  0.00    +0.000 F 
ATOM      7  C   UNL     1      46.157   4.697  12.898  0.00  0.00    +0.000 A 
ENDROOT
BRANCH   7   8
ATOM      8  N   UNL     1      45.210   3.646  12.820  0.00  0.00    +0.000 N 
ATOM      9  H   UNL     1      45.598   2.773  12.472  0.00  0.00    +0.000 HD
BRANCH   8  10
ATOM     10  C   UNL     1      43.778   3.767  12.886  0.00  0.00    +0.000 C 
ATOM     11  C   UNL     1      43.111   3.746  11.498  0.00  0.00    +0.000 C 
ATOM     12  N   UNL     1      42.346   4.957  11.842  0.00  0.00    +0.000 NA
ATOM     13  C   UNL     1      43.226   5.197  13.005  0.00  0.00    +0.000 C 
ATOM     14  H   UNL     1      41.377   4.764  12.098  0.00  0.00    +0.000 HD
ENDBRANCH   8  10
ENDBRANCH   7   8
BRANCH   1  15
ATOM     15  O   UNL     1      46.746   4.001  15.099  0.00  0.00    +0.000 OA
BRANCH  15  17
ATOM     16  C   UNL     1      46.943   4.363  17.467  0.00  0.00    +0.000 C 
ATOM     17  C   UNL     1      47.687   3.994  16.186  0.00  0.00    +0.000 C 
ATOM     18  C   UNL     1      48.314   2.608  16.323  0.00  0.00    +0.000 C 
ENDBRANCH  15  17
ENDBRANCH   1  15
BRANCH   3  19
ATOM     19  C   UNL     1      48.655   8.250  13.377  0.00  0.00    +0.000 C 
BRANCH  19  20
ATOM     20  C   UNL     1      48.766   8.637  14.846  0.00  0.00    +0.000 C 
BRANCH  20  21
ATOM     21  O   UNL     1      50.092   8.506  15.368  0.00  0.00    +0.000 OA
BRANCH  21  22
ATOM     22  C   UNL     1      50.079   7.600  16.419  0.00  0.00    +0.000 A 
ATOM     23  C   UNL     1      50.902   6.493  16.341  0.00  0.00    +0.000 A 
ATOM     24  C   UNL     1      50.908   5.602  17.420  0.00  0.00    +0.000 A 
ATOM     25  C   UNL     1      50.097   5.847  18.540  0.00  0.00    +0.000 A 
ATOM     26  C   UNL     1      49.299   6.975  18.506  0.00  0.00    +0.000 A 
ATOM     27  N   UNL     1      49.274   7.849  17.476  0.00  0.00    +0.000 NA
BRANCH  25  28
ATOM     28  C   UNL     1      50.115   4.909  19.685  0.00  0.00    +0.000 C 
ATOM     29  N   UNL     1      51.297   4.315  20.038  0.00  0.00    +0.000 N 
ATOM     30  O   UNL     1      49.096   4.666  20.321  0.00  0.00    +0.000 OA
ATOM     31  H   UNL     1      52.192   4.436  19.593  0.00  0.00    +0.000 HD
ATOM     32  H   UNL     1      51.260   3.671  20.818  0.00  0.00    +0.000 HD
ENDBRANCH  25  28
ENDBRANCH  21  22
ENDBRANCH  20  21
ENDBRANCH  19  20
ENDBRANCH   3  19
TORSDOF 9
ENDMDL
MODEL 5
REMARK VINA RESULT:    -6.108      2.420      3.601
REMARK INTER + INTRA:         -10.587
REMARK INTER:                  -9.522
REMARK INTRA:                  -1.066
REMARK UNBOUND:                -1.266
REMARK  Name = 
REMARK  11 active torsions:
REMARK  status: ('A' for Active; 'I' for Inactive)
REMARK    1  A    between atoms: C_1  and  C_2
REMARK    2  A    between atoms: C_2  and  C_3
REMARK    3  A    between atoms: C_2  and  O_4
REMARK    4  A    between atoms: O_4  and  C_5
REMARK    5  A    between atoms: C_7  and  C_8
REMARK    6  A    between atoms: C_8  and  C_9
REMARK    7  A    between atoms: C_9  and  O_10
REMARK    8  A    between atoms: O_10  and  C_11
REMARK    9  A    between atoms: C_14  and  C_15
REMARK   10  A    between atoms: C_23  and  N_24
REMARK   11  A    between atoms: N_24  and  C_25
REMARK                            x       y       z     vdW  Elec       q    Type
REMARK                         _______ _______ _______ _____ _____    ______ ____
ROOT
ATOM      1  C   UNL     1      48.035   6.389  14.415  0.00  0.00    +0.000 A 
ATOM      2  C   UNL     1      46.951   6.042  13.586  0.00  0.00    +0.000 A 
ATOM      3  C   UNL     1      46.142   4.929  13.853  0.00  0.00    +0.000 A 
ATOM      4  C   UNL     1      46.477   4.127  14.948  0.00  0.00    +0.000 A 
ATOM      5  C   UNL     1      47.547   4.456  15.773  0.00  0.00    +0.000 A 
ATOM      6  F   UNL     1      47.811   3.630  16.799  0.00  0.00    +0.000 F 
ATOM      7  C   UNL     1      48.344   5.585  15.542  0.00  0.00    +0.000 A 
ENDROOT
BRANCH   7   8
ATOM      8  N   UNL     1      49.330   5.988  16.476  0.00  0.00    +0.000 N 
ATOM      9  H   UNL     1      50.265   5.656  16.251  0.00  0.00    +0.000 HD
BRANCH   8  10
ATOM     10  C   UNL     1      49.106   6.521  17.793  0.00  0.00    +0.000 C 
ATOM     11  C   UNL     1      50.213   7.493  18.242  0.00  0.00    +0.000 C 
ATOM     12  N   UNL     1      50.340   6.766  19.518  0.00  0.00    +0.000 NA
ATOM     13  C   UNL     1      49.562   5.636  18.966  0.00  0.00    +0.000 C 
ATOM     14  H   UNL     1      49.879   7.236  20.297  0.00  0.00    +0.000 HD
ENDBRANCH   8  10
ENDBRANCH   7   8
BRANCH   1  15
ATOM     15  O   UNL     1      48.815   7.510  14.218  0.00  0.00    +0.000 OA
BRANCH  15  17
ATOM     16  C   UNL     1      49.122   9.582  15.397  0.00  0.00    +0.000 C 
ATOM     17  C   UNL     1      48.234   8.808  14.427  0.00  0.00    +0.000 C 
ATOM     18  C   UNL     1      48.134   9.552  13.096  0.00  0.00    +0.000 C 
ENDBRANCH  15  17
ENDBRANCH   1  15
BRANCH   3  19
ATOM     19  C   UNL     1      44.936   4.673  12.963  0.00  0.00    +0.000 C 
BRANCH  19  20
ATOM     20  C   UNL     1      45.145   3.515  11.996  0.00  0.00    +0.000 C 
BRANCH  20  21
ATOM     21  O   UNL     1      44.246   3.534  10.885  0.00  0.00    +0.000 OA
BRANCH  21  22
ATOM     22  C   UNL     1      44.960   3.303   9.718  0.00  0.00    +0.000 A 
ATOM     23  C   UNL     1      45.367   4.392   8.971  0.00  0.00    +0.000 A 
ATOM     24  C   UNL     1      46.115   4.151   7.814  0.00  0.00    +0.000 A 
ATOM     25  C   UNL     1      46.434   2.834   7.443  0.00  0.00    +0.000 A 
ATOM     26  C   UNL     1      45.961   1.819   8.251  0.00  0.00    +0.000 A 
ATOM     27  N   UNL     1      45.236   2.025   9.373  0.00  0.00    +0.000 NA
BRANCH  25  28
ATOM     28  C   UNL     1      47.237   2.584   6.223  0.00  0.00    +0.000 C 
ATOM     29  N   UNL     1      48.476   2.017   6.349  0.00  0.00    +0.000 N 
ATOM     30  O   UNL     1      46.806   2.870   5.112  0.00  0.00    +0.000 OA
ATOM     31  H   UNL     1      48.932   1.743   7.204  0.00  0.00    +0.000 HD
ATOM     32  H   UNL     1      48.995   1.876   5.491  0.00  0.00    +0.000 HD
ENDBRANCH  25  28
ENDBRANCH  21  22
ENDBRANCH  20  21
ENDBRANCH  19  20
ENDBRANCH   3  19
TORSDOF 9
ENDMDL
MODEL 6
REMARK VINA RESULT:    -5.998      2.515      3.672
REMARK INTER + INTRA:         -10.420
REMARK INTER:                  -9.504
REMARK INTRA:                  -0.916
REMARK UNBOUND:                -1.266
REMARK  Name = 
REMARK  11 active torsions:
REMARK  status: ('A' for Active; 'I' for Inactive)
REMARK    1  A    between atoms: C_1  and  C_2
REMARK    2  A    between atoms: C_2  and  C_3
REMARK    3  A    between atoms: C_2  and  O_4
REMARK    4  A    between atoms: O_4  and  C_5
REMARK    5  A    between atoms: C_7  and  C_8
REMARK    6  A    between atoms: C_8  and  C_9
REMARK    7  A    between atoms: C_9  and  O_10
REMARK    8  A    between atoms: O_10  and  C_11
REMARK    9  A    between atoms: C_14  and  C_15
REMARK   10  A    between atoms: C_23  and  N_24
REMARK   11  A    between atoms: N_24  and  C_25
REMARK                            x       y       z     vdW  Elec       q    Type
REMARK                         _______ _______ _______ _____ _____    ______ ____
ROOT
ATOM      1  C   UNL     1      46.908   8.181  13.187  0.00  0.00    +0.000 A 
ATOM      2  C   UNL     1      46.177   7.154  12.560  0.00  0.00    +0.000 A 
ATOM      3  C   UNL     1      46.366   5.805  12.888  0.00  0.00    +0.000 A 
ATOM      4  C   UNL     1      47.352   5.494  13.829  0.00  0.00    +0.000 A 
ATOM      5  C   UNL     1      48.084   6.498  14.454  0.00  0.00    +0.000 A 
ATOM      6  F   UNL     1      49.020   6.119  15.339  0.00  0.00    +0.000 F 
ATOM      7  C   UNL     1      47.883   7.854  14.164  0.00  0.00    +0.000 A 
ENDROOT
BRANCH   7   8
ATOM      8  N   UNL     1      48.527   8.866  14.918  0.00  0.00    +0.000 N 
ATOM      9  H   UNL     1      49.485   9.044  14.628  0.00  0.00    +0.000 HD
BRANCH   8  10
ATOM     10  C   UNL     1      48.094   9.415  16.176  0.00  0.00    +0.000 C 
ATOM     11  C   UNL     1      49.006  10.548  16.681  0.00  0.00    +0.000 C 
ATOM     12  N   UNL     1      49.092   9.897  18.000  0.00  0.00    +0.000 NA
ATOM     13  C   UNL     1      48.537   8.649  17.434  0.00  0.00    +0.000 C 
ATOM     14  H   UNL     1      48.492  10.328  18.703  0.00  0.00    +0.000 HD
ENDBRANCH   8  10
ENDBRANCH   7   8
BRANCH   1  15
ATOM     15  O   UNL     1      46.707   9.522  12.935  0.00  0.00    +0.000 OA
BRANCH  15  17
ATOM     16  C   UNL     1      44.591  10.119  11.964  0.00  0.00    +0.000 C 
ATOM     17  C   UNL     1      46.080   9.913  11.702  0.00  0.00    +0.000 C 
ATOM     18  C   UNL     1      46.708  11.208  11.188  0.00  0.00    +0.000 C 
ENDBRANCH  15  17
ENDBRANCH   1  15
BRANCH   3  19
ATOM     19  C   UNL     1      45.474   4.763  12.232  0.00  0.00    +0.000 C 
BRANCH  19  20
ATOM     20  C   UNL     1      44.448   5.370  11.284  0.00  0.00    +0.000 C 
BRANCH  20  21
ATOM     21  O   UNL     1      43.776   4.398  10.478  0.00  0.00    +0.000 OA
BRANCH  21  22
ATOM     22  C   UNL     1      44.659   3.906   9.528  0.00  0.00    +0.000 A 
ATOM     23  C   UNL     1      44.820   2.537   9.430  0.00  0.00    +0.000 A 
ATOM     24  C   UNL     1      45.688   2.048   8.447  0.00  0.00    +0.000 A 
ATOM     25  C   UNL     1      46.360   2.939   7.595  0.00  0.00    +0.000 A 
ATOM     26  C   UNL     1      46.140   4.289   7.792  0.00  0.00    +0.000 A 
ATOM     27  N   UNL     1      45.309   4.786   8.734  0.00  0.00    +0.000 NA
BRANCH  25  28
ATOM     28  C   UNL     1      47.268   2.416   6.547  0.00  0.00    +0.000 C 
ATOM     29  N   UNL     1      48.227   1.504   6.894  0.00  0.00    +0.000 N 
ATOM     30  O   UNL     1      47.166   2.782   5.382  0.00  0.00    +0.000 OA
ATOM     31  H   UNL     1      48.405   1.133   7.813  0.00  0.00    +0.000 HD
ATOM     32  H   UNL     1      48.833   1.185   6.149  0.00  0.00    +0.000 HD
ENDBRANCH  25  28
ENDBRANCH  21  22
ENDBRANCH  20  21
ENDBRANCH  19  20
ENDBRANCH   3  19
TORSDOF 9
ENDMDL
MODEL 7
REMARK VINA RESULT:    -5.798      3.054      4.942
REMARK INTER + INTRA:         -10.115
REMARK INTER:                  -8.360
REMARK INTRA:                  -1.755
REMARK UNBOUND:                -1.266
REMARK  Name = 
REMARK  11 active torsions:
REMARK  status: ('A' for Active; 'I' for Inactive)
REMARK    1  A    between atoms: C_1  and  C_2
REMARK    2  A    between atoms: C_2  and  C_3
REMARK    3  A    between atoms: C_2  and  O_4
REMARK    4  A    between atoms: O_4  and  C_5
REMARK    5  A    between atoms: C_7  and  C_8
REMARK    6  A    between atoms: C_8  and  C_9
REMARK    7  A    between atoms: C_9  and  O_10
REMARK    8  A    between atoms: O_10  and  C_11
REMARK    9  A    between atoms: C_14  and  C_15
REMARK   10  A    between atoms: C_23  and  N_24
REMARK   11  A    between atoms: N_24  and  C_25
REMARK                            x       y       z     vdW  Elec       q    Type
REMARK                         _______ _______ _______ _____ _____    ______ ____
ROOT
ATOM      1  C   UNL     1      48.973   6.049  16.199  0.00  0.00    +0.000 A 
ATOM      2  C   UNL     1      48.653   6.261  14.845  0.00  0.00    +0.000 A 
ATOM      3  C   UNL     1      48.539   7.549  14.303  0.00  0.00    +0.000 A 
ATOM      4  C   UNL     1      48.700   8.636  15.168  0.00  0.00    +0.000 A 
ATOM      5  C   UNL     1      49.014   8.441  16.509  0.00  0.00    +0.000 A 
ATOM      6  F   UNL     1      49.142   9.536  17.277  0.00  0.00    +0.000 F 
ATOM      7  C   UNL     1      49.166   7.161  17.058  0.00  0.00    +0.000 A 
ENDROOT
BRANCH   7   8
ATOM      8  N   UNL     1      49.634   6.986  18.383  0.00  0.00    +0.000 N 
ATOM      9  H   UNL     1      50.587   6.636  18.437  0.00  0.00    +0.000 HD
BRANCH   8  10
ATOM     10  C   UNL     1      48.840   6.957  19.583  0.00  0.00    +0.000 C 
ATOM     11  C   UNL     1      48.668   5.537  20.154  0.00  0.00    +0.000 C 
ATOM     12  N   UNL     1      47.213   5.747  20.250  0.00  0.00    +0.000 NA
ATOM     13  C   UNL     1      47.315   6.940  19.383  0.00  0.00    +0.000 C 
ATOM     14  H   UNL     1      46.897   5.958  21.197  0.00  0.00    +0.000 HD
ENDBRANCH   8  10
ENDBRANCH   7   8
BRANCH   1  15
ATOM     15  O   UNL     1      49.153   4.798  16.752  0.00  0.00    +0.000 OA
BRANCH  15  17
ATOM     16  C   UNL     1      48.923   2.407  16.672  0.00  0.00    +0.000 C 
ATOM     17  C   UNL     1      48.238   3.745  16.407  0.00  0.00    +0.000 C 
ATOM     18  C   UNL     1      46.969   3.863  17.250  0.00  0.00    +0.000 C 
ENDBRANCH  15  17
ENDBRANCH   1  15
BRANCH   3  19
ATOM     19  C   UNL     1      48.280   7.694  12.813  0.00  0.00    +0.000 C 
BRANCH  19  20
ATOM     20  C   UNL     1      46.949   8.365  12.503  0.00  0.00    +0.000 C 
BRANCH  20  21
ATOM     21  O   UNL     1      45.843   7.779  13.196  0.00  0.00    +0.000 OA
BRANCH  21  22
ATOM     22  C   UNL     1      45.506   6.581  12.583  0.00  0.00    +0.000 A 
ATOM     23  C   UNL     1      45.434   5.443  13.364  0.00  0.00    +0.000 A 
ATOM     24  C   UNL     1      45.062   4.245  12.744  0.00  0.00    +0.000 A 
ATOM     25  C   UNL     1      44.770   4.223  11.370  0.00  0.00    +0.000 A 
ATOM     26  C   UNL     1      44.891   5.415  10.681  0.00  0.00    +0.000 A 
ATOM     27  N   UNL     1      45.250   6.584  11.256  0.00  0.00    +0.000 NA
BRANCH  25  28
ATOM     28  C   UNL     1      44.364   2.956  10.721  0.00  0.00    +0.000 C 
ATOM     29  N   UNL     1      43.505   2.118  11.380  0.00  0.00    +0.000 N 
ATOM     30  O   UNL     1      44.777   2.655   9.607  0.00  0.00    +0.000 OA
ATOM     31  H   UNL     1      43.103   2.258  12.292  0.00  0.00    +0.000 HD
ATOM     32  H   UNL     1      43.265   1.257  10.904  0.00  0.00    +0.000 HD
ENDBRANCH  25  28
ENDBRANCH  21  22
ENDBRANCH  20  21
ENDBRANCH  19  20
ENDBRANCH   3  19
TORSDOF 9
ENDMDL
MODEL 8
REMARK VINA RESULT:    -5.581      3.392      7.857
REMARK INTER + INTRA:          -9.784
REMARK INTER:                  -9.237
REMARK INTRA:                  -0.547
REMARK UNBOUND:                -1.266
REMARK  Name = 
REMARK  11 active torsions:
REMARK  status: ('A' for Active; 'I' for Inactive)
REMARK    1  A    between atoms: C_1  and  C_2
REMARK    2  A    between atoms: C_2  and  C_3
REMARK    3  A    between atoms: C_2  and  O_4
REMARK    4  A    between atoms: O_4  and  C_5
REMARK    5  A    between atoms: C_7  and  C_8
REMARK    6  A    between atoms: C_8  and  C_9
REMARK    7  A    between atoms: C_9  and  O_10
REMARK    8  A    between atoms: O_10  and  C_11
REMARK    9  A    between atoms: C_14  and  C_15
REMARK   10  A    between atoms: C_23  and  N_24
REMARK   11  A    between atoms: N_24  and  C_25
REMARK                            x       y       z     vdW  Elec       q    Type
REMARK                         _______ _______ _______ _____ _____    ______ ____
ROOT
ATOM      1  C   UNL     1      45.245   6.599  11.513  0.00  0.00    +0.000 A 
ATOM      2  C   UNL     1      46.314   6.068  12.259  0.00  0.00    +0.000 A 
ATOM      3  C   UNL     1      47.039   6.846  13.171  0.00  0.00    +0.000 A 
ATOM      4  C   UNL     1      46.705   8.199  13.284  0.00  0.00    +0.000 A 
ATOM      5  C   UNL     1      45.654   8.738  12.551  0.00  0.00    +0.000 A 
ATOM      6  F   UNL     1      45.402  10.048  12.707  0.00  0.00    +0.000 F 
ATOM      7  C   UNL     1      44.896   7.966  11.661  0.00  0.00    +0.000 A 
ENDROOT
BRANCH   7   8
ATOM      8  N   UNL     1      43.737   8.493  11.040  0.00  0.00    +0.000 N 
ATOM      9  H   UNL     1      43.233   7.815  10.474  0.00  0.00    +0.000 HD
BRANCH   8  10
ATOM     10  C   UNL     1      43.394   9.883  10.888  0.00  0.00    +0.000 C 
ATOM     11  C   UNL     1      41.885  10.107  10.679  0.00  0.00    +0.000 C 
ATOM     12  N   UNL     1      42.170  10.960   9.511  0.00  0.00    +0.000 NA
ATOM     13  C   UNL     1      43.563  10.468   9.476  0.00  0.00    +0.000 C 
ATOM     14  H   UNL     1      42.094  11.958   9.712  0.00  0.00    +0.000 HD
ENDBRANCH   8  10
ENDBRANCH   7   8
BRANCH   1  15
ATOM     15  O   UNL     1      44.470   5.850  10.652  0.00  0.00    +0.000 OA
BRANCH  15  17
ATOM     16  C   UNL     1      43.110   4.088  11.558  0.00  0.00    +0.000 C 
ATOM     17  C   UNL     1      44.409   4.425  10.831  0.00  0.00    +0.000 C 
ATOM     18  C   UNL     1      44.448   3.728   9.472  0.00  0.00    +0.000 C 
ENDBRANCH  15  17
ENDBRANCH   1  15
BRANCH   3  19
ATOM     19  C   UNL     1      48.120   6.175  14.005  0.00  0.00    +0.000 C 
BRANCH  19  20
ATOM     20  C   UNL     1      48.680   7.082  15.092  0.00  0.00    +0.000 C 
BRANCH  20  21
ATOM     21  O   UNL     1      48.332   6.663  16.415  0.00  0.00    +0.000 OA
BRANCH  21  22
ATOM     22  C   UNL     1      49.106   5.565  16.762  0.00  0.00    +0.000 A 
ATOM     23  C   UNL     1      48.472   4.352  16.955  0.00  0.00    +0.000 A 
ATOM     24  C   UNL     1      49.263   3.242  17.272  0.00  0.00    +0.000 A 
ATOM     25  C   UNL     1      50.657   3.379  17.382  0.00  0.00    +0.000 A 
ATOM     26  C   UNL     1      51.184   4.641  17.187  0.00  0.00    +0.000 A 
ATOM     27  N   UNL     1      50.442   5.728  16.881  0.00  0.00    +0.000 NA
BRANCH  25  28
ATOM     28  C   UNL     1      51.491   2.199  17.705  0.00  0.00    +0.000 C 
ATOM     29  N   UNL     1      52.493   2.327  18.629  0.00  0.00    +0.000 N 
ATOM     30  O   UNL     1      51.293   1.117  17.165  0.00  0.00    +0.000 OA
ATOM     31  H   UNL     1      52.748   3.160  19.134  0.00  0.00    +0.000 HD
ATOM     32  H   UNL     1      53.046   1.498  18.809  0.00  0.00    +0.000 HD
ENDBRANCH  25  28
ENDBRANCH  21  22
ENDBRANCH  20  21
ENDBRANCH  19  20
ENDBRANCH   3  19
TORSDOF 9
ENDMDL
MODEL 9
REMARK VINA RESULT:    -5.569      3.929      6.598
REMARK INTER + INTRA:          -9.765
REMARK INTER:                  -8.230
REMARK INTRA:                  -1.535
REMARK UNBOUND:                -1.266
REMARK  Name = 
REMARK  11 active torsions:
REMARK  status: ('A' for Active; 'I' for Inactive)
REMARK    1  A    between atoms: C_1  and  C_2
REMARK    2  A    between atoms: C_2  and  C_3
REMARK    3  A    between atoms: C_2  and  O_4
REMARK    4  A    between atoms: O_4  and  C_5
REMARK    5  A    between atoms: C_7  and  C_8
REMARK    6  A    between atoms: C_8  and  C_9
REMARK    7  A    between atoms: C_9  and  O_10
REMARK    8  A    between atoms: O_10  and  C_11
REMARK    9  A    between atoms: C_14  and  C_15
REMARK   10  A    between atoms: C_23  and  N_24
REMARK   11  A    between atoms: N_24  and  C_25
REMARK                            x       y       z     vdW  Elec       q    Type
REMARK                         _______ _______ _______ _____ _____    ______ ____
ROOT
ATOM      1  C   UNL     1      49.544   6.829  17.659  0.00  0.00    +0.000 A 
ATOM      2  C   UNL     1      49.212   5.613  17.032  0.00  0.00    +0.000 A 
ATOM      3  C   UNL     1      49.040   4.428  17.760  0.00  0.00    +0.000 A 
ATOM      4  C   UNL     1      49.262   4.472  19.140  0.00  0.00    +0.000 A 
ATOM      5  C   UNL     1      49.594   5.665  19.772  0.00  0.00    +0.000 A 
ATOM      6  F   UNL     1      49.802   5.623  21.098  0.00  0.00    +0.000 F 
ATOM      7  C   UNL     1      49.735   6.866  19.064  0.00  0.00    +0.000 A 
ENDROOT
BRANCH   7   8
ATOM      8  N   UNL     1      49.922   8.096  19.742  0.00  0.00    +0.000 N 
ATOM      9  H   UNL     1      50.888   8.275  20.003  0.00  0.00    +0.000 HD
BRANCH   8  10
ATOM     10  C   UNL     1      48.902   8.919  20.336  0.00  0.00    +0.000 C 
ATOM     11  C   UNL     1      48.725   8.659  21.843  0.00  0.00    +0.000 C 
ATOM     12  N   UNL     1      47.269   8.528  21.654  0.00  0.00    +0.000 NA
ATOM     13  C   UNL     1      47.457   8.411  20.193  0.00  0.00    +0.000 C 
ATOM     14  H   UNL     1      46.749   9.361  21.933  0.00  0.00    +0.000 HD
ENDBRANCH   8  10
ENDBRANCH   7   8
BRANCH   1  15
ATOM     15  O   UNL     1      49.662   8.026  16.984  0.00  0.00    +0.000 OA
BRANCH  15  17
ATOM     16  C   UNL     1      48.464  10.108  16.894  0.00  0.00    +0.000 C 
ATOM     17  C   UNL     1      48.479   8.647  16.453  0.00  0.00    +0.000 C 
ATOM     18  C   UNL     1      48.485   8.556  14.928  0.00  0.00    +0.000 C 
ENDBRANCH  15  17
ENDBRANCH   1  15
BRANCH   3  19
ATOM     19  C   UNL     1      48.593   3.177  17.021  0.00  0.00    +0.000 C 
BRANCH  19  20
ATOM     20  C   UNL     1      47.423   3.428  16.079  0.00  0.00    +0.000 C 
BRANCH  20  21
ATOM     21  O   UNL     1      47.719   3.121  14.713  0.00  0.00    +0.000 OA
BRANCH  21  22
ATOM     22  C   UNL     1      46.846   3.819  13.891  0.00  0.00    +0.000 A 
ATOM     23  C   UNL     1      46.915   5.199  13.884  0.00  0.00    +0.000 A 
ATOM     24  C   UNL     1      46.053   5.894  13.027  0.00  0.00    +0.000 A 
ATOM     25  C   UNL     1      45.157   5.190  12.206  0.00  0.00    +0.000 A 
ATOM     26  C   UNL     1      45.159   3.812  12.307  0.00  0.00    +0.000 A 
ATOM     27  N   UNL     1      45.980   3.118  13.127  0.00  0.00    +0.000 NA
BRANCH  25  28
ATOM     28  C   UNL     1      44.256   5.928  11.292  0.00  0.00    +0.000 C 
ATOM     29  N   UNL     1      44.483   7.259  11.067  0.00  0.00    +0.000 N 
ATOM     30  O   UNL     1      43.322   5.365  10.733  0.00  0.00    +0.000 OA
ATOM     31  H   UNL     1      45.214   7.824  11.468  0.00  0.00    +0.000 HD
ATOM     32  H   UNL     1      43.835   7.726  10.446  0.00  0.00    +0.000 HD
ENDBRANCH  25  28
ENDBRANCH  21  22
ENDBRANCH  20  21
ENDBRANCH  19  20
ENDBRANCH   3  19
TORSDOF 9
ENDMDL
