MODEL 1
REMARK VINA RESULT:    -8.367      0.000      0.000
REMARK INTER + INTRA:         -12.853
REMARK INTER:                 -11.791
REMARK INTRA:                  -1.062
REMARK UNBOUND:                -1.062
REMARK  Name = 
REMARK  8 active torsions:
REMARK  status: ('A' for Active; 'I' for Inactive)
REMARK    1  A    between atoms: C_1  and  C_2
REMARK    2  A    between atoms: C_2  and  N_3
REMARK    3  A    between atoms: C_2  and  C_11
REMARK    4  A    between atoms: N_3  and  C_4
REMARK    5  A    between atoms: C_4  and  C_5
REMARK    6  A    between atoms: C_14  and  C_15
REMARK    7  A    between atoms: C_15  and  N_16
REMARK    8  A    between atoms: C_17  and  C_19
REMARK                            x       y       z     vdW  Elec       q    Type
REMARK                         _______ _______ _______ _____ _____    ______ ____
ROOT
ATOM      1  C   UNL     1      45.441   4.584  12.017  0.00  0.00    +0.000 A 
ATOM      2  C   UNL     1      45.902   5.800  11.479  0.00  0.00    +0.000 A 
ATOM      3  C   UNL     1      46.864   6.566  12.137  0.00  0.00    +0.000 A 
ATOM      4  C   UNL     1      47.426   6.118  13.336  0.00  0.00    +0.000 A 
ATOM      5  C   UNL     1      46.942   4.934  13.905  0.00  0.00    +0.000 A 
ATOM      6  C   UNL     1      45.958   4.179  13.256  0.00  0.00    +0.000 A 
ENDROOT
BRANCH   1   8
ATOM      7  C   UNL     1      43.589   4.667  10.273  0.00  0.00    +0.000 C 
ATOM      8  C   UNL     1      44.392   3.786  11.246  0.00  0.00    +0.000 C 
BRANCH   8   9
ATOM      9  N   UNL     1      44.953   2.641  10.501  0.00  0.00    +0.000 NA
ATOM     10  H   UNL     1      44.566   1.778  10.878  0.00  0.00    +0.000 HD
BRANCH   9  11
ATOM     11  C   UNL     1      44.657   2.706   9.066  0.00  0.00    +0.000 C 
BRANCH  11  12
ATOM     12  C   UNL     1      45.806   2.308   8.172  0.00  0.00    +0.000 A 
ATOM     13  C   UNL     1      46.526   3.308   7.505  0.00  0.00    +0.000 A 
ATOM     14  C   UNL     1      47.615   2.951   6.726  0.00  0.00    +0.000 A 
ATOM     15  N   UNL     1      48.035   1.678   6.574  0.00  0.00    +0.000 NA
ATOM     16  C   UNL     1      47.341   0.730   7.236  0.00  0.00    +0.000 A 
ATOM     17  C   UNL     1      46.242   0.994   8.042  0.00  0.00    +0.000 A 
ENDBRANCH  11  12
ENDBRANCH   9  11
ENDBRANCH   8   9
ENDBRANCH   1   8
BRANCH   4  18
ATOM     18  C   UNL     1      48.538   6.896  13.990  0.00  0.00    +0.000 C 
BRANCH  18  19
ATOM     19  N   UNL     1      48.307   7.058  15.401  0.00  0.00    +0.000 N 
ATOM     20  C   UNL     1      49.227   6.644  16.330  0.00  0.00    +0.000 C 
ATOM     21  O   UNL     1      50.314   6.166  16.014  0.00  0.00    +0.000 OA
ATOM     22  H   UNL     1      47.344   7.193  15.692  0.00  0.00    +0.000 HD
BRANCH  20  23
ATOM     23  C   UNL     1      48.876   6.871  17.736  0.00  0.00    +0.000 A 
ATOM     24  C   UNL     1      48.635   8.161  18.186  0.00  0.00    +0.000 A 
ATOM     25  S   UNL     1      48.215   8.241  19.837  0.00  0.00    +0.000 S 
ATOM     26  C   UNL     1      48.390   6.557  20.016  0.00  0.00    +0.000 A 
ATOM     27  N   UNL     1      48.205   5.962  21.226  0.00  0.00    +0.000 NA
ATOM     28  C   UNL     1      48.400   4.685  21.224  0.00  0.00    +0.000 A 
ATOM     29  N   UNL     1      48.750   3.947  20.124  0.00  0.00    +0.000 N 
ATOM     30  C   UNL     1      48.903   4.500  18.873  0.00  0.00    +0.000 A 
ATOM     31  O   UNL     1      49.144   3.804  17.891  0.00  0.00    +0.000 OA
ATOM     32  C   UNL     1      48.729   5.940  18.828  0.00  0.00    +0.000 A 
ATOM     33  H   UNL     1      48.862   2.947  20.188  0.00  0.00    +0.000 HD
ENDBRANCH  20  23
ENDBRANCH  18  19
ENDBRANCH   4  18
TORSDOF 7
ENDMDL
MODEL 2
REMARK VINA RESULT:    -8.351      1.435      2.170
REMARK INTER + INTRA:         -12.830
REMARK INTER:                 -11.697
REMARK INTRA:                  -1.134
REMARK UNBOUND:                -1.062
REMARK  Name = 
REMARK  8 active torsions:
REMARK  status: ('A' for Active; 'I' for Inactive)
REMARK    1  A    between atoms: C_1  and  C_2
REMARK    2  A    between atoms: C_2  and  N_3
REMARK    3  A    between atoms: C_2  and  C_11
REMARK    4  A    between atoms: N_3  and  C_4
REMARK    5  A    between atoms: C_4  and  C_5
REMARK    6  A    between atoms: C_14  and  C_15
REMARK    7  A    between atoms: C_15  and  N_16
REMARK    8  A    between atoms: C_17  and  C_19
REMARK                            x       y       z     vdW  Elec       q    Type
REMARK                         _______ _______ _______ _____ _____    ______ ____
ROOT
ATOM      1  C   UNL     1      45.708   5.199  11.667  0.00  0.00    +0.000 A 
ATOM      2  C   UNL     1      46.379   6.390  11.331  0.00  0.00    +0.000 A 
ATOM      3  C   UNL     1      47.297   6.976  12.203  0.00  0.00    +0.000 A 
ATOM      4  C   UNL     1      47.603   6.365  13.423  0.00  0.00    +0.000 A 
ATOM      5  C   UNL     1      46.908   5.207  13.789  0.00  0.00    +0.000 A 
ATOM      6  C   UNL     1      45.968   4.633  12.924  0.00  0.00    +0.000 A 
ENDROOT
BRANCH   1   8
ATOM      7  C   UNL     1      43.275   5.060  10.932  0.00  0.00    +0.000 C 
ATOM      8  C   UNL     1      44.720   4.602  10.668  0.00  0.00    +0.000 C 
BRANCH   8   9
ATOM      9  N   UNL     1      45.062   4.887   9.260  0.00  0.00    +0.000 NA
ATOM     10  H   UNL     1      46.066   5.039   9.186  0.00  0.00    +0.000 HD
BRANCH   9  11
ATOM     11  C   UNL     1      44.682   3.794   8.358  0.00  0.00    +0.000 C 
BRANCH  11  12
ATOM     12  C   UNL     1      45.838   2.962   7.862  0.00  0.00    +0.000 A 
ATOM     13  C   UNL     1      45.901   1.608   8.214  0.00  0.00    +0.000 A 
ATOM     14  C   UNL     1      46.932   0.826   7.717  0.00  0.00    +0.000 A 
ATOM     15  N   UNL     1      47.891   1.298   6.895  0.00  0.00    +0.000 NA
ATOM     16  C   UNL     1      47.807   2.600   6.552  0.00  0.00    +0.000 A 
ATOM     17  C   UNL     1      46.809   3.456   6.997  0.00  0.00    +0.000 A 
ENDBRANCH  11  12
ENDBRANCH   9  11
ENDBRANCH   8   9
ENDBRANCH   1   8
BRANCH   4  18
ATOM     18  C   UNL     1      48.669   6.946  14.315  0.00  0.00    +0.000 C 
BRANCH  18  19
ATOM     19  N   UNL     1      48.423   6.637  15.698  0.00  0.00    +0.000 N 
ATOM     20  C   UNL     1      49.431   6.220  16.530  0.00  0.00    +0.000 C 
ATOM     21  O   UNL     1      50.600   6.139  16.160  0.00  0.00    +0.000 OA
ATOM     22  H   UNL     1      47.462   6.438  15.956  0.00  0.00    +0.000 HD
BRANCH  20  23
ATOM     23  C   UNL     1      49.053   5.943  17.919  0.00  0.00    +0.000 A 
ATOM     24  C   UNL     1      49.231   4.669  18.440  0.00  0.00    +0.000 A 
ATOM     25  S   UNL     1      48.763   4.528  20.075  0.00  0.00    +0.000 S 
ATOM     26  C   UNL     1      48.262   6.154  20.125  0.00  0.00    +0.000 A 
ATOM     27  N   UNL     1      47.714   6.680  21.254  0.00  0.00    +0.000 NA
ATOM     28  C   UNL     1      47.350   7.915  21.142  0.00  0.00    +0.000 A 
ATOM     29  N   UNL     1      47.495   8.675  20.011  0.00  0.00    +0.000 N 
ATOM     30  C   UNL     1      48.085   8.198  18.862  0.00  0.00    +0.000 A 
ATOM     31  O   UNL     1      48.269   8.924  17.890  0.00  0.00    +0.000 OA
ATOM     32  C   UNL     1      48.479   6.804  18.925  0.00  0.00    +0.000 A 
ATOM     33  H   UNL     1      47.212   9.643  20.000  0.00  0.00    +0.000 HD
ENDBRANCH  20  23
ENDBRANCH  18  19
ENDBRANCH   4  18
TORSDOF 7
ENDMDL
MODEL 3
REMARK VINA RESULT:    -7.872      1.879      2.635
REMARK INTER + INTRA:         -12.155
REMARK INTER:                 -11.235
REMARK INTRA:                  -0.920
REMARK UNBOUND:                -1.062
REMARK  Name = 
REMARK  8 active torsions:
REMARK  status: ('A' for Active; 'I' for Inactive)
REMARK    1  A    between atoms: C_1  and  C_2
REMARK    2  A    between atoms: C_2  and  N_3
REMARK    3  A    between atoms: C_2  and  C_11
REMARK    4  A    between atoms: N_3  and  C_4
REMARK    5  A    between atoms: C_4  and  C_5
REMARK    6  A    between atoms: C_14  and  C_15
REMARK    7  A    between atoms: C_15  and  N_16
REMARK    8  A    between atoms: C_17  and  C_19
REMARK                            x       y       z     vdW  Elec       q    Type
REMARK                         _______ _______ _______ _____ _____    ______ ____
ROOT
ATOM      1  C   UNL     1      44.872   4.702  11.432  0.00  0.00    +0.000 A 
ATOM      2  C   UNL     1      44.017   5.809  11.279  0.00  0.00    +0.000 A 
ATOM      3  C   UNL     1      44.375   7.072  11.753  0.00  0.00    +0.000 A 
ATOM      4  C   UNL     1      45.618   7.275  12.359  0.00  0.00    +0.000 A 
ATOM      5  C   UNL     1      46.457   6.172  12.559  0.00  0.00    +0.000 A 
ATOM      6  C   UNL     1      46.086   4.900  12.106  0.00  0.00    +0.000 A 
ENDROOT
BRANCH   1   8
ATOM      7  C   UNL     1      43.256   2.752  11.684  0.00  0.00    +0.000 C 
ATOM      8  C   UNL     1      44.429   3.347  10.886  0.00  0.00    +0.000 C 
BRANCH   8   9
ATOM      9  N   UNL     1      44.066   3.379   9.455  0.00  0.00    +0.000 NA
ATOM     10  H   UNL     1      43.192   3.890   9.346  0.00  0.00    +0.000 HD
BRANCH   9  11
ATOM     11  C   UNL     1      45.095   4.019   8.630  0.00  0.00    +0.000 C 
BRANCH  11  12
ATOM     12  C   UNL     1      46.041   3.058   7.953  0.00  0.00    +0.000 A 
ATOM     13  C   UNL     1      46.031   1.711   8.339  0.00  0.00    +0.000 A 
ATOM     14  C   UNL     1      46.859   0.813   7.683  0.00  0.00    +0.000 A 
ATOM     15  N   UNL     1      47.685   1.164   6.676  0.00  0.00    +0.000 NA
ATOM     16  C   UNL     1      47.670   2.461   6.306  0.00  0.00    +0.000 A 
ATOM     17  C   UNL     1      46.871   3.428   6.901  0.00  0.00    +0.000 A 
ENDBRANCH  11  12
ENDBRANCH   9  11
ENDBRANCH   8   9
ENDBRANCH   1   8
BRANCH   4  18
ATOM     18  C   UNL     1      46.042   8.659  12.775  0.00  0.00    +0.000 C 
BRANCH  18  19
ATOM     19  N   UNL     1      46.672   8.649  14.069  0.00  0.00    +0.000 N 
ATOM     20  C   UNL     1      47.984   9.017  14.231  0.00  0.00    +0.000 C 
ATOM     21  O   UNL     1      48.674   9.423  13.299  0.00  0.00    +0.000 OA
ATOM     22  H   UNL     1      46.231   8.082  14.785  0.00  0.00    +0.000 HD
BRANCH  20  23
ATOM     23  C   UNL     1      48.506   8.969  15.600  0.00  0.00    +0.000 A 
ATOM     24  C   UNL     1      48.685  10.148  16.309  0.00  0.00    +0.000 A 
ATOM     25  S   UNL     1      49.275   9.910  17.893  0.00  0.00    +0.000 S 
ATOM     26  C   UNL     1      49.354   8.225  17.664  0.00  0.00    +0.000 A 
ATOM     27  N   UNL     1      49.823   7.410  18.648  0.00  0.00    +0.000 NA
ATOM     28  C   UNL     1      49.859   6.158  18.328  0.00  0.00    +0.000 A 
ATOM     29  N   UNL     1      49.457   5.646  17.122  0.00  0.00    +0.000 N 
ATOM     30  C   UNL     1      48.934   6.427  16.117  0.00  0.00    +0.000 A 
ATOM     31  O   UNL     1      48.514   5.932  15.075  0.00  0.00    +0.000 OA
ATOM     32  C   UNL     1      48.907   7.847  16.413  0.00  0.00    +0.000 A 
ATOM     33  H   UNL     1      49.487   4.653  16.948  0.00  0.00    +0.000 HD
ENDBRANCH  20  23
ENDBRANCH  18  19
ENDBRANCH   4  18
TORSDOF 7
ENDMDL
MODEL 4
REMARK VINA RESULT:    -7.554      3.429      8.853
REMARK INTER + INTRA:         -11.707
REMARK INTER:                  -9.867
REMARK INTRA:                  -1.840
REMARK UNBOUND:                -1.062
REMARK  Name = 
REMARK  8 active torsions:
REMARK  status: ('A' for Active; 'I' for Inactive)
REMARK    1  A    between atoms: C_1  and  C_2
REMARK    2  A    between atoms: C_2  and  N_3
REMARK    3  A    between atoms: C_2  and  C_11
REMARK    4  A    between atoms: N_3  and  C_4
REMARK    5  A    between atoms: C_4  and  C_5
REMARK    6  A    between atoms: C_14  and  C_15
REMARK    7  A    between atoms: C_15  and  N_16
REMARK    8  A    between atoms: C_17  and  C_19
REMARK                            x       y       z     vdW  Elec       q    Type
REMARK                         _______ _______ _______ _____ _____    ______ ____
ROOT
ATOM      1  C   UNL     1      49.244   7.990  15.942  0.00  0.00    +0.000 A 
ATOM      2  C   UNL     1      48.094   8.699  15.545  0.00  0.00    +0.000 A 
ATOM      3  C   UNL     1      47.649   8.675  14.223  0.00  0.00    +0.000 A 
ATOM      4  C   UNL     1      48.318   7.908  13.264  0.00  0.00    +0.000 A 
ATOM      5  C   UNL     1      49.489   7.237  13.637  0.00  0.00    +0.000 A 
ATOM      6  C   UNL     1      49.949   7.282  14.959  0.00  0.00    +0.000 A 
ENDROOT
BRANCH   1   8
ATOM      7  C   UNL     1      48.531   8.481  18.335  0.00  0.00    +0.000 C 
ATOM      8  C   UNL     1      49.677   8.048  17.405  0.00  0.00    +0.000 C 
BRANCH   8   9
ATOM      9  N   UNL     1      50.243   6.778  17.902  0.00  0.00    +0.000 NA
ATOM     10  H   UNL     1      50.867   6.976  18.682  0.00  0.00    +0.000 HD
BRANCH   9  11
ATOM     11  C   UNL     1      49.208   5.841  18.350  0.00  0.00    +0.000 C 
BRANCH  11  12
ATOM     12  C   UNL     1      49.140   4.560  17.555  0.00  0.00    +0.000 A 
ATOM     13  C   UNL     1      50.140   3.595  17.733  0.00  0.00    +0.000 A 
ATOM     14  C   UNL     1      50.053   2.395  17.046  0.00  0.00    +0.000 A 
ATOM     15  N   UNL     1      49.042   2.092  16.206  0.00  0.00    +0.000 NA
ATOM     16  C   UNL     1      48.079   3.025  16.058  0.00  0.00    +0.000 A 
ATOM     17  C   UNL     1      48.081   4.251  16.709  0.00  0.00    +0.000 A 
ENDBRANCH  11  12
ENDBRANCH   9  11
ENDBRANCH   8   9
ENDBRANCH   1   8
BRANCH   4  18
ATOM     18  C   UNL     1      47.775   7.803  11.863  0.00  0.00    +0.000 C 
BRANCH  18  19
ATOM     19  N   UNL     1      47.021   6.592  11.680  0.00  0.00    +0.000 N 
ATOM     20  C   UNL     1      45.657   6.567  11.827  0.00  0.00    +0.000 C 
ATOM     21  O   UNL     1      45.002   7.579  12.066  0.00  0.00    +0.000 OA
ATOM     22  H   UNL     1      47.536   5.720  11.748  0.00  0.00    +0.000 HD
BRANCH  20  23
ATOM     23  C   UNL     1      45.005   5.272  11.608  0.00  0.00    +0.000 A 
ATOM     24  C   UNL     1      44.297   4.676  12.641  0.00  0.00    +0.000 A 
ATOM     25  S   UNL     1      43.581   3.188  12.208  0.00  0.00    +0.000 S 
ATOM     26  C   UNL     1      44.236   3.271  10.640  0.00  0.00    +0.000 A 
ATOM     27  N   UNL     1      44.030   2.267   9.744  0.00  0.00    +0.000 NA
ATOM     28  C   UNL     1      44.610   2.445   8.604  0.00  0.00    +0.000 A 
ATOM     29  N   UNL     1      45.365   3.539   8.272  0.00  0.00    +0.000 N 
ATOM     30  C   UNL     1      45.562   4.598   9.129  0.00  0.00    +0.000 A 
ATOM     31  O   UNL     1      46.182   5.598   8.778  0.00  0.00    +0.000 OA
ATOM     32  C   UNL     1      44.960   4.430  10.437  0.00  0.00    +0.000 A 
ATOM     33  H   UNL     1      45.770   3.627   7.352  0.00  0.00    +0.000 HD
ENDBRANCH  20  23
ENDBRANCH  18  19
ENDBRANCH   4  18
TORSDOF 7
ENDMDL
MODEL 5
REMARK VINA RESULT:    -7.495      2.477      3.166
REMARK INTER + INTRA:         -11.624
REMARK INTER:                 -10.745
REMARK INTRA:                  -0.879
REMARK UNBOUND:                -1.062
REMARK  Name = 
REMARK  8 active torsions:
REMARK  status: ('A' for Active; 'I' for Inactive)
REMARK    1  A    between atoms: C_1  and  C_2
REMARK    2  A    between atoms: C_2  and  N_3
REMARK    3  A    between atoms: C_2  and  C_11
REMARK    4  A    between atoms: N_3  and  C_4
REMARK    5  A    between atoms: C_4  and  C_5
REMARK    6  A    between atoms: C_14  and  C_15
REMARK    7  A    between atoms: C_15  and  N_16
REMARK    8  A    between atoms: C_17  and  C_19
REMARK                            x       y       z     vdW  Elec       q    Type
REMARK                         _______ _______ _______ _____ _____    ______ ____
ROOT
ATOM      1  C   UNL     1      45.535   5.015  11.930  0.00  0.00    +0.000 A 
ATOM      2  C   UNL     1      46.102   6.303  11.938  0.00  0.00    +0.000 A 
ATOM      3  C   UNL     1      47.002   6.692  12.931  0.00  0.00    +0.000 A 
ATOM      4  C   UNL     1      47.395   5.789  13.924  0.00  0.00    +0.000 A 
ATOM      5  C   UNL     1      46.801   4.522  13.952  0.00  0.00    +0.000 A 
ATOM      6  C   UNL     1      45.878   4.141  12.971  0.00  0.00    +0.000 A 
ENDROOT
BRANCH   1   8
ATOM      7  C   UNL     1      43.225   5.398  10.932  0.00  0.00    +0.000 C 
ATOM      8  C   UNL     1      44.561   4.645  10.813  0.00  0.00    +0.000 C 
BRANCH   8   9
ATOM      9  N   UNL     1      45.111   4.857   9.459  0.00  0.00    +0.000 NA
ATOM     10  H   UNL     1      46.128   4.872   9.512  0.00  0.00    +0.000 HD
BRANCH   9  11
ATOM     11  C   UNL     1      44.701   3.811   8.517  0.00  0.00    +0.000 C 
BRANCH  11  12
ATOM     12  C   UNL     1      45.838   2.987   7.964  0.00  0.00    +0.000 A 
ATOM     13  C   UNL     1      45.909   1.625   8.285  0.00  0.00    +0.000 A 
ATOM     14  C   UNL     1      46.920   0.853   7.736  0.00  0.00    +0.000 A 
ATOM     15  N   UNL     1      47.853   1.341   6.893  0.00  0.00    +0.000 NA
ATOM     16  C   UNL     1      47.761   2.650   6.582  0.00  0.00    +0.000 A 
ATOM     17  C   UNL     1      46.780   3.498   7.078  0.00  0.00    +0.000 A 
ENDBRANCH  11  12
ENDBRANCH   9  11
ENDBRANCH   8   9
ENDBRANCH   1   8
BRANCH   4  18
ATOM     18  C   UNL     1      48.444   6.179  14.932  0.00  0.00    +0.000 C 
BRANCH  18  19
ATOM     19  N   UNL     1      48.213   7.502  15.447  0.00  0.00    +0.000 N 
ATOM     20  C   UNL     1      49.035   8.057  16.394  0.00  0.00    +0.000 C 
ATOM     21  O   UNL     1      50.038   7.483  16.813  0.00  0.00    +0.000 OA
ATOM     22  H   UNL     1      47.278   7.879  15.329  0.00  0.00    +0.000 HD
BRANCH  20  23
ATOM     23  C   UNL     1      48.696   9.414  16.833  0.00  0.00    +0.000 A 
ATOM     24  C   UNL     1      49.156  10.506  16.112  0.00  0.00    +0.000 A 
ATOM     25  S   UNL     1      48.648  12.006  16.746  0.00  0.00    +0.000 S 
ATOM     26  C   UNL     1      47.835  11.245  18.033  0.00  0.00    +0.000 A 
ATOM     27  N   UNL     1      47.200  11.979  18.988  0.00  0.00    +0.000 NA
ATOM     28  C   UNL     1      46.653  11.274  19.922  0.00  0.00    +0.000 A 
ATOM     29  N   UNL     1      46.670   9.905  19.983  0.00  0.00    +0.000 N 
ATOM     30  C   UNL     1      47.260   9.122  19.016  0.00  0.00    +0.000 A 
ATOM     31  O   UNL     1      47.195   7.897  19.058  0.00  0.00    +0.000 OA
ATOM     32  C   UNL     1      47.921   9.868  17.963  0.00  0.00    +0.000 A 
ATOM     33  H   UNL     1      46.199   9.416  20.729  0.00  0.00    +0.000 HD
ENDBRANCH  20  23
ENDBRANCH  18  19
ENDBRANCH   4  18
TORSDOF 7
ENDMDL
MODEL 6
REMARK VINA RESULT:    -7.437      1.944      3.199
REMARK INTER + INTRA:         -11.543
REMARK INTER:                 -10.261
REMARK INTRA:                  -1.282
REMARK UNBOUND:                -1.062
REMARK  Name = 
REMARK  8 active torsions:
REMARK  status: ('A' for Active; 'I' for Inactive)
REMARK    1  A    between atoms: C_1  and  C_2
REMARK    2  A    between atoms: C_2  and  N_3
REMARK    3  A    between atoms: C_2  and  C_11
REMARK    4  A    between atoms: N_3  and  C_4
REMARK    5  A    between atoms: C_4  and  C_5
REMARK    6  A    between atoms: C_14  and  C_15
REMARK    7  A    between atoms: C_15  and  N_16
REMARK    8  A    between atoms: C_17  and  C_19
REMARK                            x       y       z     vdW  Elec       q    Type
REMARK                         _______ _______ _______ _____ _____    ______ ____
ROOT
ATOM      1  C   UNL     1      45.104   4.540  11.861  0.00  0.00    +0.000 A 
ATOM      2  C   UNL     1      45.372   5.650  12.684  0.00  0.00    +0.000 A 
ATOM      3  C   UNL     1      46.142   5.524  13.841  0.00  0.00    +0.000 A 
ATOM      4  C   UNL     1      46.703   4.291  14.188  0.00  0.00    +0.000 A 
ATOM      5  C   UNL     1      46.404   3.172  13.403  0.00  0.00    +0.000 A 
ATOM      6  C   UNL     1      45.609   3.294  12.256  0.00  0.00    +0.000 A 
ENDROOT
BRANCH   1   8
ATOM      7  C   UNL     1      43.339   5.969  10.711  0.00  0.00    +0.000 C 
ATOM      8  C   UNL     1      44.261   4.742  10.603  0.00  0.00    +0.000 C 
BRANCH   8   9
ATOM      9  N   UNL     1      45.063   4.853   9.368  0.00  0.00    +0.000 NA
ATOM     10  H   UNL     1      46.041   4.676   9.591  0.00  0.00    +0.000 HD
BRANCH   9  11
ATOM     11  C   UNL     1      44.634   3.905   8.334  0.00  0.00    +0.000 C 
BRANCH  11  12
ATOM     12  C   UNL     1      45.722   2.983   7.842  0.00  0.00    +0.000 A 
ATOM     13  C   UNL     1      46.749   3.508   7.047  0.00  0.00    +0.000 A 
ATOM     14  C   UNL     1      47.780   2.677   6.637  0.00  0.00    +0.000 A 
ATOM     15  N   UNL     1      47.857   1.372   6.968  0.00  0.00    +0.000 NA
ATOM     16  C   UNL     1      46.869   0.886   7.748  0.00  0.00    +0.000 A 
ATOM     17  C   UNL     1      45.802   1.645   8.209  0.00  0.00    +0.000 A 
ENDBRANCH  11  12
ENDBRANCH   9  11
ENDBRANCH   8   9
ENDBRANCH   1   8
BRANCH   4  18
ATOM     18  C   UNL     1      47.617   4.183  15.380  0.00  0.00    +0.000 C 
BRANCH  18  19
ATOM     19  N   UNL     1      47.828   5.463  16.000  0.00  0.00    +0.000 N 
ATOM     20  C   UNL     1      48.972   5.740  16.704  0.00  0.00    +0.000 C 
ATOM     21  O   UNL     1      49.898   4.937  16.798  0.00  0.00    +0.000 OA
ATOM     22  H   UNL     1      47.002   6.029  16.167  0.00  0.00    +0.000 HD
BRANCH  20  23
ATOM     23  C   UNL     1      49.069   7.083  17.284  0.00  0.00    +0.000 A 
ATOM     24  C   UNL     1      49.289   7.231  18.645  0.00  0.00    +0.000 A 
ATOM     25  S   UNL     1      49.400   8.858  19.147  0.00  0.00    +0.000 S 
ATOM     26  C   UNL     1      49.108   9.418  17.566  0.00  0.00    +0.000 A 
ATOM     27  N   UNL     1      49.035  10.751  17.301  0.00  0.00    +0.000 NA
ATOM     28  C   UNL     1      48.778  11.034  16.067  0.00  0.00    +0.000 A 
ATOM     29  N   UNL     1      48.600  10.109  15.072  0.00  0.00    +0.000 N 
ATOM     30  C   UNL     1      48.710   8.753  15.285  0.00  0.00    +0.000 A 
ATOM     31  O   UNL     1      48.618   7.951  14.360  0.00  0.00    +0.000 OA
ATOM     32  C   UNL     1      48.963   8.382  16.664  0.00  0.00    +0.000 A 
ATOM     33  H   UNL     1      48.426  10.400  14.122  0.00  0.00    +0.000 HD
ENDBRANCH  20  23
ENDBRANCH  18  19
ENDBRANCH   4  18
TORSDOF 7
ENDMDL
MODEL 7
REMARK VINA RESULT:    -7.360      2.143      2.700
REMARK INTER + INTRA:         -11.434
REMARK INTER:                 -10.303
REMARK INTRA:                  -1.131
REMARK UNBOUND:                -1.062
REMARK  Name = 
REMARK  8 active torsions:
REMARK  status: ('A' for Active; 'I' for Inactive)
REMARK    1  A    between atoms: C_1  and  C_2
REMARK    2  A    between atoms: C_2  and  N_3
REMARK    3  A    between atoms: C_2  and  C_11
REMARK    4  A    between atoms: N_3  and  C_4
REMARK    5  A    between atoms: C_4  and  C_5
REMARK    6  A    between atoms: C_14  and  C_15
REMARK    7  A    between atoms: C_15  and  N_16
REMARK    8  A    between atoms: C_17  and  C_19
REMARK                            x       y       z     vdW  Elec       q    Type
REMARK                         _______ _______ _______ _____ _____    ______ ____
ROOT
ATOM      1  C   UNL     1      45.349   4.673  11.858  0.00  0.00    +0.000 A 
ATOM      2  C   UNL     1      45.878   4.523  13.153  0.00  0.00    +0.000 A 
ATOM      3  C   UNL     1      46.762   5.460  13.689  0.00  0.00    +0.000 A 
ATOM      4  C   UNL     1      47.113   6.599  12.958  0.00  0.00    +0.000 A 
ATOM      5  C   UNL     1      46.631   6.735  11.651  0.00  0.00    +0.000 A 
ATOM      6  C   UNL     1      45.764   5.781  11.105  0.00  0.00    +0.000 A 
ENDROOT
BRANCH   1   8
ATOM      7  C   UNL     1      42.966   3.780  11.913  0.00  0.00    +0.000 C 
ATOM      8  C   UNL     1      44.380   3.617  11.330  0.00  0.00    +0.000 C 
BRANCH   8   9
ATOM      9  N   UNL     1      44.289   3.586   9.856  0.00  0.00    +0.000 NA
ATOM     10  H   UNL     1      44.926   4.280   9.469  0.00  0.00    +0.000 HD
BRANCH   9  11
ATOM     11  C   UNL     1      44.625   2.272   9.301  0.00  0.00    +0.000 C 
BRANCH  11  12
ATOM     12  C   UNL     1      45.686   2.300   8.227  0.00  0.00    +0.000 A 
ATOM     13  C   UNL     1      45.887   3.481   7.502  0.00  0.00    +0.000 A 
ATOM     14  C   UNL     1      46.896   3.529   6.553  0.00  0.00    +0.000 A 
ATOM     15  N   UNL     1      47.713   2.490   6.285  0.00  0.00    +0.000 NA
ATOM     16  C   UNL     1      47.517   1.366   7.004  0.00  0.00    +0.000 A 
ATOM     17  C   UNL     1      46.537   1.229   7.977  0.00  0.00    +0.000 A 
ENDBRANCH  11  12
ENDBRANCH   9  11
ENDBRANCH   8   9
ENDBRANCH   1   8
BRANCH   4  18
ATOM     18  C   UNL     1      47.985   7.659  13.579  0.00  0.00    +0.000 C 
BRANCH  18  19
ATOM     19  N   UNL     1      49.052   7.078  14.348  0.00  0.00    +0.000 N 
ATOM     20  C   UNL     1      50.055   7.849  14.880  0.00  0.00    +0.000 C 
ATOM     21  O   UNL     1      50.069   9.074  14.778  0.00  0.00    +0.000 OA
ATOM     22  H   UNL     1      49.213   6.084  14.225  0.00  0.00    +0.000 HD
BRANCH  20  23
ATOM     23  C   UNL     1      51.082   7.138  15.648  0.00  0.00    +0.000 A 
ATOM     24  C   UNL     1      52.420   7.450  15.461  0.00  0.00    +0.000 A 
ATOM     25  S   UNL     1      53.476   6.547  16.451  0.00  0.00    +0.000 S 
ATOM     26  C   UNL     1      52.180   5.676  17.127  0.00  0.00    +0.000 A 
ATOM     27  N   UNL     1      52.403   4.694  18.043  0.00  0.00    +0.000 NA
ATOM     28  C   UNL     1      51.333   4.093  18.448  0.00  0.00    +0.000 A 
ATOM     29  N   UNL     1      50.062   4.393  18.033  0.00  0.00    +0.000 N 
ATOM     30  C   UNL     1      49.786   5.407  17.144  0.00  0.00    +0.000 A 
ATOM     31  O   UNL     1      48.632   5.701  16.848  0.00  0.00    +0.000 OA
ATOM     32  C   UNL     1      50.959   6.089  16.631  0.00  0.00    +0.000 A 
ATOM     33  H   UNL     1      49.267   3.900  18.410  0.00  0.00    +0.000 HD
ENDBRANCH  20  23
ENDBRANCH  18  19
ENDBRANCH   4  18
TORSDOF 7
ENDMDL
MODEL 8
REMARK VINA RESULT:    -7.100      4.277      5.263
REMARK INTER + INTRA:         -11.067
REMARK INTER:                  -9.676
REMARK INTRA:                  -1.392
REMARK UNBOUND:                -1.062
REMARK  Name = 
REMARK  8 active torsions:
REMARK  status: ('A' for Active; 'I' for Inactive)
REMARK    1  A    between atoms: C_1  and  C_2
REMARK    2  A    between atoms: C_2  and  N_3
REMARK    3  A    between atoms: C_2  and  C_11
REMARK    4  A    between atoms: N_3  and  C_4
REMARK    5  A    between atoms: C_4  and  C_5
REMARK    6  A    between atoms: C_14  and  C_15
REMARK    7  A    between atoms: C_15  and  N_16
REMARK    8  A    between atoms: C_17  and  C_19
REMARK                            x       y       z     vdW  Elec       q    Type
REMARK                         _______ _______ _______ _____ _____    ______ ____
ROOT
ATOM      1  C   UNL     1      45.350   4.347  11.793  0.00  0.00    +0.000 A 
ATOM      2  C   UNL     1      45.974   4.298  13.053  0.00  0.00    +0.000 A 
ATOM      3  C   UNL     1      46.712   5.377  13.539  0.00  0.00    +0.000 A 
ATOM      4  C   UNL     1      46.814   6.557  12.795  0.00  0.00    +0.000 A 
ATOM      5  C   UNL     1      46.238   6.600  11.520  0.00  0.00    +0.000 A 
ATOM      6  C   UNL     1      45.519   5.506  11.023  0.00  0.00    +0.000 A 
ENDROOT
BRANCH   1   8
ATOM      7  C   UNL     1      43.265   2.928  12.141  0.00  0.00    +0.000 C 
ATOM      8  C   UNL     1      44.549   3.136  11.318  0.00  0.00    +0.000 C 
BRANCH   8   9
ATOM      9  N   UNL     1      44.195   3.188   9.885  0.00  0.00    +0.000 NA
ATOM     10  H   UNL     1      44.641   4.001   9.463  0.00  0.00    +0.000 HD
BRANCH   9  11
ATOM     11  C   UNL     1      44.617   1.986   9.160  0.00  0.00    +0.000 C 
BRANCH  11  12
ATOM     12  C   UNL     1      45.765   2.203   8.204  0.00  0.00    +0.000 A 
ATOM     13  C   UNL     1      46.021   3.498   7.734  0.00  0.00    +0.000 A 
ATOM     14  C   UNL     1      47.106   3.712   6.899  0.00  0.00    +0.000 A 
ATOM     15  N   UNL     1      47.948   2.733   6.510  0.00  0.00    +0.000 NA
ATOM     16  C   UNL     1      47.697   1.496   6.985  0.00  0.00    +0.000 A 
ATOM     17  C   UNL     1      46.638   1.189   7.828  0.00  0.00    +0.000 A 
ENDBRANCH  11  12
ENDBRANCH   9  11
ENDBRANCH   8   9
ENDBRANCH   1   8
BRANCH   4  18
ATOM     18  C   UNL     1      47.525   7.755  13.368  0.00  0.00    +0.000 C 
BRANCH  18  19
ATOM     19  N   UNL     1      48.938   7.705  13.103  0.00  0.00    +0.000 N 
ATOM     20  C   UNL     1      49.501   8.425  12.080  0.00  0.00    +0.000 C 
ATOM     21  O   UNL     1      48.847   9.189  11.373  0.00  0.00    +0.000 OA
ATOM     22  H   UNL     1      49.443   6.909  13.476  0.00  0.00    +0.000 HD
BRANCH  20  23
ATOM     23  C   UNL     1      50.952   8.293  11.917  0.00  0.00    +0.000 A 
ATOM     24  C   UNL     1      51.475   7.901  10.693  0.00  0.00    +0.000 A 
ATOM     25  S   UNL     1      53.179   7.823  10.671  0.00  0.00    +0.000 S 
ATOM     26  C   UNL     1      53.271   8.267  12.311  0.00  0.00    +0.000 A 
ATOM     27  N   UNL     1      54.474   8.351  12.943  0.00  0.00    +0.000 NA
ATOM     28  C   UNL     1      54.395   8.667  14.194  0.00  0.00    +0.000 A 
ATOM     29  N   UNL     1      53.227   8.917  14.866  0.00  0.00    +0.000 N 
ATOM     30  C   UNL     1      51.994   8.888  14.256  0.00  0.00    +0.000 A 
ATOM     31  O   UNL     1      50.972   9.189  14.866  0.00  0.00    +0.000 OA
ATOM     32  C   UNL     1      52.025   8.503  12.858  0.00  0.00    +0.000 A 
ATOM     33  H   UNL     1      53.240   9.184  15.839  0.00  0.00    +0.000 HD
ENDBRANCH  20  23
ENDBRANCH  18  19
ENDBRANCH   4  18
TORSDOF 7
ENDMDL
MODEL 9
REMARK VINA RESULT:    -7.045      3.724      8.670
REMARK INTER + INTRA:         -10.990
REMARK INTER:                  -8.997
REMARK INTRA:                  -1.994
REMARK UNBOUND:                -1.062
REMARK  Name = 
REMARK  8 active torsions:
REMARK  status: ('A' for Active; 'I' for Inactive)
REMARK    1  A    between atoms: C_1  and  C_2
REMARK    2  A    between atoms: C_2  and  N_3
REMARK    3  A    between atoms: C_2  and  C_11
REMARK    4  A    between atoms: N_3  and  C_4
REMARK    5  A    between atoms: C_4  and  C_5
REMARK    6  A    between atoms: C_14  and  C_15
REMARK    7  A    between atoms: C_15  and  N_16
REMARK    8  A    between atoms: C_17  and  C_19
REMARK                            x       y       z     vdW  Elec       q    Type
REMARK                         _______ _______ _______ _____ _____    ______ ____
ROOT
ATOM      1  C   UNL     1      49.713   7.299  18.433  0.00  0.00    +0.000 A 
ATOM      2  C   UNL     1      48.632   8.182  18.247  0.00  0.00    +0.000 A 
ATOM      3  C   UNL     1      48.242   8.592  16.972  0.00  0.00    +0.000 A 
ATOM      4  C   UNL     1      48.897   8.098  15.839  0.00  0.00    +0.000 A 
ATOM      5  C   UNL     1      50.003   7.258  16.014  0.00  0.00    +0.000 A 
ATOM      6  C   UNL     1      50.409   6.867  17.295  0.00  0.00    +0.000 A 
ENDROOT
BRANCH   1   8
ATOM      7  C   UNL     1      49.109   7.439  20.902  0.00  0.00    +0.000 C 
ATOM      8  C   UNL     1      50.087   6.881  19.853  0.00  0.00    +0.000 C 
BRANCH   8   9
ATOM      9  N   UNL     1      50.192   5.418  20.028  0.00  0.00    +0.000 NA
ATOM     10  H   UNL     1      50.625   5.221  20.928  0.00  0.00    +0.000 HD
BRANCH   9  11
ATOM     11  C   UNL     1      48.886   4.752  19.975  0.00  0.00    +0.000 C 
BRANCH  11  12
ATOM     12  C   UNL     1      48.516   4.211  18.615  0.00  0.00    +0.000 A 
ATOM     13  C   UNL     1      49.281   3.174  18.066  0.00  0.00    +0.000 A 
ATOM     14  C   UNL     1      48.913   2.637  16.842  0.00  0.00    +0.000 A 
ATOM     15  N   UNL     1      47.840   3.056  16.140  0.00  0.00    +0.000 NA
ATOM     16  C   UNL     1      47.105   4.043  16.692  0.00  0.00    +0.000 A 
ATOM     17  C   UNL     1      47.395   4.636  17.912  0.00  0.00    +0.000 A 
ENDBRANCH  11  12
ENDBRANCH   9  11
ENDBRANCH   8   9
ENDBRANCH   1   8
BRANCH   4  18
ATOM     18  C   UNL     1      48.408   8.462  14.462  0.00  0.00    +0.000 C 
BRANCH  18  19
ATOM     19  N   UNL     1      47.380   7.562  14.013  0.00  0.00    +0.000 N 
ATOM     20  C   UNL     1      47.675   6.461  13.249  0.00  0.00    +0.000 C 
ATOM     21  O   UNL     1      48.827   6.153  12.953  0.00  0.00    +0.000 OA
ATOM     22  H   UNL     1      46.431   7.920  14.008  0.00  0.00    +0.000 HD
BRANCH  20  23
ATOM     23  C   UNL     1      46.539   5.618  12.861  0.00  0.00    +0.000 A 
ATOM     24  C   UNL     1      46.614   4.243  13.027  0.00  0.00    +0.000 A 
ATOM     25  S   UNL     1      45.198   3.420  12.548  0.00  0.00    +0.000 S 
ATOM     26  C   UNL     1      44.457   4.872  12.059  0.00  0.00    +0.000 A 
ATOM     27  N   UNL     1      43.213   4.868  11.508  0.00  0.00    +0.000 NA
ATOM     28  C   UNL     1      42.786   6.035  11.154  0.00  0.00    +0.000 A 
ATOM     29  N   UNL     1      43.482   7.205  11.312  0.00  0.00    +0.000 N 
ATOM     30  C   UNL     1      44.722   7.261  11.905  0.00  0.00    +0.000 A 
ATOM     31  O   UNL     1      45.290   8.332  12.099  0.00  0.00    +0.000 OA
ATOM     32  C   UNL     1      45.263   5.970  12.288  0.00  0.00    +0.000 A 
ATOM     33  H   UNL     1      43.077   8.086  11.035  0.00  0.00    +0.000 HD
ENDBRANCH  20  23
ENDBRANCH  18  19
ENDBRANCH   4  18
TORSDOF 7
ENDMDL
