MODEL 1
REMARK VINA RESULT:    -8.641      0.000      0.000
REMARK INTER + INTRA:         -13.143
REMARK INTER:                 -12.430
REMARK INTRA:                  -0.713
REMARK UNBOUND:                -0.713
REMARK  Name = 
REMARK  9 active torsions:
REMARK  status: ('A' for Active; 'I' for Inactive)
REMARK    1  A    between atoms: C_1  and  N_2
REMARK    2  A    between atoms: C_4  and  C_5
REMARK    3  A    between atoms: N_7  and  C_8
REMARK    4  A    between atoms: C_8  and  C_9
REMARK    5  A    between atoms: C_12  and  O_13
REMARK    6  A    between atoms: O_13  and  C_14
REMARK    7  A    between atoms: C_14  and  C_15
REMARK    8  A    between atoms: C_15  and  O_16
REMARK    9  A    between atoms: C_15  and  C_17
REMARK                            x       y       z     vdW  Elec       q    Type
REMARK                         _______ _______ _______ _____ _____    ______ ____
ROOT
ATOM      1  C   UNL     1      46.249   7.171  12.857  0.00  0.00    +0.000 A 
ATOM      2  C   UNL     1      46.376   5.790  12.905  0.00  0.00    +0.000 A 
ATOM      3  C   UNL     1      45.487   4.992  12.205  0.00  0.00    +0.000 A 
ATOM      4  C   UNL     1      44.466   5.533  11.416  0.00  0.00    +0.000 A 
ATOM      5  C   UNL     1      44.312   6.921  11.386  0.00  0.00    +0.000 A 
ATOM      6  C   UNL     1      45.206   7.735  12.106  0.00  0.00    +0.000 A 
ENDROOT
BRANCH   1   7
ATOM      7  C   UNL     1      47.253   8.029  13.569  0.00  0.00    +0.000 C 
BRANCH   7  10
ATOM      8  C   UNL     1      48.939   6.866  14.920  0.00  0.00    +0.000 C 
ATOM      9  O   UNL     1      49.761   6.883  14.016  0.00  0.00    +0.000 OA
ATOM     10  N   UNL     1      47.688   7.414  14.800  0.00  0.00    +0.000 N 
ATOM     11  H   UNL     1      47.071   7.454  15.600  0.00  0.00    +0.000 HD
BRANCH   8  15
ATOM     12  C   UNL     1      50.913   5.925  19.431  0.00  0.00    +0.000 C 
ATOM     13  N   UNL     1      50.092   5.814  18.245  0.00  0.00    +0.000 N 
ATOM     14  C   UNL     1      50.165   6.650  17.163  0.00  0.00    +0.000 A 
ATOM     15  C   UNL     1      49.223   6.251  16.224  0.00  0.00    +0.000 A 
ATOM     16  C   UNL     1      48.553   5.114  16.791  0.00  0.00    +0.000 A 
ATOM     17  C   UNL     1      47.516   4.275  16.349  0.00  0.00    +0.000 A 
ATOM     18  N   UNL     1      47.073   3.254  17.122  0.00  0.00    +0.000 NA
ATOM     19  C   UNL     1      47.643   3.054  18.328  0.00  0.00    +0.000 A 
ATOM     20  C   UNL     1      48.669   3.819  18.857  0.00  0.00    +0.000 A 
ATOM     21  C   UNL     1      49.115   4.867  18.049  0.00  0.00    +0.000 A 
ENDBRANCH   8  15
ENDBRANCH   7  10
ENDBRANCH   1   7
BRANCH   4  22
ATOM     22  O   UNL     1      43.617   4.749  10.660  0.00  0.00    +0.000 OA
BRANCH  22  23
ATOM     23  C   UNL     1      44.332   3.770   9.881  0.00  0.00    +0.000 C 
BRANCH  23  24
ATOM     24  C   UNL     1      44.751   4.256   8.495  0.00  0.00    +0.000 C 
BRANCH  24  25
ATOM     25  C   UNL     1      45.393   3.097   7.677  0.00  0.00    +0.000 C 
ATOM     26  C   UNL     1      45.868   1.922   8.560  0.00  0.00    +0.000 C 
ATOM     27  C   UNL     1      46.572   0.831   7.760  0.00  0.00    +0.000 C 
ATOM     28  C   UNL     1      47.729   1.400   6.951  0.00  0.00    +0.000 C 
ATOM     29  C   UNL     1      47.255   2.523   6.036  0.00  0.00    +0.000 C 
ATOM     30  C   UNL     1      46.556   3.629   6.822  0.00  0.00    +0.000 C 
ENDBRANCH  24  25
BRANCH  24  31
ATOM     31  O   UNL     1      45.668   5.346   8.600  0.00  0.00    +0.000 OA
ATOM     32  H   UNL     1      45.633   5.859   7.775  0.00  0.00    +0.000 HD
ENDBRANCH  24  31
ENDBRANCH  23  24
ENDBRANCH  22  23
ENDBRANCH   4  22
TORSDOF 8
ENDMDL
MODEL 2
REMARK VINA RESULT:    -8.176      1.972      2.266
REMARK INTER + INTRA:         -12.474
REMARK INTER:                 -12.031
REMARK INTRA:                  -0.443
REMARK UNBOUND:                -0.713
REMARK  Name = 
REMARK  9 active torsions:
REMARK  status: ('A' for Active; 'I' for Inactive)
REMARK    1  A    between atoms: C_1  and  N_2
REMARK    2  A    between atoms: C_4  and  C_5
REMARK    3  A    between atoms: N_7  and  C_8
REMARK    4  A    between atoms: C_8  and  C_9
REMARK    5  A    between atoms: C_12  and  O_13
REMARK    6  A    between atoms: O_13  and  C_14
REMARK    7  A    between atoms: C_14  and  C_15
REMARK    8  A    between atoms: C_15  and  O_16
REMARK    9  A    between atoms: C_15  and  C_17
REMARK                            x       y       z     vdW  Elec       q    Type
REMARK                         _______ _______ _______ _____ _____    ______ ____
ROOT
ATOM      1  C   UNL     1      47.493   6.251  13.394  0.00  0.00    +0.000 A 
ATOM      2  C   UNL     1      46.986   5.012  13.758  0.00  0.00    +0.000 A 
ATOM      3  C   UNL     1      45.910   4.478  13.069  0.00  0.00    +0.000 A 
ATOM      4  C   UNL     1      45.322   5.139  11.985  0.00  0.00    +0.000 A 
ATOM      5  C   UNL     1      45.805   6.400  11.631  0.00  0.00    +0.000 A 
ATOM      6  C   UNL     1      46.891   6.951  12.337  0.00  0.00    +0.000 A 
ENDROOT
BRANCH   1   7
ATOM      7  C   UNL     1      48.697   6.794  14.107  0.00  0.00    +0.000 C 
BRANCH   7  10
ATOM      8  C   UNL     1      48.927   6.477  16.529  0.00  0.00    +0.000 C 
ATOM      9  O   UNL     1      49.722   5.559  16.392  0.00  0.00    +0.000 OA
ATOM     10  N   UNL     1      48.381   7.153  15.469  0.00  0.00    +0.000 N 
ATOM     11  H   UNL     1      47.796   7.962  15.628  0.00  0.00    +0.000 HD
BRANCH   8  15
ATOM     12  C   UNL     1      47.143   9.336  20.241  0.00  0.00    +0.000 C 
ATOM     13  N   UNL     1      47.690   8.203  19.526  0.00  0.00    +0.000 N 
ATOM     14  C   UNL     1      47.999   8.196  18.192  0.00  0.00    +0.000 A 
ATOM     15  C   UNL     1      48.487   6.941  17.852  0.00  0.00    +0.000 A 
ATOM     16  C   UNL     1      48.459   6.163  19.059  0.00  0.00    +0.000 A 
ATOM     17  C   UNL     1      48.810   4.839  19.371  0.00  0.00    +0.000 A 
ATOM     18  N   UNL     1      48.668   4.362  20.632  0.00  0.00    +0.000 NA
ATOM     19  C   UNL     1      48.179   5.180  21.586  0.00  0.00    +0.000 A 
ATOM     20  C   UNL     1      47.803   6.498  21.386  0.00  0.00    +0.000 A 
ATOM     21  C   UNL     1      47.957   6.975  20.083  0.00  0.00    +0.000 A 
ENDBRANCH   8  15
ENDBRANCH   7  10
ENDBRANCH   1   7
BRANCH   4  22
ATOM     22  O   UNL     1      44.293   4.586  11.248  0.00  0.00    +0.000 OA
BRANCH  22  23
ATOM     23  C   UNL     1      44.769   3.620  10.290  0.00  0.00    +0.000 C 
BRANCH  23  24
ATOM     24  C   UNL     1      44.740   4.104   8.842  0.00  0.00    +0.000 C 
BRANCH  24  25
ATOM     25  C   UNL     1      45.384   3.048   7.896  0.00  0.00    +0.000 C 
ATOM     26  C   UNL     1      45.909   1.804   8.645  0.00  0.00    +0.000 C 
ATOM     27  C   UNL     1      46.614   0.815   7.721  0.00  0.00    +0.000 C 
ATOM     28  C   UNL     1      47.734   1.490   6.943  0.00  0.00    +0.000 C 
ATOM     29  C   UNL     1      47.209   2.686   6.157  0.00  0.00    +0.000 C 
ATOM     30  C   UNL     1      46.509   3.691   7.067  0.00  0.00    +0.000 C 
ENDBRANCH  24  25
BRANCH  24  31
ATOM     31  O   UNL     1      45.421   5.353   8.715  0.00  0.00    +0.000 OA
ATOM     32  H   UNL     1      44.802   6.004   8.344  0.00  0.00    +0.000 HD
ENDBRANCH  24  31
ENDBRANCH  23  24
ENDBRANCH  22  23
ENDBRANCH   4  22
TORSDOF 8
ENDMDL
MODEL 3
REMARK VINA RESULT:    -8.116      2.033      2.849
REMARK INTER + INTRA:         -12.387
REMARK INTER:                 -11.560
REMARK INTRA:                  -0.827
REMARK UNBOUND:                -0.713
REMARK  Name = 
REMARK  9 active torsions:
REMARK  status: ('A' for Active; 'I' for Inactive)
REMARK    1  A    between atoms: C_1  and  N_2
REMARK    2  A    between atoms: C_4  and  C_5
REMARK    3  A    between atoms: N_7  and  C_8
REMARK    4  A    between atoms: C_8  and  C_9
REMARK    5  A    between atoms: C_12  and  O_13
REMARK    6  A    between atoms: O_13  and  C_14
REMARK    7  A    between atoms: C_14  and  C_15
REMARK    8  A    between atoms: C_15  and  O_16
REMARK    9  A    between atoms: C_15  and  C_17
REMARK                            x       y       z     vdW  Elec       q    Type
REMARK                         _______ _______ _______ _____ _____    ______ ____
ROOT
ATOM      1  C   UNL     1      47.422   6.223  13.420  0.00  0.00    +0.000 A 
ATOM      2  C   UNL     1      47.070   6.709  12.168  0.00  0.00    +0.000 A 
ATOM      3  C   UNL     1      46.018   6.133  11.476  0.00  0.00    +0.000 A 
ATOM      4  C   UNL     1      45.268   5.079  12.010  0.00  0.00    +0.000 A 
ATOM      5  C   UNL     1      45.634   4.564  13.255  0.00  0.00    +0.000 A 
ATOM      6  C   UNL     1      46.710   5.139  13.956  0.00  0.00    +0.000 A 
ENDROOT
BRANCH   1   7
ATOM      7  C   UNL     1      48.523   6.893  14.188  0.00  0.00    +0.000 C 
BRANCH   7  10
ATOM      8  C   UNL     1      49.340   6.398  16.448  0.00  0.00    +0.000 C 
ATOM      9  O   UNL     1      50.475   6.176  16.053  0.00  0.00    +0.000 OA
ATOM     10  N   UNL     1      48.319   6.768  15.612  0.00  0.00    +0.000 N 
ATOM     11  H   UNL     1      47.418   7.026  15.991  0.00  0.00    +0.000 HD
BRANCH   8  15
ATOM     12  C   UNL     1      48.693   4.628  21.094  0.00  0.00    +0.000 C 
ATOM     13  N   UNL     1      48.672   5.514  19.951  0.00  0.00    +0.000 N 
ATOM     14  C   UNL     1      49.140   5.193  18.704  0.00  0.00    +0.000 A 
ATOM     15  C   UNL     1      48.969   6.286  17.866  0.00  0.00    +0.000 A 
ATOM     16  C   UNL     1      48.367   7.313  18.669  0.00  0.00    +0.000 A 
ATOM     17  C   UNL     1      47.957   8.633  18.415  0.00  0.00    +0.000 A 
ATOM     18  N   UNL     1      47.409   9.391  19.396  0.00  0.00    +0.000 NA
ATOM     19  C   UNL     1      47.265   8.858  20.627  0.00  0.00    +0.000 A 
ATOM     20  C   UNL     1      47.634   7.571  20.983  0.00  0.00    +0.000 A 
ATOM     21  C   UNL     1      48.196   6.803  19.962  0.00  0.00    +0.000 A 
ENDBRANCH   8  15
ENDBRANCH   7  10
ENDBRANCH   1   7
BRANCH   4  22
ATOM     22  O   UNL     1      44.175   4.543  11.359  0.00  0.00    +0.000 OA
BRANCH  22  23
ATOM     23  C   UNL     1      44.454   3.238  10.813  0.00  0.00    +0.000 C 
BRANCH  23  24
ATOM     24  C   UNL     1      44.314   3.149   9.295  0.00  0.00    +0.000 C 
BRANCH  24  25
ATOM     25  C   UNL     1      45.677   2.787   8.636  0.00  0.00    +0.000 C 
ATOM     26  C   UNL     1      45.994   3.644   7.391  0.00  0.00    +0.000 C 
ATOM     27  C   UNL     1      47.289   3.226   6.703  0.00  0.00    +0.000 C 
ATOM     28  C   UNL     1      47.273   1.746   6.349  0.00  0.00    +0.000 C 
ATOM     29  C   UNL     1      47.017   0.893   7.587  0.00  0.00    +0.000 C 
ATOM     30  C   UNL     1      45.718   1.291   8.283  0.00  0.00    +0.000 C 
ENDBRANCH  24  25
BRANCH  24  31
ATOM     31  O   UNL     1      43.825   4.380   8.762  0.00  0.00    +0.000 OA
ATOM     32  H   UNL     1      44.474   4.718   8.122  0.00  0.00    +0.000 HD
ENDBRANCH  24  31
ENDBRANCH  23  24
ENDBRANCH  22  23
ENDBRANCH   4  22
TORSDOF 8
ENDMDL
MODEL 4
REMARK VINA RESULT:    -7.594      1.831      2.875
REMARK INTER + INTRA:         -11.637
REMARK INTER:                 -10.859
REMARK INTRA:                  -0.777
REMARK UNBOUND:                -0.713
REMARK  Name = 
REMARK  9 active torsions:
REMARK  status: ('A' for Active; 'I' for Inactive)
REMARK    1  A    between atoms: C_1  and  N_2
REMARK    2  A    between atoms: C_4  and  C_5
REMARK    3  A    between atoms: N_7  and  C_8
REMARK    4  A    between atoms: C_8  and  C_9
REMARK    5  A    between atoms: C_12  and  O_13
REMARK    6  A    between atoms: O_13  and  C_14
REMARK    7  A    between atoms: C_14  and  C_15
REMARK    8  A    between atoms: C_15  and  O_16
REMARK    9  A    between atoms: C_15  and  C_17
REMARK                            x       y       z     vdW  Elec       q    Type
REMARK                         _______ _______ _______ _____ _____    ______ ____
ROOT
ATOM      1  C   UNL     1      46.855   7.059  13.141  0.00  0.00    +0.000 A 
ATOM      2  C   UNL     1      47.081   5.691  13.081  0.00  0.00    +0.000 A 
ATOM      3  C   UNL     1      46.144   4.863  12.486  0.00  0.00    +0.000 A 
ATOM      4  C   UNL     1      44.971   5.364  11.910  0.00  0.00    +0.000 A 
ATOM      5  C   UNL     1      44.721   6.735  11.992  0.00  0.00    +0.000 A 
ATOM      6  C   UNL     1      45.665   7.578  12.607  0.00  0.00    +0.000 A 
ENDROOT
BRANCH   1   7
ATOM      7  C   UNL     1      47.903   7.954  13.734  0.00  0.00    +0.000 C 
BRANCH   7  10
ATOM      8  C   UNL     1      49.121   7.394  15.789  0.00  0.00    +0.000 C 
ATOM      9  O   UNL     1      48.487   8.200  16.454  0.00  0.00    +0.000 OA
ATOM     10  N   UNL     1      48.897   7.193  14.451  0.00  0.00    +0.000 N 
ATOM     11  H   UNL     1      49.384   6.456  13.959  0.00  0.00    +0.000 HD
BRANCH   8  15
ATOM     12  C   UNL     1      51.535   3.801  18.317  0.00  0.00    +0.000 C 
ATOM     13  N   UNL     1      51.284   4.963  17.493  0.00  0.00    +0.000 N 
ATOM     14  C   UNL     1      50.041   5.450  17.187  0.00  0.00    +0.000 A 
ATOM     15  C   UNL     1      50.185   6.563  16.370  0.00  0.00    +0.000 A 
ATOM     16  C   UNL     1      51.598   6.740  16.182  0.00  0.00    +0.000 A 
ATOM     17  C   UNL     1      52.377   7.665  15.467  0.00  0.00    +0.000 A 
ATOM     18  N   UNL     1      53.729   7.580  15.467  0.00  0.00    +0.000 NA
ATOM     19  C   UNL     1      54.320   6.588  16.165  0.00  0.00    +0.000 A 
ATOM     20  C   UNL     1      53.648   5.626  16.901  0.00  0.00    +0.000 A 
ATOM     21  C   UNL     1      52.255   5.728  16.892  0.00  0.00    +0.000 A 
ENDBRANCH   8  15
ENDBRANCH   7  10
ENDBRANCH   1   7
BRANCH   4  22
ATOM     22  O   UNL     1      44.063   4.556  11.253  0.00  0.00    +0.000 OA
BRANCH  22  23
ATOM     23  C   UNL     1      44.704   3.666  10.319  0.00  0.00    +0.000 C 
BRANCH  23  24
ATOM     24  C   UNL     1      44.679   4.150   8.871  0.00  0.00    +0.000 C 
BRANCH  24  25
ATOM     25  C   UNL     1      45.312   3.089   7.924  0.00  0.00    +0.000 C 
ATOM     26  C   UNL     1      45.857   1.855   8.676  0.00  0.00    +0.000 C 
ATOM     27  C   UNL     1      46.551   0.861   7.750  0.00  0.00    +0.000 C 
ATOM     28  C   UNL     1      47.654   1.534   6.946  0.00  0.00    +0.000 C 
ATOM     29  C   UNL     1      47.109   2.719   6.158  0.00  0.00    +0.000 C 
ATOM     30  C   UNL     1      46.419   3.730   7.070  0.00  0.00    +0.000 C 
ENDBRANCH  24  25
BRANCH  24  31
ATOM     31  O   UNL     1      45.372   5.393   8.744  0.00  0.00    +0.000 OA
ATOM     32  H   UNL     1      45.153   5.947   9.512  0.00  0.00    +0.000 HD
ENDBRANCH  24  31
ENDBRANCH  23  24
ENDBRANCH  22  23
ENDBRANCH   4  22
TORSDOF 8
ENDMDL
MODEL 5
REMARK VINA RESULT:    -7.303      2.657      8.358
REMARK INTER + INTRA:         -11.218
REMARK INTER:                  -9.660
REMARK INTRA:                  -1.559
REMARK UNBOUND:                -0.713
REMARK  Name = 
REMARK  9 active torsions:
REMARK  status: ('A' for Active; 'I' for Inactive)
REMARK    1  A    between atoms: C_1  and  N_2
REMARK    2  A    between atoms: C_4  and  C_5
REMARK    3  A    between atoms: N_7  and  C_8
REMARK    4  A    between atoms: C_8  and  C_9
REMARK    5  A    between atoms: C_12  and  O_13
REMARK    6  A    between atoms: O_13  and  C_14
REMARK    7  A    between atoms: C_14  and  C_15
REMARK    8  A    between atoms: C_15  and  O_16
REMARK    9  A    between atoms: C_15  and  C_17
REMARK                            x       y       z     vdW  Elec       q    Type
REMARK                         _______ _______ _______ _____ _____    ______ ____
ROOT
ATOM      1  C   UNL     1      48.445   8.117  14.001  0.00  0.00    +0.000 A 
ATOM      2  C   UNL     1      48.128   9.138  14.888  0.00  0.00    +0.000 A 
ATOM      3  C   UNL     1      48.296   8.945  16.248  0.00  0.00    +0.000 A 
ATOM      4  C   UNL     1      48.806   7.752  16.771  0.00  0.00    +0.000 A 
ATOM      5  C   UNL     1      49.099   6.709  15.890  0.00  0.00    +0.000 A 
ATOM      6  C   UNL     1      48.918   6.897  14.507  0.00  0.00    +0.000 A 
ENDROOT
BRANCH   1   7
ATOM      7  C   UNL     1      48.317   8.357  12.526  0.00  0.00    +0.000 C 
BRANCH   7  10
ATOM      8  C   UNL     1      46.263   7.260  11.754  0.00  0.00    +0.000 C 
ATOM      9  O   UNL     1      45.555   8.170  12.158  0.00  0.00    +0.000 OA
ATOM     10  N   UNL     1      47.628   7.267  11.876  0.00  0.00    +0.000 N 
ATOM     11  H   UNL     1      48.182   6.536  11.451  0.00  0.00    +0.000 HD
BRANCH   8  15
ATOM     12  C   UNL     1      45.101   3.809   8.307  0.00  0.00    +0.000 C 
ATOM     13  N   UNL     1      45.177   4.514   9.568  0.00  0.00    +0.000 N 
ATOM     14  C   UNL     1      45.835   5.699   9.763  0.00  0.00    +0.000 A 
ATOM     15  C   UNL     1      45.707   6.069  11.095  0.00  0.00    +0.000 A 
ATOM     16  C   UNL     1      44.930   5.037  11.722  0.00  0.00    +0.000 A 
ATOM     17  C   UNL     1      44.469   4.825  13.033  0.00  0.00    +0.000 A 
ATOM     18  N   UNL     1      43.739   3.726  13.343  0.00  0.00    +0.000 NA
ATOM     19  C   UNL     1      43.463   2.833  12.371  0.00  0.00    +0.000 A 
ATOM     20  C   UNL     1      43.867   2.944  11.051  0.00  0.00    +0.000 A 
ATOM     21  C   UNL     1      44.617   4.082  10.747  0.00  0.00    +0.000 A 
ENDBRANCH   8  15
ENDBRANCH   7  10
ENDBRANCH   1   7
BRANCH   4  22
ATOM     22  O   UNL     1      49.041   7.573  18.120  0.00  0.00    +0.000 OA
BRANCH  22  23
ATOM     23  C   UNL     1      49.975   6.505  18.372  0.00  0.00    +0.000 C 
BRANCH  23  24
ATOM     24  C   UNL     1      49.524   5.516  19.446  0.00  0.00    +0.000 C 
BRANCH  24  25
ATOM     25  C   UNL     1      49.168   4.140  18.812  0.00  0.00    +0.000 C 
ATOM     26  C   UNL     1      50.230   3.643  17.806  0.00  0.00    +0.000 C 
ATOM     27  C   UNL     1      49.832   2.336  17.127  0.00  0.00    +0.000 C 
ATOM     28  C   UNL     1      48.469   2.454  16.460  0.00  0.00    +0.000 C 
ATOM     29  C   UNL     1      47.407   2.889  17.463  0.00  0.00    +0.000 C 
ATOM     30  C   UNL     1      47.784   4.202  18.145  0.00  0.00    +0.000 C 
ENDBRANCH  24  25
BRANCH  24  31
ATOM     31  O   UNL     1      48.399   6.030  20.161  0.00  0.00    +0.000 OA
ATOM     32  H   UNL     1      48.685   6.254  21.063  0.00  0.00    +0.000 HD
ENDBRANCH  24  31
ENDBRANCH  23  24
ENDBRANCH  22  23
ENDBRANCH   4  22
TORSDOF 8
ENDMDL
MODEL 6
REMARK VINA RESULT:    -7.255      2.835      8.750
REMARK INTER + INTRA:         -11.149
REMARK INTER:                  -9.761
REMARK INTRA:                  -1.389
REMARK UNBOUND:                -0.713
REMARK  Name = 
REMARK  9 active torsions:
REMARK  status: ('A' for Active; 'I' for Inactive)
REMARK    1  A    between atoms: C_1  and  N_2
REMARK    2  A    between atoms: C_4  and  C_5
REMARK    3  A    between atoms: N_7  and  C_8
REMARK    4  A    between atoms: C_8  and  C_9
REMARK    5  A    between atoms: C_12  and  O_13
REMARK    6  A    between atoms: O_13  and  C_14
REMARK    7  A    between atoms: C_14  and  C_15
REMARK    8  A    between atoms: C_15  and  O_16
REMARK    9  A    between atoms: C_15  and  C_17
REMARK                            x       y       z     vdW  Elec       q    Type
REMARK                         _______ _______ _______ _____ _____    ______ ____
ROOT
ATOM      1  C   UNL     1      48.151   7.830  13.743  0.00  0.00    +0.000 A 
ATOM      2  C   UNL     1      48.226   9.013  14.465  0.00  0.00    +0.000 A 
ATOM      3  C   UNL     1      48.605   8.985  15.796  0.00  0.00    +0.000 A 
ATOM      4  C   UNL     1      48.947   7.794  16.445  0.00  0.00    +0.000 A 
ATOM      5  C   UNL     1      48.845   6.595  15.736  0.00  0.00    +0.000 A 
ATOM      6  C   UNL     1      48.449   6.619  14.386  0.00  0.00    +0.000 A 
ENDROOT
BRANCH   1   7
ATOM      7  C   UNL     1      47.798   7.877  12.285  0.00  0.00    +0.000 C 
BRANCH   7  10
ATOM      8  C   UNL     1      45.742   6.701  11.646  0.00  0.00    +0.000 C 
ATOM      9  O   UNL     1      45.064   7.713  11.741  0.00  0.00    +0.000 OA
ATOM     10  N   UNL     1      47.092   6.685  11.879  0.00  0.00    +0.000 N 
ATOM     11  H   UNL     1      47.630   5.846  11.704  0.00  0.00    +0.000 HD
BRANCH   8  15
ATOM     12  C   UNL     1      43.222   2.369  11.785  0.00  0.00    +0.000 C 
ATOM     13  N   UNL     1      44.042   3.462  11.309  0.00  0.00    +0.000 N 
ATOM     14  C   UNL     1      44.385   4.562  12.050  0.00  0.00    +0.000 A 
ATOM     15  C   UNL     1      45.164   5.404  11.268  0.00  0.00    +0.000 A 
ATOM     16  C   UNL     1      45.283   4.762   9.988  0.00  0.00    +0.000 A 
ATOM     17  C   UNL     1      45.925   5.100   8.785  0.00  0.00    +0.000 A 
ATOM     18  N   UNL     1      45.860   4.279   7.709  0.00  0.00    +0.000 NA
ATOM     19  C   UNL     1      45.163   3.129   7.809  0.00  0.00    +0.000 A 
ATOM     20  C   UNL     1      44.495   2.701   8.944  0.00  0.00    +0.000 A 
ATOM     21  C   UNL     1      44.572   3.557  10.044  0.00  0.00    +0.000 A 
ENDBRANCH   8  15
ENDBRANCH   7  10
ENDBRANCH   1   7
BRANCH   4  22
ATOM     22  O   UNL     1      49.392   7.762  17.752  0.00  0.00    +0.000 OA
BRANCH  22  23
ATOM     23  C   UNL     1      48.529   6.980  18.601  0.00  0.00    +0.000 C 
BRANCH  23  24
ATOM     24  C   UNL     1      49.255   5.930  19.439  0.00  0.00    +0.000 C 
BRANCH  24  25
ATOM     25  C   UNL     1      48.982   4.500  18.887  0.00  0.00    +0.000 C 
ATOM     26  C   UNL     1      50.120   3.972  17.985  0.00  0.00    +0.000 C 
ATOM     27  C   UNL     1      49.806   2.606  17.380  0.00  0.00    +0.000 C 
ATOM     28  C   UNL     1      48.484   2.628  16.626  0.00  0.00    +0.000 C 
ATOM     29  C   UNL     1      47.348   3.096  17.529  0.00  0.00    +0.000 C 
ATOM     30  C   UNL     1      47.641   4.466  18.136  0.00  0.00    +0.000 C 
ENDBRANCH  24  25
BRANCH  24  31
ATOM     31  O   UNL     1      48.852   6.010  20.806  0.00  0.00    +0.000 OA
ATOM     32  H   UNL     1      48.179   5.328  20.970  0.00  0.00    +0.000 HD
ENDBRANCH  24  31
ENDBRANCH  23  24
ENDBRANCH  22  23
ENDBRANCH   4  22
TORSDOF 8
ENDMDL
MODEL 7
REMARK VINA RESULT:    -7.221      4.155      6.016
REMARK INTER + INTRA:         -11.099
REMARK INTER:                 -10.089
REMARK INTRA:                  -1.010
REMARK UNBOUND:                -0.713
REMARK  Name = 
REMARK  9 active torsions:
REMARK  status: ('A' for Active; 'I' for Inactive)
REMARK    1  A    between atoms: C_1  and  N_2
REMARK    2  A    between atoms: C_4  and  C_5
REMARK    3  A    between atoms: N_7  and  C_8
REMARK    4  A    between atoms: C_8  and  C_9
REMARK    5  A    between atoms: C_12  and  O_13
REMARK    6  A    between atoms: O_13  and  C_14
REMARK    7  A    between atoms: C_14  and  C_15
REMARK    8  A    between atoms: C_15  and  O_16
REMARK    9  A    between atoms: C_15  and  C_17
REMARK                            x       y       z     vdW  Elec       q    Type
REMARK                         _______ _______ _______ _____ _____    ______ ____
ROOT
ATOM      1  C   UNL     1      47.444   6.387  12.866  0.00  0.00    +0.000 A 
ATOM      2  C   UNL     1      46.768   5.480  13.670  0.00  0.00    +0.000 A 
ATOM      3  C   UNL     1      45.627   4.855  13.196  0.00  0.00    +0.000 A 
ATOM      4  C   UNL     1      45.136   5.086  11.906  0.00  0.00    +0.000 A 
ATOM      5  C   UNL     1      45.792   6.019  11.101  0.00  0.00    +0.000 A 
ATOM      6  C   UNL     1      46.945   6.666  11.584  0.00  0.00    +0.000 A 
ENDROOT
BRANCH   1   7
ATOM      7  C   UNL     1      48.712   7.013  13.365  0.00  0.00    +0.000 C 
BRANCH   7  10
ATOM      8  C   UNL     1      50.672   8.209  12.500  0.00  0.00    +0.000 C 
ATOM      9  O   UNL     1      51.248   8.165  13.577  0.00  0.00    +0.000 OA
ATOM     10  N   UNL     1      49.433   7.661  12.294  0.00  0.00    +0.000 N 
ATOM     11  H   UNL     1      49.031   7.644  11.367  0.00  0.00    +0.000 HD
BRANCH   8  15
ATOM     12  C   UNL     1      52.039  11.654   9.123  0.00  0.00    +0.000 C 
ATOM     13  N   UNL     1      51.887  10.385   9.801  0.00  0.00    +0.000 N 
ATOM     14  C   UNL     1      51.182  10.196  10.959  0.00  0.00    +0.000 A 
ATOM     15  C   UNL     1      51.264   8.859  11.322  0.00  0.00    +0.000 A 
ATOM     16  C   UNL     1      52.071   8.223  10.318  0.00  0.00    +0.000 A 
ATOM     17  C   UNL     1      52.521   6.907  10.121  0.00  0.00    +0.000 A 
ATOM     18  N   UNL     1      53.296   6.591   9.054  0.00  0.00    +0.000 NA
ATOM     19  C   UNL     1      53.632   7.564   8.183  0.00  0.00    +0.000 A 
ATOM     20  C   UNL     1      53.243   8.889   8.283  0.00  0.00    +0.000 A 
ATOM     21  C   UNL     1      52.445   9.198   9.386  0.00  0.00    +0.000 A 
ENDBRANCH   8  15
ENDBRANCH   7  10
ENDBRANCH   1   7
BRANCH   4  22
ATOM     22  O   UNL     1      44.039   4.418  11.399  0.00  0.00    +0.000 OA
BRANCH  22  23
ATOM     23  C   UNL     1      44.243   3.996  10.036  0.00  0.00    +0.000 C 
BRANCH  23  24
ATOM     24  C   UNL     1      44.903   2.626   9.895  0.00  0.00    +0.000 C 
BRANCH  24  25
ATOM     25  C   UNL     1      45.999   2.654   8.790  0.00  0.00    +0.000 C 
ATOM     26  C   UNL     1      45.706   3.679   7.672  0.00  0.00    +0.000 C 
ATOM     27  C   UNL     1      46.740   3.640   6.551  0.00  0.00    +0.000 C 
ATOM     28  C   UNL     1      46.876   2.237   5.975  0.00  0.00    +0.000 C 
ATOM     29  C   UNL     1      47.221   1.231   7.067  0.00  0.00    +0.000 C 
ATOM     30  C   UNL     1      46.191   1.249   8.194  0.00  0.00    +0.000 C 
ENDBRANCH  24  25
BRANCH  24  31
ATOM     31  O   UNL     1      43.929   1.627   9.591  0.00  0.00    +0.000 OA
ATOM     32  H   UNL     1      43.517   1.848   8.739  0.00  0.00    +0.000 HD
ENDBRANCH  24  31
ENDBRANCH  23  24
ENDBRANCH  22  23
ENDBRANCH   4  22
TORSDOF 8
ENDMDL
MODEL 8
REMARK VINA RESULT:    -7.205      1.818      2.685
REMARK INTER + INTRA:         -11.076
REMARK INTER:                 -10.001
REMARK INTRA:                  -1.076
REMARK UNBOUND:                -0.713
REMARK  Name = 
REMARK  9 active torsions:
REMARK  status: ('A' for Active; 'I' for Inactive)
REMARK    1  A    between atoms: C_1  and  N_2
REMARK    2  A    between atoms: C_4  and  C_5
REMARK    3  A    between atoms: N_7  and  C_8
REMARK    4  A    between atoms: C_8  and  C_9
REMARK    5  A    between atoms: C_12  and  O_13
REMARK    6  A    between atoms: O_13  and  C_14
REMARK    7  A    between atoms: C_14  and  C_15
REMARK    8  A    between atoms: C_15  and  O_16
REMARK    9  A    between atoms: C_15  and  C_17
REMARK                            x       y       z     vdW  Elec       q    Type
REMARK                         _______ _______ _______ _____ _____    ______ ____
ROOT
ATOM      1  C   UNL     1      47.447   6.770  13.042  0.00  0.00    +0.000 A 
ATOM      2  C   UNL     1      46.435   7.463  12.394  0.00  0.00    +0.000 A 
ATOM      3  C   UNL     1      45.154   6.939  12.358  0.00  0.00    +0.000 A 
ATOM      4  C   UNL     1      44.830   5.729  12.982  0.00  0.00    +0.000 A 
ATOM      5  C   UNL     1      45.848   5.010  13.611  0.00  0.00    +0.000 A 
ATOM      6  C   UNL     1      47.154   5.534  13.640  0.00  0.00    +0.000 A 
ENDROOT
BRANCH   1   7
ATOM      7  C   UNL     1      48.818   7.375  13.129  0.00  0.00    +0.000 C 
BRANCH   7  10
ATOM      8  C   UNL     1      49.233   8.128  15.427  0.00  0.00    +0.000 C 
ATOM      9  O   UNL     1      48.588   9.154  15.270  0.00  0.00    +0.000 OA
ATOM     10  N   UNL     1      49.391   7.189  14.441  0.00  0.00    +0.000 N 
ATOM     11  H   UNL     1      49.858   6.315  14.640  0.00  0.00    +0.000 HD
BRANCH   8  15
ATOM     12  C   UNL     1      52.116   8.423  19.518  0.00  0.00    +0.000 C 
ATOM     13  N   UNL     1      51.181   7.922  18.535  0.00  0.00    +0.000 N 
ATOM     14  C   UNL     1      50.821   8.582  17.390  0.00  0.00    +0.000 A 
ATOM     15  C   UNL     1      49.899   7.808  16.697  0.00  0.00    +0.000 A 
ATOM     16  C   UNL     1      49.702   6.623  17.485  0.00  0.00    +0.000 A 
ATOM     17  C   UNL     1      48.904   5.477  17.336  0.00  0.00    +0.000 A 
ATOM     18  N   UNL     1      48.920   4.494  18.268  0.00  0.00    +0.000 NA
ATOM     19  C   UNL     1      49.715   4.634  19.349  0.00  0.00    +0.000 A 
ATOM     20  C   UNL     1      50.539   5.720  19.593  0.00  0.00    +0.000 A 
ATOM     21  C   UNL     1      50.512   6.724  18.623  0.00  0.00    +0.000 A 
ENDBRANCH   8  15
ENDBRANCH   7  10
ENDBRANCH   1   7
BRANCH   4  22
ATOM     22  O   UNL     1      43.543   5.230  13.011  0.00  0.00    +0.000 OA
BRANCH  22  23
ATOM     23  C   UNL     1      43.198   4.546  11.790  0.00  0.00    +0.000 C 
BRANCH  23  24
ATOM     24  C   UNL     1      43.873   3.186  11.621  0.00  0.00    +0.000 C 
BRANCH  24  25
ATOM     25  C   UNL     1      44.910   3.227  10.460  0.00  0.00    +0.000 C 
ATOM     26  C   UNL     1      44.852   4.536   9.643  0.00  0.00    +0.000 C 
ATOM     27  C   UNL     1      45.812   4.532   8.457  0.00  0.00    +0.000 C 
ATOM     28  C   UNL     1      45.575   3.325   7.560  0.00  0.00    +0.000 C 
ATOM     29  C   UNL     1      45.686   2.027   8.353  0.00  0.00    +0.000 C 
ATOM     30  C   UNL     1      44.725   2.010   9.539  0.00  0.00    +0.000 C 
ENDBRANCH  24  25
BRANCH  24  31
ATOM     31  O   UNL     1      42.901   2.170  11.372  0.00  0.00    +0.000 OA
ATOM     32  H   UNL     1      42.103   2.373  11.889  0.00  0.00    +0.000 HD
ENDBRANCH  24  31
ENDBRANCH  23  24
ENDBRANCH  22  23
ENDBRANCH   4  22
TORSDOF 8
ENDMDL
MODEL 9
REMARK VINA RESULT:    -6.966      3.744      8.974
REMARK INTER + INTRA:         -10.733
REMARK INTER:                  -8.651
REMARK INTRA:                  -2.082
REMARK UNBOUND:                -0.713
REMARK  Name = 
REMARK  9 active torsions:
REMARK  status: ('A' for Active; 'I' for Inactive)
REMARK    1  A    between atoms: C_1  and  N_2
REMARK    2  A    between atoms: C_4  and  C_5
REMARK    3  A    between atoms: N_7  and  C_8
REMARK    4  A    between atoms: C_8  and  C_9
REMARK    5  A    between atoms: C_12  and  O_13
REMARK    6  A    between atoms: O_13  and  C_14
REMARK    7  A    between atoms: C_14  and  C_15
REMARK    8  A    between atoms: C_15  and  O_16
REMARK    9  A    between atoms: C_15  and  C_17
REMARK                            x       y       z     vdW  Elec       q    Type
REMARK                         _______ _______ _______ _____ _____    ______ ____
ROOT
ATOM      1  C   UNL     1      48.472   3.594  17.713  0.00  0.00    +0.000 A 
ATOM      2  C   UNL     1      48.580   4.506  18.754  0.00  0.00    +0.000 A 
ATOM      3  C   UNL     1      49.826   4.816  19.273  0.00  0.00    +0.000 A 
ATOM      4  C   UNL     1      51.001   4.255  18.762  0.00  0.00    +0.000 A 
ATOM      5  C   UNL     1      50.901   3.314  17.735  0.00  0.00    +0.000 A 
ATOM      6  C   UNL     1      49.635   2.988  17.214  0.00  0.00    +0.000 A 
ENDROOT
BRANCH   1   7
ATOM      7  C   UNL     1      47.124   3.311  17.117  0.00  0.00    +0.000 C 
BRANCH   7  10
ATOM      8  C   UNL     1      46.982   4.062  14.786  0.00  0.00    +0.000 C 
ATOM      9  O   UNL     1      47.444   3.015  14.358  0.00  0.00    +0.000 OA
ATOM     10  N   UNL     1      46.775   4.296  16.120  0.00  0.00    +0.000 N 
ATOM     11  H   UNL     1      46.311   5.141  16.424  0.00  0.00    +0.000 HD
BRANCH   8  15
ATOM     12  C   UNL     1      47.073   8.347  12.183  0.00  0.00    +0.000 C 
ATOM     13  N   UNL     1      46.624   7.082  12.725  0.00  0.00    +0.000 N 
ATOM     14  C   UNL     1      47.335   6.315  13.610  0.00  0.00    +0.000 A 
ATOM     15  C   UNL     1      46.603   5.171  13.898  0.00  0.00    +0.000 A 
ATOM     16  C   UNL     1      45.390   5.270  13.134  0.00  0.00    +0.000 A 
ATOM     17  C   UNL     1      44.263   4.446  12.986  0.00  0.00    +0.000 A 
ATOM     18  N   UNL     1      43.244   4.804  12.168  0.00  0.00    +0.000 NA
ATOM     19  C   UNL     1      43.329   5.968  11.492  0.00  0.00    +0.000 A 
ATOM     20  C   UNL     1      44.393   6.852  11.565  0.00  0.00    +0.000 A 
ATOM     21  C   UNL     1      45.434   6.470  12.413  0.00  0.00    +0.000 A 
ENDBRANCH   8  15
ENDBRANCH   7  10
ENDBRANCH   1   7
BRANCH   4  22
ATOM     22  O   UNL     1      52.254   4.608  19.226  0.00  0.00    +0.000 OA
BRANCH  22  23
ATOM     23  C   UNL     1      52.374   6.028  19.439  0.00  0.00    +0.000 C 
BRANCH  23  24
ATOM     24  C   UNL     1      52.982   6.790  18.263  0.00  0.00    +0.000 C 
BRANCH  24  25
ATOM     25  C   UNL     1      51.879   7.548  17.468  0.00  0.00    +0.000 C 
ATOM     26  C   UNL     1      50.727   8.054  18.364  0.00  0.00    +0.000 C 
ATOM     27  C   UNL     1      49.610   8.720  17.567  0.00  0.00    +0.000 C 
ATOM     28  C   UNL     1      49.082   7.795  16.479  0.00  0.00    +0.000 C 
ATOM     29  C   UNL     1      50.208   7.338  15.558  0.00  0.00    +0.000 C 
ATOM     30  C   UNL     1      51.331   6.660  16.339  0.00  0.00    +0.000 C 
ENDBRANCH  24  25
BRANCH  24  31
ATOM     31  O   UNL     1      53.684   5.898  17.395  0.00  0.00    +0.000 OA
ATOM     32  H   UNL     1      53.035   5.432  16.842  0.00  0.00    +0.000 HD
ENDBRANCH  24  31
ENDBRANCH  23  24
ENDBRANCH  22  23
ENDBRANCH   4  22
TORSDOF 8
ENDMDL
