MODEL 1
REMARK VINA RESULT:    -6.346      0.000      0.000
REMARK INTER + INTRA:         -10.772
REMARK INTER:                  -8.942
REMARK INTRA:                  -1.829
REMARK UNBOUND:                -1.829
REMARK  Name = 
REMARK  9 active torsions:
REMARK  status: ('A' for Active; 'I' for Inactive)
REMARK    1  A    between atoms: C_1  and  C_2
REMARK    2  A    between atoms: C_2  and  C_3
REMARK    3  A    between atoms: C_2  and  C_4
REMARK    4  A    between atoms: C_4  and  C_5
REMARK    5  A    between atoms: C_5  and  N_6
REMARK    6  A    between atoms: C_5  and  C_19
REMARK    7  A    between atoms: C_7  and  C_9
REMARK    8  A    between atoms: C_22  and  C_23
REMARK    9  A    between atoms: C_23  and  N_24
REMARK                            x       y       z     vdW  Elec       q    Type
REMARK                         _______ _______ _______ _____ _____    ______ ____
ROOT
ATOM      1  C   UNL     1      47.760   8.623  14.333  0.00  0.00    +0.000 C 
ENDROOT
BRANCH   1   2
ATOM      2  C   UNL     1      46.875   7.952  13.286  0.00  0.00    +0.000 A 
ATOM      3  C   UNL     1      47.219   6.659  12.864  0.00  0.00    +0.000 A 
ATOM      4  C   UNL     1      46.448   5.973  11.920  0.00  0.00    +0.000 A 
ATOM      5  C   UNL     1      45.306   6.553  11.357  0.00  0.00    +0.000 A 
ATOM      6  C   UNL     1      44.988   7.868  11.732  0.00  0.00    +0.000 A 
ATOM      7  C   UNL     1      45.771   8.564  12.674  0.00  0.00    +0.000 A 
BRANCH   5   8
ATOM      8  C   UNL     1      44.525   5.808  10.296  0.00  0.00    +0.000 C 
BRANCH   8   9
ATOM      9  N   UNL     1      43.529   4.812  10.688  0.00  0.00    +0.000 NA
ATOM     10  C   UNL     1      42.631   5.163  11.789  0.00  0.00    +0.000 C 
ATOM     11  C   UNL     1      43.115   4.712  13.176  0.00  0.00    +0.000 C 
ATOM     12  O   UNL     1      43.435   3.315  13.198  0.00  0.00    +0.000 OA
ATOM     13  C   UNL     1      44.419   2.994  12.207  0.00  0.00    +0.000 C 
ATOM     14  C   UNL     1      43.971   3.419  10.799  0.00  0.00    +0.000 C 
ENDBRANCH   8   9
ENDBRANCH   5   8
ENDBRANCH   1   2
BRANCH   1  15
ATOM     15  N   UNL     1      48.480   7.585  15.053  0.00  0.00    +0.000 N 
ATOM     16  C   UNL     1      48.772   7.636  16.390  0.00  0.00    +0.000 C 
ATOM     17  O   UNL     1      48.349   8.534  17.115  0.00  0.00    +0.000 OA
ATOM     18  H   UNL     1      48.908   6.876  14.470  0.00  0.00    +0.000 HD
BRANCH  16  19
ATOM     19  C   UNL     1      49.609   6.548  16.923  0.00  0.00    +0.000 A 
ATOM     20  C   UNL     1      50.836   6.846  17.506  0.00  0.00    +0.000 A 
ATOM     21  S   UNL     1      51.676   5.480  18.087  0.00  0.00    +0.000 S 
ATOM     22  C   UNL     1      50.438   4.433  17.575  0.00  0.00    +0.000 A 
ATOM     23  N   UNL     1      50.538   3.090  17.773  0.00  0.00    +0.000 NA
ATOM     24  C   UNL     1      49.536   2.408  17.336  0.00  0.00    +0.000 A 
ATOM     25  N   UNL     1      48.446   2.943  16.709  0.00  0.00    +0.000 N 
ATOM     26  C   UNL     1      48.312   4.289  16.465  0.00  0.00    +0.000 A 
ATOM     27  O   UNL     1      47.329   4.720  15.867  0.00  0.00    +0.000 OA
ATOM     28  C   UNL     1      49.400   5.114  16.962  0.00  0.00    +0.000 A 
ATOM     29  H   UNL     1      47.693   2.359  16.378  0.00  0.00    +0.000 HD
ENDBRANCH  16  19
ENDBRANCH   1  15
BRANCH   1  30
ATOM     30  C   UNL     1      48.762   9.688  13.821  0.00  0.00    +0.000 C 
BRANCH  30  32
ATOM     31  C   UNL     1      48.755  10.519  11.384  0.00  0.00    +0.000 C 
ATOM     32  C   UNL     1      49.290   9.490  12.384  0.00  0.00    +0.000 C 
ATOM     33  C   UNL     1      50.823   9.523  12.379  0.00  0.00    +0.000 C 
ENDBRANCH  30  32
ENDBRANCH   1  30
TORSDOF 7
ENDMDL
MODEL 2
REMARK VINA RESULT:    -6.273      2.606      3.764
REMARK INTER + INTRA:         -10.669
REMARK INTER:                  -9.010
REMARK INTRA:                  -1.659
REMARK UNBOUND:                -1.829
REMARK  Name = 
REMARK  9 active torsions:
REMARK  status: ('A' for Active; 'I' for Inactive)
REMARK    1  A    between atoms: C_1  and  C_2
REMARK    2  A    between atoms: C_2  and  C_3
REMARK    3  A    between atoms: C_2  and  C_4
REMARK    4  A    between atoms: C_4  and  C_5
REMARK    5  A    between atoms: C_5  and  N_6
REMARK    6  A    between atoms: C_5  and  C_19
REMARK    7  A    between atoms: C_7  and  C_9
REMARK    8  A    between atoms: C_22  and  C_23
REMARK    9  A    between atoms: C_23  and  N_24
REMARK                            x       y       z     vdW  Elec       q    Type
REMARK                         _______ _______ _______ _____ _____    ______ ____
ROOT
ATOM      1  C   UNL     1      49.118   6.462  16.876  0.00  0.00    +0.000 C 
ENDROOT
BRANCH   1   2
ATOM      2  C   UNL     1      48.299   5.806  15.767  0.00  0.00    +0.000 A 
ATOM      3  C   UNL     1      47.719   4.555  16.031  0.00  0.00    +0.000 A 
ATOM      4  C   UNL     1      46.942   3.898  15.071  0.00  0.00    +0.000 A 
ATOM      5  C   UNL     1      46.718   4.461  13.810  0.00  0.00    +0.000 A 
ATOM      6  C   UNL     1      47.341   5.685  13.520  0.00  0.00    +0.000 A 
ATOM      7  C   UNL     1      48.134   6.342  14.482  0.00  0.00    +0.000 A 
BRANCH   5   8
ATOM      8  C   UNL     1      45.920   3.700  12.773  0.00  0.00    +0.000 C 
BRANCH   8   9
ATOM      9  N   UNL     1      44.467   3.854  12.713  0.00  0.00    +0.000 NA
ATOM     10  C   UNL     1      43.772   3.204  11.601  0.00  0.00    +0.000 C 
ATOM     11  C   UNL     1      43.566   4.097  10.368  0.00  0.00    +0.000 C 
ATOM     12  O   UNL     1      42.940   5.339  10.711  0.00  0.00    +0.000 OA
ATOM     13  C   UNL     1      43.695   6.043  11.705  0.00  0.00    +0.000 C 
ATOM     14  C   UNL     1      43.917   5.190  12.964  0.00  0.00    +0.000 C 
ENDBRANCH   8   9
ENDBRANCH   5   8
ENDBRANCH   1   2
BRANCH   1  15
ATOM     15  N   UNL     1      50.175   5.543  17.265  0.00  0.00    +0.000 N 
ATOM     16  C   UNL     1      50.412   5.145  18.554  0.00  0.00    +0.000 C 
ATOM     17  O   UNL     1      49.669   5.460  19.480  0.00  0.00    +0.000 OA
ATOM     18  H   UNL     1      50.848   5.331  16.539  0.00  0.00    +0.000 HD
BRANCH  16  19
ATOM     19  C   UNL     1      51.599   4.300  18.773  0.00  0.00    +0.000 A 
ATOM     20  C   UNL     1      52.632   4.762  19.581  0.00  0.00    +0.000 A 
ATOM     21  S   UNL     1      53.925   3.663  19.747  0.00  0.00    +0.000 S 
ATOM     22  C   UNL     1      53.162   2.527  18.738  0.00  0.00    +0.000 A 
ATOM     23  N   UNL     1      53.756   1.335  18.459  0.00  0.00    +0.000 NA
ATOM     24  C   UNL     1      53.076   0.566  17.680  0.00  0.00    +0.000 A 
ATOM     25  N   UNL     1      51.860   0.884  17.144  0.00  0.00    +0.000 N 
ATOM     26  C   UNL     1      51.232   2.085  17.377  0.00  0.00    +0.000 A 
ATOM     27  O   UNL     1      50.154   2.339  16.845  0.00  0.00    +0.000 OA
ATOM     28  C   UNL     1      51.939   2.982  18.274  0.00  0.00    +0.000 A 
ATOM     29  H   UNL     1      51.375   0.246  16.530  0.00  0.00    +0.000 HD
ENDBRANCH  16  19
ENDBRANCH   1  15
BRANCH   1  30
ATOM     30  C   UNL     1      49.728   7.852  16.564  0.00  0.00    +0.000 C 
BRANCH  30  32
ATOM     31  C   UNL     1      48.375  10.037  16.404  0.00  0.00    +0.000 C 
ATOM     32  C   UNL     1      49.110   9.050  17.315  0.00  0.00    +0.000 C 
ATOM     33  C   UNL     1      48.153   8.550  18.404  0.00  0.00    +0.000 C 
ENDBRANCH  30  32
ENDBRANCH   1  30
TORSDOF 7
ENDMDL
MODEL 3
REMARK VINA RESULT:    -6.003      3.328      5.110
REMARK INTER + INTRA:         -10.288
REMARK INTER:                  -9.137
REMARK INTRA:                  -1.151
REMARK UNBOUND:                -1.829
REMARK  Name = 
REMARK  9 active torsions:
REMARK  status: ('A' for Active; 'I' for Inactive)
REMARK    1  A    between atoms: C_1  and  C_2
REMARK    2  A    between atoms: C_2  and  C_3
REMARK    3  A    between atoms: C_2  and  C_4
REMARK    4  A    between atoms: C_4  and  C_5
REMARK    5  A    between atoms: C_5  and  N_6
REMARK    6  A    between atoms: C_5  and  C_19
REMARK    7  A    between atoms: C_7  and  C_9
REMARK    8  A    between atoms: C_22  and  C_23
REMARK    9  A    between atoms: C_23  and  N_24
REMARK                            x       y       z     vdW  Elec       q    Type
REMARK                         _______ _______ _______ _____ _____    ______ ____
ROOT
ATOM      1  C   UNL     1      45.713   6.173  12.857  0.00  0.00    +0.000 C 
ENDROOT
BRANCH   1   2
ATOM      2  C   UNL     1      45.350   7.575  12.374  0.00  0.00    +0.000 A 
ATOM      3  C   UNL     1      44.343   7.696  11.404  0.00  0.00    +0.000 A 
ATOM      4  C   UNL     1      43.944   8.948  10.923  0.00  0.00    +0.000 A 
ATOM      5  C   UNL     1      44.538  10.126  11.388  0.00  0.00    +0.000 A 
ATOM      6  C   UNL     1      45.584  10.009  12.316  0.00  0.00    +0.000 A 
ATOM      7  C   UNL     1      45.995   8.748  12.792  0.00  0.00    +0.000 A 
BRANCH   5   8
ATOM      8  C   UNL     1      44.124  11.461  10.807  0.00  0.00    +0.000 C 
BRANCH   8   9
ATOM      9  N   UNL     1      42.825  12.037  11.155  0.00  0.00    +0.000 NA
ATOM     10  C   UNL     1      41.848  11.148  11.785  0.00  0.00    +0.000 C 
ATOM     11  C   UNL     1      40.886  10.460  10.804  0.00  0.00    +0.000 C 
ATOM     12  O   UNL     1      40.241  11.406   9.941  0.00  0.00    +0.000 OA
ATOM     13  C   UNL     1      41.202  12.187   9.220  0.00  0.00    +0.000 C 
ATOM     14  C   UNL     1      42.181  12.904  10.164  0.00  0.00    +0.000 C 
ENDBRANCH   8   9
ENDBRANCH   5   8
ENDBRANCH   1   2
BRANCH   1  15
ATOM     15  N   UNL     1      46.561   6.303  14.031  0.00  0.00    +0.000 N 
ATOM     16  C   UNL     1      47.913   6.087  14.032  0.00  0.00    +0.000 C 
ATOM     17  O   UNL     1      48.538   5.865  12.997  0.00  0.00    +0.000 OA
ATOM     18  H   UNL     1      46.066   6.405  14.909  0.00  0.00    +0.000 HD
BRANCH  16  19
ATOM     19  C   UNL     1      48.589   6.151  15.339  0.00  0.00    +0.000 A 
ATOM     20  C   UNL     1      49.589   7.093  15.551  0.00  0.00    +0.000 A 
ATOM     21  S   UNL     1      50.261   7.049  17.118  0.00  0.00    +0.000 S 
ATOM     22  C   UNL     1      49.249   5.761  17.575  0.00  0.00    +0.000 A 
ATOM     23  N   UNL     1      49.322   5.231  18.827  0.00  0.00    +0.000 NA
ATOM     24  C   UNL     1      48.504   4.259  19.045  0.00  0.00    +0.000 A 
ATOM     25  N   UNL     1      47.627   3.760  18.123  0.00  0.00    +0.000 N 
ATOM     26  C   UNL     1      47.535   4.246  16.841  0.00  0.00    +0.000 A 
ATOM     27  O   UNL     1      46.755   3.742  16.037  0.00  0.00    +0.000 OA
ATOM     28  C   UNL     1      48.413   5.364  16.544  0.00  0.00    +0.000 A 
ATOM     29  H   UNL     1      47.015   2.989  18.346  0.00  0.00    +0.000 HD
ENDBRANCH  16  19
ENDBRANCH   1  15
BRANCH   1  30
ATOM     30  C   UNL     1      44.537   5.215  13.170  0.00  0.00    +0.000 C 
BRANCH  30  32
ATOM     31  C   UNL     1      44.222   4.044  10.898  0.00  0.00    +0.000 C 
ATOM     32  C   UNL     1      44.520   3.882  12.391  0.00  0.00    +0.000 C 
ATOM     33  C   UNL     1      45.857   3.154  12.570  0.00  0.00    +0.000 C 
ENDBRANCH  30  32
ENDBRANCH   1  30
TORSDOF 7
ENDMDL
MODEL 4
REMARK VINA RESULT:    -5.970      2.187      5.903
REMARK INTER + INTRA:         -10.243
REMARK INTER:                  -8.676
REMARK INTRA:                  -1.567
REMARK UNBOUND:                -1.829
REMARK  Name = 
REMARK  9 active torsions:
REMARK  status: ('A' for Active; 'I' for Inactive)
REMARK    1  A    between atoms: C_1  and  C_2
REMARK    2  A    between atoms: C_2  and  C_3
REMARK    3  A    between atoms: C_2  and  C_4
REMARK    4  A    between atoms: C_4  and  C_5
REMARK    5  A    between atoms: C_5  and  N_6
REMARK    6  A    between atoms: C_5  and  C_19
REMARK    7  A    between atoms: C_7  and  C_9
REMARK    8  A    between atoms: C_22  and  C_23
REMARK    9  A    between atoms: C_23  and  N_24
REMARK                            x       y       z     vdW  Elec       q    Type
REMARK                         _______ _______ _______ _____ _____    ______ ____
ROOT
ATOM      1  C   UNL     1      46.345   5.615  13.207  0.00  0.00    +0.000 C 
ENDROOT
BRANCH   1   2
ATOM      2  C   UNL     1      46.778   6.996  12.720  0.00  0.00    +0.000 A 
ATOM      3  C   UNL     1      48.085   7.141  12.230  0.00  0.00    +0.000 A 
ATOM      4  C   UNL     1      48.550   8.371  11.753  0.00  0.00    +0.000 A 
ATOM      5  C   UNL     1      47.729   9.505  11.750  0.00  0.00    +0.000 A 
ATOM      6  C   UNL     1      46.440   9.380  12.291  0.00  0.00    +0.000 A 
ATOM      7  C   UNL     1      45.975   8.144  12.784  0.00  0.00    +0.000 A 
BRANCH   5   8
ATOM      8  C   UNL     1      48.279  10.834  11.280  0.00  0.00    +0.000 C 
BRANCH   8   9
ATOM      9  N   UNL     1      49.137  11.622  12.163  0.00  0.00    +0.000 NA
ATOM     10  C   UNL     1      50.580  11.558  11.924  0.00  0.00    +0.000 C 
ATOM     11  C   UNL     1      51.315  10.487  12.743  0.00  0.00    +0.000 C 
ATOM     12  O   UNL     1      51.030  10.601  14.143  0.00  0.00    +0.000 OA
ATOM     13  C   UNL     1      49.621  10.527  14.392  0.00  0.00    +0.000 C 
ATOM     14  C   UNL     1      48.844  11.590  13.599  0.00  0.00    +0.000 C 
ENDBRANCH   8   9
ENDBRANCH   5   8
ENDBRANCH   1   2
BRANCH   1  15
ATOM     15  N   UNL     1      46.958   5.378  14.503  0.00  0.00    +0.000 N 
ATOM     16  C   UNL     1      47.346   4.145  14.957  0.00  0.00    +0.000 C 
ATOM     17  O   UNL     1      47.300   3.145  14.244  0.00  0.00    +0.000 OA
ATOM     18  H   UNL     1      46.936   6.165  15.139  0.00  0.00    +0.000 HD
BRANCH  16  19
ATOM     19  C   UNL     1      47.842   4.079  16.343  0.00  0.00    +0.000 A 
ATOM     20  C   UNL     1      47.314   3.137  17.217  0.00  0.00    +0.000 A 
ATOM     21  S   UNL     1      48.003   3.180  18.778  0.00  0.00    +0.000 S 
ATOM     22  C   UNL     1      49.028   4.467  18.349  0.00  0.00    +0.000 A 
ATOM     23  N   UNL     1      49.895   4.996  19.256  0.00  0.00    +0.000 NA
ATOM     24  C   UNL     1      50.612   5.968  18.807  0.00  0.00    +0.000 A 
ATOM     25  N   UNL     1      50.536   6.468  17.538  0.00  0.00    +0.000 N 
ATOM     26  C   UNL     1      49.660   5.983  16.596  0.00  0.00    +0.000 A 
ATOM     27  O   UNL     1      49.604   6.487  15.477  0.00  0.00    +0.000 OA
ATOM     28  C   UNL     1      48.844   4.865  17.036  0.00  0.00    +0.000 A 
ATOM     29  H   UNL     1      51.117   7.239  17.243  0.00  0.00    +0.000 HD
ENDBRANCH  16  19
ENDBRANCH   1  15
BRANCH   1  30
ATOM     30  C   UNL     1      44.821   5.352  13.297  0.00  0.00    +0.000 C 
BRANCH  30  32
ATOM     31  C   UNL     1      43.579   3.346  12.266  0.00  0.00    +0.000 C 
ATOM     32  C   UNL     1      44.160   4.745  12.041  0.00  0.00    +0.000 C 
ATOM     33  C   UNL     1      43.058   5.678  11.525  0.00  0.00    +0.000 C 
ENDBRANCH  30  32
ENDBRANCH   1  30
TORSDOF 7
ENDMDL
MODEL 5
REMARK VINA RESULT:    -5.946      1.768      2.025
REMARK INTER + INTRA:         -10.209
REMARK INTER:                  -8.692
REMARK INTRA:                  -1.516
REMARK UNBOUND:                -1.829
REMARK  Name = 
REMARK  9 active torsions:
REMARK  status: ('A' for Active; 'I' for Inactive)
REMARK    1  A    between atoms: C_1  and  C_2
REMARK    2  A    between atoms: C_2  and  C_3
REMARK    3  A    between atoms: C_2  and  C_4
REMARK    4  A    between atoms: C_4  and  C_5
REMARK    5  A    between atoms: C_5  and  N_6
REMARK    6  A    between atoms: C_5  and  C_19
REMARK    7  A    between atoms: C_7  and  C_9
REMARK    8  A    between atoms: C_22  and  C_23
REMARK    9  A    between atoms: C_23  and  N_24
REMARK                            x       y       z     vdW  Elec       q    Type
REMARK                         _______ _______ _______ _____ _____    ______ ____
ROOT
ATOM      1  C   UNL     1      48.467   8.203  13.843  0.00  0.00    +0.000 C 
ENDROOT
BRANCH   1   2
ATOM      2  C   UNL     1      47.271   7.746  13.011  0.00  0.00    +0.000 A 
ATOM      3  C   UNL     1      47.442   6.637  12.168  0.00  0.00    +0.000 A 
ATOM      4  C   UNL     1      46.390   6.149  11.386  0.00  0.00    +0.000 A 
ATOM      5  C   UNL     1      45.127   6.752  11.412  0.00  0.00    +0.000 A 
ATOM      6  C   UNL     1      44.965   7.897  12.209  0.00  0.00    +0.000 A 
ATOM      7  C   UNL     1      46.029   8.396  12.988  0.00  0.00    +0.000 A 
BRANCH   5   8
ATOM      8  C   UNL     1      44.025   6.237  10.512  0.00  0.00    +0.000 C 
BRANCH   8   9
ATOM      9  N   UNL     1      43.216   5.093  10.932  0.00  0.00    +0.000 NA
ATOM     10  C   UNL     1      42.586   5.168  12.251  0.00  0.00    +0.000 C 
ATOM     11  C   UNL     1      43.414   4.554  13.389  0.00  0.00    +0.000 C 
ATOM     12  O   UNL     1      43.818   3.212  13.088  0.00  0.00    +0.000 OA
ATOM     13  C   UNL     1      44.556   3.157  11.860  0.00  0.00    +0.000 C 
ATOM     14  C   UNL     1      43.760   3.753  10.688  0.00  0.00    +0.000 C 
ENDBRANCH   8   9
ENDBRANCH   5   8
ENDBRANCH   1   2
BRANCH   1  15
ATOM     15  N   UNL     1      48.227   7.828  15.227  0.00  0.00    +0.000 N 
ATOM     16  C   UNL     1      48.614   8.578  16.305  0.00  0.00    +0.000 C 
ATOM     17  O   UNL     1      49.110   9.695  16.178  0.00  0.00    +0.000 OA
ATOM     18  H   UNL     1      47.895   6.881  15.363  0.00  0.00    +0.000 HD
BRANCH  16  19
ATOM     19  C   UNL     1      48.391   7.983  17.635  0.00  0.00    +0.000 A 
ATOM     20  C   UNL     1      47.935   8.781  18.677  0.00  0.00    +0.000 A 
ATOM     21  S   UNL     1      47.712   7.942  20.145  0.00  0.00    +0.000 S 
ATOM     22  C   UNL     1      48.225   6.478  19.449  0.00  0.00    +0.000 A 
ATOM     23  N   UNL     1      48.273   5.336  20.189  0.00  0.00    +0.000 NA
ATOM     24  C   UNL     1      48.682   4.297  19.544  0.00  0.00    +0.000 A 
ATOM     25  N   UNL     1      49.058   4.296  18.231  0.00  0.00    +0.000 N 
ATOM     26  C   UNL     1      49.049   5.428  17.451  0.00  0.00    +0.000 A 
ATOM     27  O   UNL     1      49.429   5.385  16.283  0.00  0.00    +0.000 OA
ATOM     28  C   UNL     1      48.569   6.627  18.116  0.00  0.00    +0.000 A 
ATOM     29  H   UNL     1      49.380   3.453  17.779  0.00  0.00    +0.000 HD
ENDBRANCH  16  19
ENDBRANCH   1  15
BRANCH   1  30
ATOM     30  C   UNL     1      49.861   7.693  13.401  0.00  0.00    +0.000 C 
BRANCH  30  32
ATOM     31  C   UNL     1      50.883   7.830  11.041  0.00  0.00    +0.000 C 
ATOM     32  C   UNL     1      50.603   8.558  12.359  0.00  0.00    +0.000 C 
ATOM     33  C   UNL     1      49.807   9.837  12.077  0.00  0.00    +0.000 C 
ENDBRANCH  30  32
ENDBRANCH   1  30
TORSDOF 7
ENDMDL
MODEL 6
REMARK VINA RESULT:    -5.930      1.621      2.237
REMARK INTER + INTRA:         -10.185
REMARK INTER:                  -8.732
REMARK INTRA:                  -1.453
REMARK UNBOUND:                -1.829
REMARK  Name = 
REMARK  9 active torsions:
REMARK  status: ('A' for Active; 'I' for Inactive)
REMARK    1  A    between atoms: C_1  and  C_2
REMARK    2  A    between atoms: C_2  and  C_3
REMARK    3  A    between atoms: C_2  and  C_4
REMARK    4  A    between atoms: C_4  and  C_5
REMARK    5  A    between atoms: C_5  and  N_6
REMARK    6  A    between atoms: C_5  and  C_19
REMARK    7  A    between atoms: C_7  and  C_9
REMARK    8  A    between atoms: C_22  and  C_23
REMARK    9  A    between atoms: C_23  and  N_24
REMARK                            x       y       z     vdW  Elec       q    Type
REMARK                         _______ _______ _______ _____ _____    ______ ____
ROOT
ATOM      1  C   UNL     1      48.737   8.044  15.635  0.00  0.00    +0.000 C 
ENDROOT
BRANCH   1   2
ATOM      2  C   UNL     1      47.972   7.545  14.412  0.00  0.00    +0.000 A 
ATOM      3  C   UNL     1      48.046   6.178  14.102  0.00  0.00    +0.000 A 
ATOM      4  C   UNL     1      47.360   5.643  13.007  0.00  0.00    +0.000 A 
ATOM      5  C   UNL     1      46.578   6.453  12.175  0.00  0.00    +0.000 A 
ATOM      6  C   UNL     1      46.546   7.830  12.446  0.00  0.00    +0.000 A 
ATOM      7  C   UNL     1      47.246   8.371  13.542  0.00  0.00    +0.000 A 
BRANCH   5   8
ATOM      8  C   UNL     1      45.894   5.855  10.965  0.00  0.00    +0.000 C 
BRANCH   8   9
ATOM      9  N   UNL     1      44.462   5.560  11.007  0.00  0.00    +0.000 NA
ATOM     10  C   UNL     1      43.840   5.462  12.328  0.00  0.00    +0.000 C 
ATOM     11  C   UNL     1      43.793   4.040  12.907  0.00  0.00    +0.000 C 
ATOM     12  O   UNL     1      43.201   3.112  11.989  0.00  0.00    +0.000 OA
ATOM     13  C   UNL     1      43.897   3.108  10.736  0.00  0.00    +0.000 C 
ATOM     14  C   UNL     1      43.959   4.512  10.113  0.00  0.00    +0.000 C 
ENDBRANCH   8   9
ENDBRANCH   5   8
ENDBRANCH   1   2
BRANCH   1  15
ATOM     15  N   UNL     1      49.640   6.989  16.068  0.00  0.00    +0.000 N 
ATOM     16  C   UNL     1      49.548   6.344  17.273  0.00  0.00    +0.000 C 
ATOM     17  O   UNL     1      48.615   6.541  18.047  0.00  0.00    +0.000 OA
ATOM     18  H   UNL     1      50.460   6.862  15.489  0.00  0.00    +0.000 HD
BRANCH  16  19
ATOM     19  C   UNL     1      50.620   5.384  17.588  0.00  0.00    +0.000 A 
ATOM     20  C   UNL     1      51.826   5.844  18.101  0.00  0.00    +0.000 A 
ATOM     21  S   UNL     1      52.956   4.609  18.428  0.00  0.00    +0.000 S 
ATOM     22  C   UNL     1      51.881   3.408  17.887  0.00  0.00    +0.000 A 
ATOM     23  N   UNL     1      52.242   2.095  17.899  0.00  0.00    +0.000 NA
ATOM     24  C   UNL     1      51.339   1.287  17.461  0.00  0.00    +0.000 A 
ATOM     25  N   UNL     1      50.111   1.670  17.001  0.00  0.00    +0.000 N 
ATOM     26  C   UNL     1      49.711   2.984  16.947  0.00  0.00    +0.000 A 
ATOM     27  O   UNL     1      48.609   3.283  16.494  0.00  0.00    +0.000 OA
ATOM     28  C   UNL     1      50.678   3.941  17.456  0.00  0.00    +0.000 A 
ATOM     29  H   UNL     1      49.444   0.993  16.660  0.00  0.00    +0.000 HD
ENDBRANCH  16  19
ENDBRANCH   1  15
BRANCH   1  30
ATOM     30  C   UNL     1      49.526   9.367  15.474  0.00  0.00    +0.000 C 
BRANCH  30  32
ATOM     31  C   UNL     1      49.233  11.860  16.048  0.00  0.00    +0.000 C 
ATOM     32  C   UNL     1      49.313  10.425  16.577  0.00  0.00    +0.000 C 
ATOM     33  C   UNL     1      48.043  10.104  17.374  0.00  0.00    +0.000 C 
ENDBRANCH  30  32
ENDBRANCH   1  30
TORSDOF 7
ENDMDL
MODEL 7
REMARK VINA RESULT:    -5.911      2.677      5.151
REMARK INTER + INTRA:         -10.159
REMARK INTER:                  -9.163
REMARK INTRA:                  -0.997
REMARK UNBOUND:                -1.829
REMARK  Name = 
REMARK  9 active torsions:
REMARK  status: ('A' for Active; 'I' for Inactive)
REMARK    1  A    between atoms: C_1  and  C_2
REMARK    2  A    between atoms: C_2  and  C_3
REMARK    3  A    between atoms: C_2  and  C_4
REMARK    4  A    between atoms: C_4  and  C_5
REMARK    5  A    between atoms: C_5  and  N_6
REMARK    6  A    between atoms: C_5  and  C_19
REMARK    7  A    between atoms: C_7  and  C_9
REMARK    8  A    between atoms: C_22  and  C_23
REMARK    9  A    between atoms: C_23  and  N_24
REMARK                            x       y       z     vdW  Elec       q    Type
REMARK                         _______ _______ _______ _____ _____    ______ ____
ROOT
ATOM      1  C   UNL     1      48.011   4.787  16.260  0.00  0.00    +0.000 C 
ENDROOT
BRANCH   1   2
ATOM      2  C   UNL     1      47.449   5.098  14.875  0.00  0.00    +0.000 A 
ATOM      3  C   UNL     1      46.936   4.032  14.120  0.00  0.00    +0.000 A 
ATOM      4  C   UNL     1      46.390   4.239  12.848  0.00  0.00    +0.000 A 
ATOM      5  C   UNL     1      46.340   5.517  12.280  0.00  0.00    +0.000 A 
ATOM      6  C   UNL     1      46.904   6.578  13.006  0.00  0.00    +0.000 A 
ATOM      7  C   UNL     1      47.465   6.368  14.282  0.00  0.00    +0.000 A 
BRANCH   5   8
ATOM      8  C   UNL     1      45.796   5.701  10.880  0.00  0.00    +0.000 C 
BRANCH   8   9
ATOM      9  N   UNL     1      44.409   5.344  10.584  0.00  0.00    +0.000 NA
ATOM     10  C   UNL     1      43.451   5.416  11.688  0.00  0.00    +0.000 C 
ATOM     11  C   UNL     1      43.258   4.098  12.453  0.00  0.00    +0.000 C 
ATOM     12  O   UNL     1      42.945   3.013  11.570  0.00  0.00    +0.000 OA
ATOM     13  C   UNL     1      43.956   2.854  10.566  0.00  0.00    +0.000 C 
ATOM     14  C   UNL     1      44.176   4.150   9.767  0.00  0.00    +0.000 C 
ENDBRANCH   8   9
ENDBRANCH   5   8
ENDBRANCH   1   2
BRANCH   1  15
ATOM     15  N   UNL     1      47.719   5.913  17.132  0.00  0.00    +0.000 N 
ATOM     16  C   UNL     1      48.670   6.629  17.810  0.00  0.00    +0.000 C 
ATOM     17  O   UNL     1      49.872   6.433  17.646  0.00  0.00    +0.000 OA
ATOM     18  H   UNL     1      46.739   6.046  17.348  0.00  0.00    +0.000 HD
BRANCH  16  19
ATOM     19  C   UNL     1      48.179   7.662  18.738  0.00  0.00    +0.000 A 
ATOM     20  C   UNL     1      47.936   7.334  20.066  0.00  0.00    +0.000 A 
ATOM     21  S   UNL     1      47.387   8.642  21.013  0.00  0.00    +0.000 S 
ATOM     22  C   UNL     1      47.443   9.700  19.682  0.00  0.00    +0.000 A 
ATOM     23  N   UNL     1      47.084  11.006  19.817  0.00  0.00    +0.000 NA
ATOM     24  C   UNL     1      47.169  11.699  18.734  0.00  0.00    +0.000 A 
ATOM     25  N   UNL     1      47.568  11.205  17.525  0.00  0.00    +0.000 N 
ATOM     26  C   UNL     1      47.916   9.888  17.334  0.00  0.00    +0.000 A 
ATOM     27  O   UNL     1      48.236   9.482  16.220  0.00  0.00    +0.000 OA
ATOM     28  C   UNL     1      47.868   9.063  18.528  0.00  0.00    +0.000 A 
ATOM     29  H   UNL     1      47.606  11.792  16.705  0.00  0.00    +0.000 HD
ENDBRANCH  16  19
ENDBRANCH   1  15
BRANCH   1  30
ATOM     30  C   UNL     1      47.532   3.475  16.930  0.00  0.00    +0.000 C 
BRANCH  30  32
ATOM     31  C   UNL     1      49.991   2.807  17.305  0.00  0.00    +0.000 C 
ATOM     32  C   UNL     1      48.556   2.762  17.839  0.00  0.00    +0.000 C 
ATOM     33  C   UNL     1      48.517   3.365  19.248  0.00  0.00    +0.000 C 
ENDBRANCH  30  32
ENDBRANCH   1  30
TORSDOF 7
ENDMDL
MODEL 8
REMARK VINA RESULT:    -5.789      1.493      2.131
REMARK INTER + INTRA:          -9.987
REMARK INTER:                  -8.470
REMARK INTRA:                  -1.517
REMARK UNBOUND:                -1.829
REMARK  Name = 
REMARK  9 active torsions:
REMARK  status: ('A' for Active; 'I' for Inactive)
REMARK    1  A    between atoms: C_1  and  C_2
REMARK    2  A    between atoms: C_2  and  C_3
REMARK    3  A    between atoms: C_2  and  C_4
REMARK    4  A    between atoms: C_4  and  C_5
REMARK    5  A    between atoms: C_5  and  N_6
REMARK    6  A    between atoms: C_5  and  C_19
REMARK    7  A    between atoms: C_7  and  C_9
REMARK    8  A    between atoms: C_22  and  C_23
REMARK    9  A    between atoms: C_23  and  N_24
REMARK                            x       y       z     vdW  Elec       q    Type
REMARK                         _______ _______ _______ _____ _____    ______ ____
ROOT
ATOM      1  C   UNL     1      48.193   8.127  14.439  0.00  0.00    +0.000 C 
ENDROOT
BRANCH   1   2
ATOM      2  C   UNL     1      47.129   7.707  13.428  0.00  0.00    +0.000 A 
ATOM      3  C   UNL     1      47.260   6.449  12.819  0.00  0.00    +0.000 A 
ATOM      4  C   UNL     1      46.318   5.987  11.894  0.00  0.00    +0.000 A 
ATOM      5  C   UNL     1      45.210   6.765  11.538  0.00  0.00    +0.000 A 
ATOM      6  C   UNL     1      45.103   8.046  12.100  0.00  0.00    +0.000 A 
ATOM      7  C   UNL     1      46.058   8.517  13.023  0.00  0.00    +0.000 A 
BRANCH   5   8
ATOM      8  C   UNL     1      44.239   6.261  10.492  0.00  0.00    +0.000 C 
BRANCH   8   9
ATOM      9  N   UNL     1      43.292   5.198  10.828  0.00  0.00    +0.000 NA
ATOM     10  C   UNL     1      42.552   5.335  12.082  0.00  0.00    +0.000 C 
ATOM     11  C   UNL     1      43.209   4.649  13.290  0.00  0.00    +0.000 C 
ATOM     12  O   UNL     1      43.514   3.275  13.018  0.00  0.00    +0.000 OA
ATOM     13  C   UNL     1      44.355   3.149  11.865  0.00  0.00    +0.000 C 
ATOM     14  C   UNL     1      43.730   3.813  10.627  0.00  0.00    +0.000 C 
ENDBRANCH   8   9
ENDBRANCH   5   8
ENDBRANCH   1   2
BRANCH   1  15
ATOM     15  N   UNL     1      48.668   6.934  15.121  0.00  0.00    +0.000 N 
ATOM     16  C   UNL     1      48.868   6.849  16.473  0.00  0.00    +0.000 C 
ATOM     17  O   UNL     1      48.554   7.759  17.236  0.00  0.00    +0.000 OA
ATOM     18  H   UNL     1      49.008   6.199  14.513  0.00  0.00    +0.000 HD
BRANCH  16  19
ATOM     19  C   UNL     1      49.464   5.598  16.972  0.00  0.00    +0.000 A 
ATOM     20  C   UNL     1      48.645   4.513  17.261  0.00  0.00    +0.000 A 
ATOM     21  S   UNL     1      49.488   3.137  17.813  0.00  0.00    +0.000 S 
ATOM     22  C   UNL     1      50.983   3.939  17.699  0.00  0.00    +0.000 A 
ATOM     23  N   UNL     1      52.139   3.306  18.038  0.00  0.00    +0.000 NA
ATOM     24  C   UNL     1      53.201   4.025  17.910  0.00  0.00    +0.000 A 
ATOM     25  N   UNL     1      53.213   5.323  17.484  0.00  0.00    +0.000 N 
ATOM     26  C   UNL     1      52.070   6.011  17.155  0.00  0.00    +0.000 A 
ATOM     27  O   UNL     1      52.128   7.189  16.810  0.00  0.00    +0.000 OA
ATOM     28  C   UNL     1      50.842   5.242  17.252  0.00  0.00    +0.000 A 
ATOM     29  H   UNL     1      54.076   5.843  17.412  0.00  0.00    +0.000 HD
ENDBRANCH  16  19
ENDBRANCH   1  15
BRANCH   1  30
ATOM     30  C   UNL     1      49.400   8.927  13.890  0.00  0.00    +0.000 C 
BRANCH  30  32
ATOM     31  C   UNL     1      50.389   8.142  11.646  0.00  0.00    +0.000 C 
ATOM     32  C   UNL     1      50.492   8.104  13.173  0.00  0.00    +0.000 C 
ATOM     33  C   UNL     1      51.882   8.588  13.603  0.00  0.00    +0.000 C 
ENDBRANCH  30  32
ENDBRANCH   1  30
TORSDOF 7
ENDMDL
MODEL 9
REMARK VINA RESULT:    -5.624      1.848      2.435
REMARK INTER + INTRA:          -9.754
REMARK INTER:                  -8.236
REMARK INTRA:                  -1.518
REMARK UNBOUND:                -1.829
REMARK  Name = 
REMARK  9 active torsions:
REMARK  status: ('A' for Active; 'I' for Inactive)
REMARK    1  A    between atoms: C_1  and  C_2
REMARK    2  A    between atoms: C_2  and  C_3
REMARK    3  A    between atoms: C_2  and  C_4
REMARK    4  A    between atoms: C_4  and  C_5
REMARK    5  A    between atoms: C_5  and  N_6
REMARK    6  A    between atoms: C_5  and  C_19
REMARK    7  A    between atoms: C_7  and  C_9
REMARK    8  A    between atoms: C_22  and  C_23
REMARK    9  A    between atoms: C_23  and  N_24
REMARK                            x       y       z     vdW  Elec       q    Type
REMARK                         _______ _______ _______ _____ _____    ______ ____
ROOT
ATOM      1  C   UNL     1      48.618   7.563  13.662  0.00  0.00    +0.000 C 
ENDROOT
BRANCH   1   2
ATOM      2  C   UNL     1      47.326   6.782  13.434  0.00  0.00    +0.000 A 
ATOM      3  C   UNL     1      46.205   7.486  12.969  0.00  0.00    +0.000 A 
ATOM      4  C   UNL     1      44.990   6.837  12.722  0.00  0.00    +0.000 A 
ATOM      5  C   UNL     1      44.847   5.461  12.933  0.00  0.00    +0.000 A 
ATOM      6  C   UNL     1      45.948   4.761  13.451  0.00  0.00    +0.000 A 
ATOM      7  C   UNL     1      47.168   5.416  13.712  0.00  0.00    +0.000 A 
BRANCH   5   8
ATOM      8  C   UNL     1      43.505   4.798  12.710  0.00  0.00    +0.000 C 
BRANCH   8   9
ATOM      9  N   UNL     1      43.181   4.227  11.403  0.00  0.00    +0.000 NA
ATOM     10  C   UNL     1      43.439   2.799  11.216  0.00  0.00    +0.000 C 
ATOM     11  C   UNL     1      44.819   2.471  10.627  0.00  0.00    +0.000 C 
ATOM     12  O   UNL     1      45.067   3.201   9.419  0.00  0.00    +0.000 OA
ATOM     13  C   UNL     1      44.949   4.613   9.633  0.00  0.00    +0.000 C 
ATOM     14  C   UNL     1      43.576   4.989  10.214  0.00  0.00    +0.000 C 
ENDBRANCH   8   9
ENDBRANCH   5   8
ENDBRANCH   1   2
BRANCH   1  15
ATOM     15  N   UNL     1      49.060   7.322  15.026  0.00  0.00    +0.000 N 
ATOM     16  C   UNL     1      48.942   8.229  16.045  0.00  0.00    +0.000 C 
ATOM     17  O   UNL     1      48.347   9.295  15.902  0.00  0.00    +0.000 OA
ATOM     18  H   UNL     1      49.621   6.489  15.154  0.00  0.00    +0.000 HD
BRANCH  16  19
ATOM     19  C   UNL     1      49.551   7.855  17.333  0.00  0.00    +0.000 A 
ATOM     20  C   UNL     1      50.438   8.727  17.953  0.00  0.00    +0.000 A 
ATOM     21  S   UNL     1      51.043   8.155  19.442  0.00  0.00    +0.000 S 
ATOM     22  C   UNL     1      50.150   6.714  19.314  0.00  0.00    +0.000 A 
ATOM     23  N   UNL     1      50.223   5.763  20.286  0.00  0.00    +0.000 NA
ATOM     24  C   UNL     1      49.501   4.718  20.067  0.00  0.00    +0.000 A 
ATOM     25  N   UNL     1      48.721   4.530  18.961  0.00  0.00    +0.000 N 
ATOM     26  C   UNL     1      48.634   5.451  17.944  0.00  0.00    +0.000 A 
ATOM     27  O   UNL     1      47.945   5.222  16.953  0.00  0.00    +0.000 OA
ATOM     28  C   UNL     1      49.405   6.665  18.148  0.00  0.00    +0.000 A 
ATOM     29  H   UNL     1      48.182   3.685  18.837  0.00  0.00    +0.000 HD
ENDBRANCH  16  19
ENDBRANCH   1  15
BRANCH   1  30
ATOM     30  C   UNL     1      49.785   7.285  12.682  0.00  0.00    +0.000 C 
BRANCH  30  32
ATOM     31  C   UNL     1      49.116   9.521  11.594  0.00  0.00    +0.000 C 
ATOM     32  C   UNL     1      49.853   8.189  11.432  0.00  0.00    +0.000 C 
ATOM     33  C   UNL     1      51.316   8.457  11.058  0.00  0.00    +0.000 C 
ENDBRANCH  30  32
ENDBRANCH   1  30
TORSDOF 7
ENDMDL
