MODEL 1
REMARK VINA RESULT:    -7.433      0.000      0.000
REMARK INTER + INTRA:         -10.458
REMARK INTER:                  -9.606
REMARK INTRA:                  -0.852
REMARK UNBOUND:                -0.852
REMARK  Name = 
REMARK  5 active torsions:
REMARK  status: ('A' for Active; 'I' for Inactive)
REMARK    1  A    between atoms: C_2  and  C_4
REMARK    2  A    between atoms: C_8  and  S_9
REMARK    3  A    between atoms: S_9  and  C_10
REMARK    4  A    between atoms: C_10  and  C_11
REMARK    5  A    between atoms: C_16  and  C_17
REMARK                            x       y       z     vdW  Elec       q    Type
REMARK                         _______ _______ _______ _____ _____    ______ ____
ROOT
ATOM      1  C   UNL     1      47.205   7.058  12.379  0.00  0.00    +0.000 A 
ATOM      2  C   UNL     1      46.649   8.296  12.713  0.00  0.00    +0.000 A 
ATOM      3  C   UNL     1      45.380   8.628  12.253  0.00  0.00    +0.000 A 
ATOM      4  F   UNL     1      44.858   9.820  12.567  0.00  0.00    +0.000 F 
ATOM      5  C   UNL     1      44.613   7.715  11.536  0.00  0.00    +0.000 A 
ATOM      6  C   UNL     1      45.108   6.429  11.276  0.00  0.00    +0.000 A 
ATOM      7  C   UNL     1      46.432   6.159  11.630  0.00  0.00    +0.000 A 
ENDROOT
BRANCH   6   8
ATOM      8  C   UNL     1      44.164   5.335  10.789  0.00  0.00    +0.000 C 
ATOM      9  C   UNL     1      42.894   5.338  11.664  0.00  0.00    +0.000 C 
ATOM     10  C   UNL     1      43.149   4.704  13.032  0.00  0.00    +0.000 C 
ATOM     11  N   UNL     1      43.583   3.313  12.907  0.00  0.00    +0.000 NA
ATOM     12  C   UNL     1      44.802   3.196  12.112  0.00  0.00    +0.000 C 
ATOM     13  C   UNL     1      44.709   3.888  10.743  0.00  0.00    +0.000 C 
ATOM     14  H   UNL     1      42.842   2.770  12.466  0.00  0.00    +0.000 HD
ENDBRANCH   6   8
BRANCH   1  15
ATOM     15  C   UNL     1      48.525   6.616  12.966  0.00  0.00    +0.000 C 
BRANCH  15  16
ATOM     16  S   UNL     1      49.206   7.763  14.218  0.00  0.00    +0.000 S 
BRANCH  16  21
ATOM     17  C   UNL     1      48.144   4.878  16.673  0.00  0.00    +0.000 A 
ATOM     18  C   UNL     1      48.105   5.444  17.938  0.00  0.00    +0.000 A 
ATOM     19  C   UNL     1      48.480   6.777  18.065  0.00  0.00    +0.000 A 
ATOM     20  C   UNL     1      48.857   7.493  16.929  0.00  0.00    +0.000 A 
ATOM     21  C   UNL     1      48.837   6.851  15.695  0.00  0.00    +0.000 A 
ATOM     22  N   UNL     1      48.507   5.553  15.552  0.00  0.00    +0.000 NA
BRANCH  17  24
ATOM     23  N   UNL     1      46.987   2.906  17.460  0.00  0.00    +0.000 N 
ATOM     24  C   UNL     1      47.773   3.445  16.470  0.00  0.00    +0.000 C 
ATOM     25  O   UNL     1      48.117   2.799  15.496  0.00  0.00    +0.000 OA
ATOM     26  H   UNL     1      46.680   1.950  17.390  0.00  0.00    +0.000 HD
ATOM     27  H   UNL     1      46.701   3.487  18.239  0.00  0.00    +0.000 HD
ENDBRANCH  17  24
ENDBRANCH  16  21
ENDBRANCH  15  16
ENDBRANCH   1  15
TORSDOF 5
ENDMDL
MODEL 2
REMARK VINA RESULT:    -7.396      4.064      7.408
REMARK INTER + INTRA:         -10.410
REMARK INTER:                  -9.725
REMARK INTRA:                  -0.685
REMARK UNBOUND:                -0.852
REMARK  Name = 
REMARK  5 active torsions:
REMARK  status: ('A' for Active; 'I' for Inactive)
REMARK    1  A    between atoms: C_2  and  C_4
REMARK    2  A    between atoms: C_8  and  S_9
REMARK    3  A    between atoms: S_9  and  C_10
REMARK    4  A    between atoms: C_10  and  C_11
REMARK    5  A    between atoms: C_16  and  C_17
REMARK                            x       y       z     vdW  Elec       q    Type
REMARK                         _______ _______ _______ _____ _____    ______ ____
ROOT
ATOM      1  C   UNL     1      45.252   4.696  12.339  0.00  0.00    +0.000 A 
ATOM      2  C   UNL     1      45.794   3.754  13.217  0.00  0.00    +0.000 A 
ATOM      3  C   UNL     1      46.925   4.075  13.959  0.00  0.00    +0.000 A 
ATOM      4  F   UNL     1      47.447   3.164  14.791  0.00  0.00    +0.000 F 
ATOM      5  C   UNL     1      47.481   5.350  13.909  0.00  0.00    +0.000 A 
ATOM      6  C   UNL     1      46.894   6.344  13.112  0.00  0.00    +0.000 A 
ATOM      7  C   UNL     1      45.841   5.967  12.276  0.00  0.00    +0.000 A 
ENDROOT
BRANCH   6   8
ATOM      8  C   UNL     1      47.292   7.803  13.302  0.00  0.00    +0.000 C 
ATOM      9  C   UNL     1      47.879   8.342  11.980  0.00  0.00    +0.000 C 
ATOM     10  C   UNL     1      49.303   7.837  11.748  0.00  0.00    +0.000 C 
ATOM     11  N   UNL     1      50.204   8.256  12.822  0.00  0.00    +0.000 NA
ATOM     12  C   UNL     1      49.752   7.774  14.124  0.00  0.00    +0.000 C 
ATOM     13  C   UNL     1      48.291   8.131  14.437  0.00  0.00    +0.000 C 
ATOM     14  H   UNL     1      50.252   9.274  12.839  0.00  0.00    +0.000 HD
ENDBRANCH   6   8
BRANCH   1  15
ATOM     15  C   UNL     1      43.954   4.425  11.615  0.00  0.00    +0.000 C 
BRANCH  15  16
ATOM     16  S   UNL     1      43.885   2.794  10.790  0.00  0.00    +0.000 S 
BRANCH  16  21
ATOM     17  C   UNL     1      46.464   2.310   7.858  0.00  0.00    +0.000 A 
ATOM     18  C   UNL     1      46.723   3.577   7.360  0.00  0.00    +0.000 A 
ATOM     19  C   UNL     1      46.026   4.647   7.913  0.00  0.00    +0.000 A 
ATOM     20  C   UNL     1      45.121   4.412   8.947  0.00  0.00    +0.000 A 
ATOM     21  C   UNL     1      44.948   3.111   9.405  0.00  0.00    +0.000 A 
ATOM     22  N   UNL     1      45.587   2.055   8.865  0.00  0.00    +0.000 NA
BRANCH  17  24
ATOM     23  N   UNL     1      46.608  -0.094   7.646  0.00  0.00    +0.000 N 
ATOM     24  C   UNL     1      47.161   1.114   7.296  0.00  0.00    +0.000 C 
ATOM     25  O   UNL     1      48.134   1.191   6.565  0.00  0.00    +0.000 OA
ATOM     26  H   UNL     1      47.009  -0.949   7.294  0.00  0.00    +0.000 HD
ATOM     27  H   UNL     1      45.783  -0.112   8.233  0.00  0.00    +0.000 HD
ENDBRANCH  17  24
ENDBRANCH  16  21
ENDBRANCH  15  16
ENDBRANCH   1  15
TORSDOF 5
ENDMDL
MODEL 3
REMARK VINA RESULT:    -7.084      1.874      2.552
REMARK INTER + INTRA:         -10.006
REMARK INTER:                  -9.217
REMARK INTRA:                  -0.790
REMARK UNBOUND:                -0.852
REMARK  Name = 
REMARK  5 active torsions:
REMARK  status: ('A' for Active; 'I' for Inactive)
REMARK    1  A    between atoms: C_2  and  C_4
REMARK    2  A    between atoms: C_8  and  S_9
REMARK    3  A    between atoms: S_9  and  C_10
REMARK    4  A    between atoms: C_10  and  C_11
REMARK    5  A    between atoms: C_16  and  C_17
REMARK                            x       y       z     vdW  Elec       q    Type
REMARK                         _______ _______ _______ _____ _____    ______ ____
ROOT
ATOM      1  C   UNL     1      47.737   6.893  13.734  0.00  0.00    +0.000 A 
ATOM      2  C   UNL     1      47.153   8.139  13.488  0.00  0.00    +0.000 A 
ATOM      3  C   UNL     1      45.861   8.207  12.983  0.00  0.00    +0.000 A 
ATOM      4  F   UNL     1      45.311   9.404  12.738  0.00  0.00    +0.000 F 
ATOM      5  C   UNL     1      45.099   7.056  12.796  0.00  0.00    +0.000 A 
ATOM      6  C   UNL     1      45.626   5.801  13.133  0.00  0.00    +0.000 A 
ATOM      7  C   UNL     1      46.968   5.741  13.513  0.00  0.00    +0.000 A 
ENDROOT
BRANCH   6   8
ATOM      8  C   UNL     1      44.702   4.593  13.241  0.00  0.00    +0.000 C 
ATOM      9  C   UNL     1      45.193   3.494  12.275  0.00  0.00    +0.000 C 
ATOM     10  C   UNL     1      44.834   3.817  10.824  0.00  0.00    +0.000 C 
ATOM     11  N   UNL     1      43.387   3.936  10.642  0.00  0.00    +0.000 NA
ATOM     12  C   UNL     1      42.818   4.974  11.497  0.00  0.00    +0.000 C 
ATOM     13  C   UNL     1      43.194   4.820  12.979  0.00  0.00    +0.000 C 
ATOM     14  H   UNL     1      42.948   3.043  10.861  0.00  0.00    +0.000 HD
ENDBRANCH   6   8
BRANCH   1  15
ATOM     15  C   UNL     1      49.088   6.786  14.401  0.00  0.00    +0.000 C 
BRANCH  15  16
ATOM     16  S   UNL     1      49.043   6.997  16.217  0.00  0.00    +0.000 S 
BRANCH  16  21
ATOM     17  C   UNL     1      49.564   3.216  17.172  0.00  0.00    +0.000 A 
ATOM     18  C   UNL     1      48.295   2.676  17.314  0.00  0.00    +0.000 A 
ATOM     19  C   UNL     1      47.206   3.529  17.165  0.00  0.00    +0.000 A 
ATOM     20  C   UNL     1      47.426   4.872  16.862  0.00  0.00    +0.000 A 
ATOM     21  C   UNL     1      48.734   5.319  16.708  0.00  0.00    +0.000 A 
ATOM     22  N   UNL     1      49.804   4.520  16.878  0.00  0.00    +0.000 NA
BRANCH  17  24
ATOM     23  N   UNL     1      51.758   2.902  18.136  0.00  0.00    +0.000 N 
ATOM     24  C   UNL     1      50.777   2.360  17.340  0.00  0.00    +0.000 C 
ATOM     25  O   UNL     1      50.892   1.258  16.833  0.00  0.00    +0.000 OA
ATOM     26  H   UNL     1      52.602   2.381  18.314  0.00  0.00    +0.000 HD
ATOM     27  H   UNL     1      51.610   3.809  18.560  0.00  0.00    +0.000 HD
ENDBRANCH  17  24
ENDBRANCH  16  21
ENDBRANCH  15  16
ENDBRANCH   1  15
TORSDOF 5
ENDMDL
MODEL 4
REMARK VINA RESULT:    -6.306      4.671      6.170
REMARK INTER + INTRA:          -9.001
REMARK INTER:                  -8.376
REMARK INTRA:                  -0.625
REMARK UNBOUND:                -0.852
REMARK  Name = 
REMARK  5 active torsions:
REMARK  status: ('A' for Active; 'I' for Inactive)
REMARK    1  A    between atoms: C_2  and  C_4
REMARK    2  A    between atoms: C_8  and  S_9
REMARK    3  A    between atoms: S_9  and  C_10
REMARK    4  A    between atoms: C_10  and  C_11
REMARK    5  A    between atoms: C_16  and  C_17
REMARK                            x       y       z     vdW  Elec       q    Type
REMARK                         _______ _______ _______ _____ _____    ______ ____
ROOT
ATOM      1  C   UNL     1      45.861   5.641  11.272  0.00  0.00    +0.000 A 
ATOM      2  C   UNL     1      45.178   4.962  12.285  0.00  0.00    +0.000 A 
ATOM      3  C   UNL     1      44.196   4.037  11.953  0.00  0.00    +0.000 A 
ATOM      4  F   UNL     1      43.537   3.398  12.929  0.00  0.00    +0.000 F 
ATOM      5  C   UNL     1      43.935   3.708  10.626  0.00  0.00    +0.000 A 
ATOM      6  C   UNL     1      44.678   4.301   9.595  0.00  0.00    +0.000 A 
ATOM      7  C   UNL     1      45.566   5.321   9.939  0.00  0.00    +0.000 A 
ENDROOT
BRANCH   6   8
ATOM      8  C   UNL     1      44.627   3.714   8.188  0.00  0.00    +0.000 C 
ATOM      9  C   UNL     1      44.457   2.184   8.285  0.00  0.00    +0.000 C 
ATOM     10  C   UNL     1      45.764   1.494   8.679  0.00  0.00    +0.000 C 
ATOM     11  N   UNL     1      46.821   1.749   7.700  0.00  0.00    +0.000 NA
ATOM     12  C   UNL     1      47.083   3.177   7.547  0.00  0.00    +0.000 C 
ATOM     13  C   UNL     1      45.822   4.003   7.249  0.00  0.00    +0.000 C 
ATOM     14  H   UNL     1      46.544   1.360   6.800  0.00  0.00    +0.000 HD
ENDBRANCH   6   8
BRANCH   1  15
ATOM     15  C   UNL     1      47.019   6.557  11.594  0.00  0.00    +0.000 C 
BRANCH  15  16
ATOM     16  S   UNL     1      46.814   7.499  13.148  0.00  0.00    +0.000 S 
BRANCH  16  21
ATOM     17  C   UNL     1      44.678  10.427  11.617  0.00  0.00    +0.000 A 
ATOM     18  C   UNL     1      45.575  11.440  11.313  0.00  0.00    +0.000 A 
ATOM     19  C   UNL     1      46.912  11.245  11.645  0.00  0.00    +0.000 A 
ATOM     20  C   UNL     1      47.300  10.047  12.246  0.00  0.00    +0.000 A 
ATOM     21  C   UNL     1      46.335   9.075  12.486  0.00  0.00    +0.000 A 
ATOM     22  N   UNL     1      45.031   9.253  12.201  0.00  0.00    +0.000 NA
BRANCH  17  24
ATOM     23  N   UNL     1      42.779   9.824  10.248  0.00  0.00    +0.000 N 
ATOM     24  C   UNL     1      43.225  10.580  11.306  0.00  0.00    +0.000 C 
ATOM     25  O   UNL     1      42.478  11.300  11.945  0.00  0.00    +0.000 OA
ATOM     26  H   UNL     1      41.808   9.857   9.984  0.00  0.00    +0.000 HD
ATOM     27  H   UNL     1      43.429   9.219   9.761  0.00  0.00    +0.000 HD
ENDBRANCH  17  24
ENDBRANCH  16  21
ENDBRANCH  15  16
ENDBRANCH   1  15
TORSDOF 5
ENDMDL
MODEL 5
REMARK VINA RESULT:    -6.235      2.884      6.782
REMARK INTER + INTRA:          -8.909
REMARK INTER:                  -8.310
REMARK INTRA:                  -0.599
REMARK UNBOUND:                -0.852
REMARK  Name = 
REMARK  5 active torsions:
REMARK  status: ('A' for Active; 'I' for Inactive)
REMARK    1  A    between atoms: C_2  and  C_4
REMARK    2  A    between atoms: C_8  and  S_9
REMARK    3  A    between atoms: S_9  and  C_10
REMARK    4  A    between atoms: C_10  and  C_11
REMARK    5  A    between atoms: C_16  and  C_17
REMARK                            x       y       z     vdW  Elec       q    Type
REMARK                         _______ _______ _______ _____ _____    ______ ____
ROOT
ATOM      1  C   UNL     1      48.032   6.188  14.222  0.00  0.00    +0.000 A 
ATOM      2  C   UNL     1      48.963   7.213  14.415  0.00  0.00    +0.000 A 
ATOM      3  C   UNL     1      49.507   7.421  15.677  0.00  0.00    +0.000 A 
ATOM      4  F   UNL     1      50.390   8.412  15.858  0.00  0.00    +0.000 F 
ATOM      5  C   UNL     1      49.207   6.573  16.739  0.00  0.00    +0.000 A 
ATOM      6  C   UNL     1      48.355   5.476  16.545  0.00  0.00    +0.000 A 
ATOM      7  C   UNL     1      47.717   5.360  15.309  0.00  0.00    +0.000 A 
ENDROOT
BRANCH   6   8
ATOM      8  C   UNL     1      48.284   4.374  17.597  0.00  0.00    +0.000 C 
ATOM      9  C   UNL     1      49.665   4.228  18.269  0.00  0.00    +0.000 C 
ATOM     10  C   UNL     1      50.659   3.497  17.366  0.00  0.00    +0.000 C 
ATOM     11  N   UNL     1      50.195   2.149  17.038  0.00  0.00    +0.000 NA
ATOM     12  C   UNL     1      48.897   2.172  16.369  0.00  0.00    +0.000 C 
ATOM     13  C   UNL     1      47.829   2.970  17.132  0.00  0.00    +0.000 C 
ATOM     14  H   UNL     1      50.121   1.603  17.895  0.00  0.00    +0.000 HD
ENDBRANCH   6   8
BRANCH   1  15
ATOM     15  C   UNL     1      47.520   5.854  12.841  0.00  0.00    +0.000 C 
BRANCH  15  16
ATOM     16  S   UNL     1      45.861   6.535  12.476  0.00  0.00    +0.000 S 
BRANCH  16  21
ATOM     17  C   UNL     1      44.478   3.409  10.527  0.00  0.00    +0.000 A 
ATOM     18  C   UNL     1      43.565   2.801  11.374  0.00  0.00    +0.000 A 
ATOM     19  C   UNL     1      43.397   3.341  12.645  0.00  0.00    +0.000 A 
ATOM     20  C   UNL     1      44.128   4.472  13.009  0.00  0.00    +0.000 A 
ATOM     21  C   UNL     1      44.999   5.034  12.082  0.00  0.00    +0.000 A 
ATOM     22  N   UNL     1      45.201   4.511  10.858  0.00  0.00    +0.000 NA
BRANCH  17  24
ATOM     23  N   UNL     1      44.347   3.702   8.131  0.00  0.00    +0.000 N 
ATOM     24  C   UNL     1      44.722   2.868   9.156  0.00  0.00    +0.000 C 
ATOM     25  O   UNL     1      45.233   1.780   8.949  0.00  0.00    +0.000 OA
ATOM     26  H   UNL     1      44.493   3.418   7.176  0.00  0.00    +0.000 HD
ATOM     27  H   UNL     1      43.951   4.609   8.348  0.00  0.00    +0.000 HD
ENDBRANCH  17  24
ENDBRANCH  16  21
ENDBRANCH  15  16
ENDBRANCH   1  15
TORSDOF 5
ENDMDL
MODEL 6
REMARK VINA RESULT:    -6.194      3.921      5.927
REMARK INTER + INTRA:          -8.857
REMARK INTER:                  -8.168
REMARK INTRA:                  -0.689
REMARK UNBOUND:                -0.852
REMARK  Name = 
REMARK  5 active torsions:
REMARK  status: ('A' for Active; 'I' for Inactive)
REMARK    1  A    between atoms: C_2  and  C_4
REMARK    2  A    between atoms: C_8  and  S_9
REMARK    3  A    between atoms: S_9  and  C_10
REMARK    4  A    between atoms: C_10  and  C_11
REMARK    5  A    between atoms: C_16  and  C_17
REMARK                            x       y       z     vdW  Elec       q    Type
REMARK                         _______ _______ _______ _____ _____    ______ ____
ROOT
ATOM      1  C   UNL     1      47.484   7.169  12.421  0.00  0.00    +0.000 A 
ATOM      2  C   UNL     1      47.796   6.464  13.587  0.00  0.00    +0.000 A 
ATOM      3  C   UNL     1      47.106   5.297  13.892  0.00  0.00    +0.000 A 
ATOM      4  F   UNL     1      47.403   4.632  15.017  0.00  0.00    +0.000 F 
ATOM      5  C   UNL     1      46.166   4.766  13.014  0.00  0.00    +0.000 A 
ATOM      6  C   UNL     1      45.909   5.400  11.790  0.00  0.00    +0.000 A 
ATOM      7  C   UNL     1      46.513   6.638  11.560  0.00  0.00    +0.000 A 
ENDROOT
BRANCH   6   8
ATOM      8  C   UNL     1      45.139   4.663  10.699  0.00  0.00    +0.000 C 
ATOM      9  C   UNL     1      43.796   5.383  10.456  0.00  0.00    +0.000 C 
ATOM     10  C   UNL     1      42.787   5.086  11.566  0.00  0.00    +0.000 C 
ATOM     11  N   UNL     1      42.498   3.655  11.660  0.00  0.00    +0.000 NA
ATOM     12  C   UNL     1      43.706   2.875  11.917  0.00  0.00    +0.000 C 
ATOM     13  C   UNL     1      44.842   3.161  10.923  0.00  0.00    +0.000 C 
ATOM     14  H   UNL     1      42.075   3.341  10.788  0.00  0.00    +0.000 HD
ENDBRANCH   6   8
BRANCH   1  15
ATOM     15  C   UNL     1      48.299   8.368  11.997  0.00  0.00    +0.000 C 
BRANCH  15  16
ATOM     16  S   UNL     1      47.906   9.900  12.916  0.00  0.00    +0.000 S 
BRANCH  16  21
ATOM     17  C   UNL     1      44.700  10.756  10.802  0.00  0.00    +0.000 A 
ATOM     18  C   UNL     1      45.090  11.720   9.885  0.00  0.00    +0.000 A 
ATOM     19  C   UNL     1      46.399  12.184   9.948  0.00  0.00    +0.000 A 
ATOM     20  C   UNL     1      47.267  11.656  10.903  0.00  0.00    +0.000 A 
ATOM     21  C   UNL     1      46.798  10.669  11.762  0.00  0.00    +0.000 A 
ATOM     22  N   UNL     1      45.526  10.225  11.741  0.00  0.00    +0.000 NA
BRANCH  17  24
ATOM     23  N   UNL     1      43.202   8.858  10.847  0.00  0.00    +0.000 N 
ATOM     24  C   UNL     1      43.302  10.228  10.804  0.00  0.00    +0.000 C 
ATOM     25  O   UNL     1      42.318  10.947  10.789  0.00  0.00    +0.000 OA
ATOM     26  H   UNL     1      42.294   8.423  10.867  0.00  0.00    +0.000 HD
ATOM     27  H   UNL     1      44.046   8.300  10.885  0.00  0.00    +0.000 HD
ENDBRANCH  17  24
ENDBRANCH  16  21
ENDBRANCH  15  16
ENDBRANCH   1  15
TORSDOF 5
ENDMDL
MODEL 7
REMARK VINA RESULT:    -6.039      2.970      6.863
REMARK INTER + INTRA:          -8.657
REMARK INTER:                  -8.077
REMARK INTRA:                  -0.580
REMARK UNBOUND:                -0.852
REMARK  Name = 
REMARK  5 active torsions:
REMARK  status: ('A' for Active; 'I' for Inactive)
REMARK    1  A    between atoms: C_2  and  C_4
REMARK    2  A    between atoms: C_8  and  S_9
REMARK    3  A    between atoms: S_9  and  C_10
REMARK    4  A    between atoms: C_10  and  C_11
REMARK    5  A    between atoms: C_16  and  C_17
REMARK                            x       y       z     vdW  Elec       q    Type
REMARK                         _______ _______ _______ _____ _____    ______ ____
ROOT
ATOM      1  C   UNL     1      48.431   6.714  14.076  0.00  0.00    +0.000 A 
ATOM      2  C   UNL     1      49.592   7.475  14.233  0.00  0.00    +0.000 A 
ATOM      3  C   UNL     1      50.316   7.390  15.417  0.00  0.00    +0.000 A 
ATOM      4  F   UNL     1      51.422   8.130  15.566  0.00  0.00    +0.000 F 
ATOM      5  C   UNL     1      49.954   6.495  16.420  0.00  0.00    +0.000 A 
ATOM      6  C   UNL     1      48.851   5.647  16.242  0.00  0.00    +0.000 A 
ATOM      7  C   UNL     1      48.061   5.839  15.107  0.00  0.00    +0.000 A 
ENDROOT
BRANCH   6   8
ATOM      8  C   UNL     1      48.648   4.458  17.175  0.00  0.00    +0.000 C 
ATOM      9  C   UNL     1      47.173   4.416  17.625  0.00  0.00    +0.000 C 
ATOM     10  C   UNL     1      46.875   5.479  18.684  0.00  0.00    +0.000 C 
ATOM     11  N   UNL     1      47.697   5.290  19.880  0.00  0.00    +0.000 NA
ATOM     12  C   UNL     1      49.123   5.338  19.569  0.00  0.00    +0.000 C 
ATOM     13  C   UNL     1      49.536   4.382  18.439  0.00  0.00    +0.000 C 
ATOM     14  H   UNL     1      47.475   4.388  20.299  0.00  0.00    +0.000 HD
ENDBRANCH   6   8
BRANCH   1  15
ATOM     15  C   UNL     1      47.693   6.687  12.757  0.00  0.00    +0.000 C 
BRANCH  15  16
ATOM     16  S   UNL     1      46.015   7.413  12.826  0.00  0.00    +0.000 S 
BRANCH  16  21
ATOM     17  C   UNL     1      44.630   4.714  10.320  0.00  0.00    +0.000 A 
ATOM     18  C   UNL     1      43.554   4.115  10.956  0.00  0.00    +0.000 A 
ATOM     19  C   UNL     1      43.261   4.517  12.255  0.00  0.00    +0.000 A 
ATOM     20  C   UNL     1      44.037   5.508  12.856  0.00  0.00    +0.000 A 
ATOM     21  C   UNL     1      45.079   6.075  12.130  0.00  0.00    +0.000 A 
ATOM     22  N   UNL     1      45.401   5.681  10.883  0.00  0.00    +0.000 NA
BRANCH  17  24
ATOM     23  N   UNL     1      44.296   3.261   8.418  0.00  0.00    +0.000 N 
ATOM     24  C   UNL     1      45.012   4.315   8.931  0.00  0.00    +0.000 C 
ATOM     25  O   UNL     1      45.875   4.885   8.287  0.00  0.00    +0.000 OA
ATOM     26  H   UNL     1      44.481   2.940   7.481  0.00  0.00    +0.000 HD
ATOM     27  H   UNL     1      43.570   2.833   8.978  0.00  0.00    +0.000 HD
ENDBRANCH  17  24
ENDBRANCH  16  21
ENDBRANCH  15  16
ENDBRANCH   1  15
TORSDOF 5
ENDMDL
MODEL 8
REMARK VINA RESULT:    -5.982      2.765      3.799
REMARK INTER + INTRA:          -8.583
REMARK INTER:                  -8.033
REMARK INTRA:                  -0.550
REMARK UNBOUND:                -0.852
REMARK  Name = 
REMARK  5 active torsions:
REMARK  status: ('A' for Active; 'I' for Inactive)
REMARK    1  A    between atoms: C_2  and  C_4
REMARK    2  A    between atoms: C_8  and  S_9
REMARK    3  A    between atoms: S_9  and  C_10
REMARK    4  A    between atoms: C_10  and  C_11
REMARK    5  A    between atoms: C_16  and  C_17
REMARK                            x       y       z     vdW  Elec       q    Type
REMARK                         _______ _______ _______ _____ _____    ______ ____
ROOT
ATOM      1  C   UNL     1      45.830   5.680  11.201  0.00  0.00    +0.000 A 
ATOM      2  C   UNL     1      45.190   5.016  12.251  0.00  0.00    +0.000 A 
ATOM      3  C   UNL     1      44.219   4.063  11.973  0.00  0.00    +0.000 A 
ATOM      4  F   UNL     1      43.601   3.438  12.984  0.00  0.00    +0.000 F 
ATOM      5  C   UNL     1      43.929   3.691  10.663  0.00  0.00    +0.000 A 
ATOM      6  C   UNL     1      44.631   4.270   9.595  0.00  0.00    +0.000 A 
ATOM      7  C   UNL     1      45.507   5.317   9.886  0.00  0.00    +0.000 A 
ENDROOT
BRANCH   6   8
ATOM      8  C   UNL     1      44.555   3.643   8.207  0.00  0.00    +0.000 C 
ATOM      9  C   UNL     1      44.419   2.113   8.351  0.00  0.00    +0.000 C 
ATOM     10  C   UNL     1      45.750   1.461   8.727  0.00  0.00    +0.000 C 
ATOM     11  N   UNL     1      46.775   1.709   7.713  0.00  0.00    +0.000 NA
ATOM     12  C   UNL     1      47.003   3.137   7.514  0.00  0.00    +0.000 C 
ATOM     13  C   UNL     1      45.718   3.930   7.228  0.00  0.00    +0.000 C 
ATOM     14  H   UNL     1      46.482   1.290   6.832  0.00  0.00    +0.000 HD
ENDBRANCH   6   8
BRANCH   1  15
ATOM     15  C   UNL     1      46.977   6.628  11.466  0.00  0.00    +0.000 C 
BRANCH  15  16
ATOM     16  S   UNL     1      46.655   7.833  12.805  0.00  0.00    +0.000 S 
BRANCH  16  21
ATOM     17  C   UNL     1      49.001   6.430  15.635  0.00  0.00    +0.000 A 
ATOM     18  C   UNL     1      50.186   7.143  15.541  0.00  0.00    +0.000 A 
ATOM     19  C   UNL     1      50.304   8.074  14.515  0.00  0.00    +0.000 A 
ATOM     20  C   UNL     1      49.234   8.269  13.642  0.00  0.00    +0.000 A 
ATOM     21  C   UNL     1      48.072   7.530  13.831  0.00  0.00    +0.000 A 
ATOM     22  N   UNL     1      47.945   6.601  14.798  0.00  0.00    +0.000 NA
BRANCH  17  24
ATOM     23  N   UNL     1      47.690   5.564  17.472  0.00  0.00    +0.000 N 
ATOM     24  C   UNL     1      48.815   5.399  16.701  0.00  0.00    +0.000 C 
ATOM     25  O   UNL     1      49.584   4.469  16.871  0.00  0.00    +0.000 OA
ATOM     26  H   UNL     1      47.483   4.902  18.202  0.00  0.00    +0.000 HD
ATOM     27  H   UNL     1      47.063   6.336  17.279  0.00  0.00    +0.000 HD
ENDBRANCH  17  24
ENDBRANCH  16  21
ENDBRANCH  15  16
ENDBRANCH   1  15
TORSDOF 5
ENDMDL
MODEL 9
REMARK VINA RESULT:    -5.816      2.625      6.546
REMARK INTER + INTRA:          -8.368
REMARK INTER:                  -7.506
REMARK INTRA:                  -0.862
REMARK UNBOUND:                -0.852
REMARK  Name = 
REMARK  5 active torsions:
REMARK  status: ('A' for Active; 'I' for Inactive)
REMARK    1  A    between atoms: C_2  and  C_4
REMARK    2  A    between atoms: C_8  and  S_9
REMARK    3  A    between atoms: S_9  and  C_10
REMARK    4  A    between atoms: C_10  and  C_11
REMARK    5  A    between atoms: C_16  and  C_17
REMARK                            x       y       z     vdW  Elec       q    Type
REMARK                         _______ _______ _______ _____ _____    ______ ____
ROOT
ATOM      1  C   UNL     1      48.512   8.392  16.670  0.00  0.00    +0.000 A 
ATOM      2  C   UNL     1      47.857   9.195  17.608  0.00  0.00    +0.000 A 
ATOM      3  C   UNL     1      47.716   8.750  18.917  0.00  0.00    +0.000 A 
ATOM      4  F   UNL     1      47.078   9.519  19.809  0.00  0.00    +0.000 F 
ATOM      5  C   UNL     1      48.291   7.553  19.337  0.00  0.00    +0.000 A 
ATOM      6  C   UNL     1      49.040   6.779  18.439  0.00  0.00    +0.000 A 
ATOM      7  C   UNL     1      49.059   7.175  17.100  0.00  0.00    +0.000 A 
ENDROOT
BRANCH   6   8
ATOM      8  C   UNL     1      49.931   5.658  18.962  0.00  0.00    +0.000 C 
ATOM      9  C   UNL     1      49.739   4.407  18.079  0.00  0.00    +0.000 C 
ATOM     10  C   UNL     1      48.421   3.695  18.387  0.00  0.00    +0.000 C 
ATOM     11  N   UNL     1      48.363   3.252  19.780  0.00  0.00    +0.000 NA
ATOM     12  C   UNL     1      48.509   4.370  20.709  0.00  0.00    +0.000 C 
ATOM     13  C   UNL     1      49.752   5.232  20.439  0.00  0.00    +0.000 C 
ATOM     14  H   UNL     1      49.107   2.577  19.948  0.00  0.00    +0.000 HD
ENDBRANCH   6   8
BRANCH   1  15
ATOM     15  C   UNL     1      48.793   8.900  15.275  0.00  0.00    +0.000 C 
BRANCH  15  16
ATOM     16  S   UNL     1      49.644   7.690  14.199  0.00  0.00    +0.000 S 
BRANCH  16  21
ATOM     17  C   UNL     1      46.912   5.072  13.121  0.00  0.00    +0.000 A 
ATOM     18  C   UNL     1      46.167   5.682  12.124  0.00  0.00    +0.000 A 
ATOM     19  C   UNL     1      46.476   6.997  11.794  0.00  0.00    +0.000 A 
ATOM     20  C   UNL     1      47.524   7.639  12.453  0.00  0.00    +0.000 A 
ATOM     21  C   UNL     1      48.238   6.938  13.419  0.00  0.00    +0.000 A 
ATOM     22  N   UNL     1      47.936   5.675  13.778  0.00  0.00    +0.000 NA
BRANCH  17  24
ATOM     23  N   UNL     1      47.348   3.222  14.615  0.00  0.00    +0.000 N 
ATOM     24  C   UNL     1      46.618   3.668  13.539  0.00  0.00    +0.000 C 
ATOM     25  O   UNL     1      45.784   2.969  12.991  0.00  0.00    +0.000 OA
ATOM     26  H   UNL     1      47.198   2.291  14.970  0.00  0.00    +0.000 HD
ATOM     27  H   UNL     1      48.012   3.845  15.057  0.00  0.00    +0.000 HD
ENDBRANCH  17  24
ENDBRANCH  16  21
ENDBRANCH  15  16
ENDBRANCH   1  15
TORSDOF 5
ENDMDL
