MODEL 1
REMARK VINA RESULT:    -8.781      0.000      0.000
REMARK INTER + INTRA:         -14.777
REMARK INTER:                 -13.658
REMARK INTRA:                  -1.119
REMARK UNBOUND:                -1.119
REMARK  Name = 
REMARK  11 active torsions:
REMARK  status: ('A' for Active; 'I' for Inactive)
REMARK    1  A    between atoms: C_1  and  C_2
REMARK    2  A    between atoms: C_5  and  C_6
REMARK    3  A    between atoms: N_8  and  C_9
REMARK    4  A    between atoms: C_9  and  C_10
REMARK    5  A    between atoms: C_13  and  C_14
REMARK    6  A    between atoms: C_14  and  N_15
REMARK    7  A    between atoms: N_15  and  C_16
REMARK    8  A    between atoms: N_15  and  C_19
REMARK    9  A    between atoms: C_16  and  C_17
REMARK   10  A    between atoms: C_17  and  O_18
REMARK   11  A    between atoms: C_19  and  C_20
REMARK                            x       y       z     vdW  Elec       q    Type
REMARK                         _______ _______ _______ _____ _____    ______ ____
ROOT
ATOM      1  C   UNL     1      48.100   6.580  13.755  0.00  0.00    +0.000 A 
ATOM      2  C   UNL     1      47.130   5.598  14.004  0.00  0.00    +0.000 A 
ATOM      3  C   UNL     1      46.151   5.308  13.049  0.00  0.00    +0.000 A 
ATOM      4  C   UNL     1      46.123   5.997  11.830  0.00  0.00    +0.000 A 
ATOM      5  C   UNL     1      47.156   6.898  11.538  0.00  0.00    +0.000 A 
ATOM      6  C   UNL     1      48.137   7.184  12.492  0.00  0.00    +0.000 A 
ENDROOT
BRANCH   1   7
ATOM      7  C   UNL     1      49.090   6.965  14.827  0.00  0.00    +0.000 C 
BRANCH   7  10
ATOM      8  C   UNL     1      49.799   5.639  16.797  0.00  0.00    +0.000 C 
ATOM      9  O   UNL     1      50.988   5.667  16.493  0.00  0.00    +0.000 OA
ATOM     10  N   UNL     1      48.825   6.253  16.047  0.00  0.00    +0.000 N 
ATOM     11  H   UNL     1      47.868   6.237  16.372  0.00  0.00    +0.000 HD
BRANCH   8  16
ATOM     12  C   UNL     1      49.520   7.919  22.194  0.00  0.00    +0.000 C 
ATOM     13  C   UNL     1      49.252   6.695  21.373  0.00  0.00    +0.000 A 
ATOM     14  C   UNL     1      49.514   6.669  19.998  0.00  0.00    +0.000 A 
ATOM     15  C   UNL     1      49.223   5.467  19.337  0.00  0.00    +0.000 A 
ATOM     16  C   UNL     1      49.308   4.949  17.991  0.00  0.00    +0.000 A 
ATOM     17  C   UNL     1      48.837   3.651  18.081  0.00  0.00    +0.000 A 
ATOM     18 CL   UNL     1      48.635   2.383  16.958  0.00  0.00    +0.000 Cl
ATOM     19  N   UNL     1      48.477   3.361  19.355  0.00  0.00    +0.000 N 
ATOM     20  C   UNL     1      48.704   4.451  20.133  0.00  0.00    +0.000 A 
ATOM     21  N   UNL     1      48.459   4.508  21.449  0.00  0.00    +0.000 NA
ATOM     22  N   UNL     1      48.739   5.641  22.060  0.00  0.00    +0.000 NA
ATOM     23  H   UNL     1      48.109   2.485  19.689  0.00  0.00    +0.000 HD
ENDBRANCH   8  16
ENDBRANCH   7  10
ENDBRANCH   1   7
BRANCH   4  24
ATOM     24  C   UNL     1      44.952   5.831  10.877  0.00  0.00    +0.000 C 
BRANCH  24  25
ATOM     25  N   UNL     1      44.555   4.412  10.667  0.00  0.00    +0.000 NA
BRANCH  25  26
ATOM     26  C   UNL     1      43.325   4.092  11.436  0.00  0.00    +0.000 C 
BRANCH  26  27
ATOM     27  C   UNL     1      42.527   5.307  11.945  0.00  0.00    +0.000 C 
BRANCH  27  28
ATOM     28  O   UNL     1      42.574   5.374  13.369  0.00  0.00    +0.000 OA
ATOM     29  H   UNL     1      41.743   4.997  13.703  0.00  0.00    +0.000 HD
ENDBRANCH  27  28
ENDBRANCH  26  27
ENDBRANCH  25  26
BRANCH  25  30
ATOM     30  C   UNL     1      44.323   4.165   9.227  0.00  0.00    +0.000 C 
BRANCH  30  31
ATOM     31  C   UNL     1      45.368   3.309   8.544  0.00  0.00    +0.000 A 
ATOM     32  C   UNL     1      45.443   1.931   8.793  0.00  0.00    +0.000 A 
ATOM     33  C   UNL     1      46.361   1.138   8.103  0.00  0.00    +0.000 A 
ATOM     34  C   UNL     1      47.214   1.714   7.162  0.00  0.00    +0.000 A 
ATOM     35  C   UNL     1      47.159   3.084   6.919  0.00  0.00    +0.000 A 
ATOM     36  C   UNL     1      46.240   3.879   7.605  0.00  0.00    +0.000 A 
ENDBRANCH  30  31
ENDBRANCH  25  30
ENDBRANCH  24  25
ENDBRANCH   4  24
TORSDOF 10
ENDMDL
MODEL 2
REMARK VINA RESULT:    -7.970      2.215      3.147
REMARK INTER + INTRA:         -13.514
REMARK INTER:                 -12.424
REMARK INTRA:                  -1.091
REMARK UNBOUND:                -1.119
REMARK  Name = 
REMARK  11 active torsions:
REMARK  status: ('A' for Active; 'I' for Inactive)
REMARK    1  A    between atoms: C_1  and  C_2
REMARK    2  A    between atoms: C_5  and  C_6
REMARK    3  A    between atoms: N_8  and  C_9
REMARK    4  A    between atoms: C_9  and  C_10
REMARK    5  A    between atoms: C_13  and  C_14
REMARK    6  A    between atoms: C_14  and  N_15
REMARK    7  A    between atoms: N_15  and  C_16
REMARK    8  A    between atoms: N_15  and  C_19
REMARK    9  A    between atoms: C_16  and  C_17
REMARK   10  A    between atoms: C_17  and  O_18
REMARK   11  A    between atoms: C_19  and  C_20
REMARK                            x       y       z     vdW  Elec       q    Type
REMARK                         _______ _______ _______ _____ _____    ______ ____
ROOT
ATOM      1  C   UNL     1      46.853   7.853  12.693  0.00  0.00    +0.000 A 
ATOM      2  C   UNL     1      47.278   6.888  11.769  0.00  0.00    +0.000 A 
ATOM      3  C   UNL     1      46.347   6.135  11.048  0.00  0.00    +0.000 A 
ATOM      4  C   UNL     1      44.973   6.332  11.241  0.00  0.00    +0.000 A 
ATOM      5  C   UNL     1      44.550   7.371  12.081  0.00  0.00    +0.000 A 
ATOM      6  C   UNL     1      45.483   8.126  12.799  0.00  0.00    +0.000 A 
ENDROOT
BRANCH   1   7
ATOM      7  C   UNL     1      47.857   8.590  13.546  0.00  0.00    +0.000 C 
BRANCH   7  10
ATOM      8  C   UNL     1      48.885   8.138  15.755  0.00  0.00    +0.000 C 
ATOM      9  O   UNL     1      49.990   8.555  15.419  0.00  0.00    +0.000 OA
ATOM     10  N   UNL     1      47.804   8.133  14.907  0.00  0.00    +0.000 N 
ATOM     11  H   UNL     1      46.906   7.823  15.253  0.00  0.00    +0.000 HD
BRANCH   8  16
ATOM     12  C   UNL     1      49.679   2.580  17.450  0.00  0.00    +0.000 C 
ATOM     13  C   UNL     1      49.229   3.937  17.896  0.00  0.00    +0.000 A 
ATOM     14  C   UNL     1      49.239   5.031  17.022  0.00  0.00    +0.000 A 
ATOM     15  C   UNL     1      48.794   6.249  17.554  0.00  0.00    +0.000 A 
ATOM     16  C   UNL     1      48.617   7.607  17.092  0.00  0.00    +0.000 A 
ATOM     17  C   UNL     1      48.124   8.293  18.188  0.00  0.00    +0.000 A 
ATOM     18 CL   UNL     1      47.645   9.906  18.459  0.00  0.00    +0.000 Cl
ATOM     19  N   UNL     1      48.001   7.463  19.254  0.00  0.00    +0.000 N 
ATOM     20  C   UNL     1      48.403   6.218  18.888  0.00  0.00    +0.000 A 
ATOM     21  N   UNL     1      48.409   5.154  19.702  0.00  0.00    +0.000 NA
ATOM     22  N   UNL     1      48.826   4.014  19.192  0.00  0.00    +0.000 NA
ATOM     23  H   UNL     1      47.661   7.711  20.169  0.00  0.00    +0.000 HD
ENDBRANCH   8  16
ENDBRANCH   7  10
ENDBRANCH   1   7
BRANCH   4  24
ATOM     24  C   UNL     1      43.964   5.388  10.614  0.00  0.00    +0.000 C 
BRANCH  24  25
ATOM     25  N   UNL     1      44.541   4.071  10.231  0.00  0.00    +0.000 NA
BRANCH  25  26
ATOM     26  C   UNL     1      43.855   2.967  10.952  0.00  0.00    +0.000 C 
BRANCH  26  27
ATOM     27  C   UNL     1      44.000   2.987  12.485  0.00  0.00    +0.000 C 
BRANCH  27  28
ATOM     28  O   UNL     1      45.359   2.764  12.861  0.00  0.00    +0.000 OA
ATOM     29  H   UNL     1      45.892   2.806  12.049  0.00  0.00    +0.000 HD
ENDBRANCH  27  28
ENDBRANCH  26  27
ENDBRANCH  25  26
BRANCH  25  30
ATOM     30  C   UNL     1      44.410   3.872   8.771  0.00  0.00    +0.000 C 
BRANCH  30  31
ATOM     31  C   UNL     1      45.531   3.088   8.124  0.00  0.00    +0.000 A 
ATOM     32  C   UNL     1      46.499   3.733   7.340  0.00  0.00    +0.000 A 
ATOM     33  C   UNL     1      47.571   3.013   6.809  0.00  0.00    +0.000 A 
ATOM     34  C   UNL     1      47.684   1.645   7.053  0.00  0.00    +0.000 A 
ATOM     35  C   UNL     1      46.719   0.992   7.818  0.00  0.00    +0.000 A 
ATOM     36  C   UNL     1      45.648   1.709   8.352  0.00  0.00    +0.000 A 
ENDBRANCH  30  31
ENDBRANCH  25  30
ENDBRANCH  24  25
ENDBRANCH   4  24
TORSDOF 10
ENDMDL
MODEL 3
REMARK VINA RESULT:    -7.864      1.781      2.244
REMARK INTER + INTRA:         -13.350
REMARK INTER:                 -12.236
REMARK INTRA:                  -1.114
REMARK UNBOUND:                -1.119
REMARK  Name = 
REMARK  11 active torsions:
REMARK  status: ('A' for Active; 'I' for Inactive)
REMARK    1  A    between atoms: C_1  and  C_2
REMARK    2  A    between atoms: C_5  and  C_6
REMARK    3  A    between atoms: N_8  and  C_9
REMARK    4  A    between atoms: C_9  and  C_10
REMARK    5  A    between atoms: C_13  and  C_14
REMARK    6  A    between atoms: C_14  and  N_15
REMARK    7  A    between atoms: N_15  and  C_16
REMARK    8  A    between atoms: N_15  and  C_19
REMARK    9  A    between atoms: C_16  and  C_17
REMARK   10  A    between atoms: C_17  and  O_18
REMARK   11  A    between atoms: C_19  and  C_20
REMARK                            x       y       z     vdW  Elec       q    Type
REMARK                         _______ _______ _______ _____ _____    ______ ____
ROOT
ATOM      1  C   UNL     1      46.846   7.949  12.904  0.00  0.00    +0.000 A 
ATOM      2  C   UNL     1      47.469   6.967  12.120  0.00  0.00    +0.000 A 
ATOM      3  C   UNL     1      46.721   6.176  11.244  0.00  0.00    +0.000 A 
ATOM      4  C   UNL     1      45.335   6.351  11.138  0.00  0.00    +0.000 A 
ATOM      5  C   UNL     1      44.731   7.404  11.838  0.00  0.00    +0.000 A 
ATOM      6  C   UNL     1      45.481   8.197  12.711  0.00  0.00    +0.000 A 
ENDROOT
BRANCH   1   7
ATOM      7  C   UNL     1      47.638   8.729  13.924  0.00  0.00    +0.000 C 
BRANCH   7  10
ATOM      8  C   UNL     1      49.003   7.246  15.366  0.00  0.00    +0.000 C 
ATOM      9  O   UNL     1      49.962   7.244  14.600  0.00  0.00    +0.000 OA
ATOM     10  N   UNL     1      47.850   7.948  15.112  0.00  0.00    +0.000 N 
ATOM     11  H   UNL     1      47.111   7.951  15.802  0.00  0.00    +0.000 HD
BRANCH   8  16
ATOM     12  C   UNL     1      51.795   8.810  20.281  0.00  0.00    +0.000 C 
ATOM     13  C   UNL     1      50.919   7.768  19.656  0.00  0.00    +0.000 A 
ATOM     14  C   UNL     1      50.488   7.879  18.329  0.00  0.00    +0.000 A 
ATOM     15  C   UNL     1      49.673   6.841  17.856  0.00  0.00    +0.000 A 
ATOM     16  C   UNL     1      49.000   6.498  16.624  0.00  0.00    +0.000 A 
ATOM     17  C   UNL     1      48.363   5.298  16.891  0.00  0.00    +0.000 A 
ATOM     18 CL   UNL     1      47.392   4.242  15.970  0.00  0.00    +0.000 Cl
ATOM     19  N   UNL     1      48.595   4.909  18.168  0.00  0.00    +0.000 N 
ATOM     20  C   UNL     1      49.388   5.833  18.770  0.00  0.00    +0.000 A 
ATOM     21  N   UNL     1      49.812   5.757  20.040  0.00  0.00    +0.000 NA
ATOM     22  N   UNL     1      50.580   6.735  20.473  0.00  0.00    +0.000 NA
ATOM     23  H   UNL     1      48.251   4.071  18.611  0.00  0.00    +0.000 HD
ENDBRANCH   8  16
ENDBRANCH   7  10
ENDBRANCH   1   7
BRANCH   4  24
ATOM     24  C   UNL     1      44.493   5.369  10.343  0.00  0.00    +0.000 C 
BRANCH  24  25
ATOM     25  N   UNL     1      45.072   3.999  10.288  0.00  0.00    +0.000 NA
BRANCH  25  26
ATOM     26  C   UNL     1      44.783   3.256  11.542  0.00  0.00    +0.000 C 
BRANCH  26  27
ATOM     27  C   UNL     1      43.290   3.094  11.887  0.00  0.00    +0.000 C 
BRANCH  27  28
ATOM     28  O   UNL     1      42.878   1.742  11.695  0.00  0.00    +0.000 OA
ATOM     29  H   UNL     1      43.581   1.295  11.194  0.00  0.00    +0.000 HD
ENDBRANCH  27  28
ENDBRANCH  26  27
ENDBRANCH  25  26
BRANCH  25  30
ATOM     30  C   UNL     1      44.512   3.265   9.132  0.00  0.00    +0.000 C 
BRANCH  30  31
ATOM     31  C   UNL     1      45.533   2.755   8.138  0.00  0.00    +0.000 A 
ATOM     32  C   UNL     1      45.981   3.568   7.087  0.00  0.00    +0.000 A 
ATOM     33  C   UNL     1      46.977   3.115   6.219  0.00  0.00    +0.000 A 
ATOM     34  C   UNL     1      47.530   1.846   6.391  0.00  0.00    +0.000 A 
ATOM     35  C   UNL     1      47.080   1.025   7.423  0.00  0.00    +0.000 A 
ATOM     36  C   UNL     1      46.087   1.476   8.293  0.00  0.00    +0.000 A 
ENDBRANCH  30  31
ENDBRANCH  25  30
ENDBRANCH  24  25
ENDBRANCH   4  24
TORSDOF 10
ENDMDL
MODEL 4
REMARK VINA RESULT:    -7.677      2.869      3.485
REMARK INTER + INTRA:         -13.060
REMARK INTER:                 -11.878
REMARK INTRA:                  -1.182
REMARK UNBOUND:                -1.119
REMARK  Name = 
REMARK  11 active torsions:
REMARK  status: ('A' for Active; 'I' for Inactive)
REMARK    1  A    between atoms: C_1  and  C_2
REMARK    2  A    between atoms: C_5  and  C_6
REMARK    3  A    between atoms: N_8  and  C_9
REMARK    4  A    between atoms: C_9  and  C_10
REMARK    5  A    between atoms: C_13  and  C_14
REMARK    6  A    between atoms: C_14  and  N_15
REMARK    7  A    between atoms: N_15  and  C_16
REMARK    8  A    between atoms: N_15  and  C_19
REMARK    9  A    between atoms: C_16  and  C_17
REMARK   10  A    between atoms: C_17  and  O_18
REMARK   11  A    between atoms: C_19  and  C_20
REMARK                            x       y       z     vdW  Elec       q    Type
REMARK                         _______ _______ _______ _____ _____    ______ ____
ROOT
ATOM      1  C   UNL     1      47.053   8.331  12.573  0.00  0.00    +0.000 A 
ATOM      2  C   UNL     1      47.597   7.309  11.781  0.00  0.00    +0.000 A 
ATOM      3  C   UNL     1      46.763   6.417  11.102  0.00  0.00    +0.000 A 
ATOM      4  C   UNL     1      45.370   6.530  11.203  0.00  0.00    +0.000 A 
ATOM      5  C   UNL     1      44.829   7.616  11.903  0.00  0.00    +0.000 A 
ATOM      6  C   UNL     1      45.663   8.510  12.580  0.00  0.00    +0.000 A 
ENDROOT
BRANCH   1   7
ATOM      7  C   UNL     1      47.953   9.226  13.390  0.00  0.00    +0.000 C 
BRANCH   7  10
ATOM      8  C   UNL     1      49.008   8.308  15.435  0.00  0.00    +0.000 C 
ATOM      9  O   UNL     1      48.179   8.808  16.188  0.00  0.00    +0.000 OA
ATOM     10  N   UNL     1      48.958   8.457  14.070  0.00  0.00    +0.000 N 
ATOM     11  H   UNL     1      49.640   7.981  13.496  0.00  0.00    +0.000 HD
BRANCH   8  16
ATOM     12  C   UNL     1      48.578   3.076  18.051  0.00  0.00    +0.000 C 
ATOM     13  C   UNL     1      49.534   4.132  17.589  0.00  0.00    +0.000 A 
ATOM     14  C   UNL     1      49.083   5.297  16.958  0.00  0.00    +0.000 A 
ATOM     15  C   UNL     1      50.072   6.213  16.573  0.00  0.00    +0.000 A 
ATOM     16  C   UNL     1      50.129   7.502  15.922  0.00  0.00    +0.000 A 
ATOM     17  C   UNL     1      51.476   7.815  15.873  0.00  0.00    +0.000 A 
ATOM     18 CL   UNL     1      52.362   9.148  15.287  0.00  0.00    +0.000 Cl
ATOM     19  N   UNL     1      52.216   6.825  16.430  0.00  0.00    +0.000 N 
ATOM     20  C   UNL     1      51.381   5.844  16.860  0.00  0.00    +0.000 A 
ATOM     21  N   UNL     1      51.784   4.716  17.462  0.00  0.00    +0.000 NA
ATOM     22  N   UNL     1      50.846   3.864  17.823  0.00  0.00    +0.000 NA
ATOM     23  H   UNL     1      53.219   6.808  16.525  0.00  0.00    +0.000 HD
ENDBRANCH   8  16
ENDBRANCH   7  10
ENDBRANCH   1   7
BRANCH   4  24
ATOM     24  C   UNL     1      44.466   5.451  10.633  0.00  0.00    +0.000 C 
BRANCH  24  25
ATOM     25  N   UNL     1      45.085   4.099  10.629  0.00  0.00    +0.000 NA
BRANCH  25  26
ATOM     26  C   UNL     1      44.847   3.408  11.922  0.00  0.00    +0.000 C 
BRANCH  26  27
ATOM     27  C   UNL     1      43.383   3.025  12.209  0.00  0.00    +0.000 C 
BRANCH  27  28
ATOM     28  O   UNL     1      43.213   1.610  12.132  0.00  0.00    +0.000 OA
ATOM     29  H   UNL     1      42.756   1.331  12.944  0.00  0.00    +0.000 HD
ENDBRANCH  27  28
ENDBRANCH  26  27
ENDBRANCH  25  26
BRANCH  25  30
ATOM     30  C   UNL     1      44.524   3.294   9.521  0.00  0.00    +0.000 C 
BRANCH  30  31
ATOM     31  C   UNL     1      45.528   2.827   8.490  0.00  0.00    +0.000 A 
ATOM     32  C   UNL     1      45.948   1.489   8.450  0.00  0.00    +0.000 A 
ATOM     33  C   UNL     1      46.818   1.052   7.449  0.00  0.00    +0.000 A 
ATOM     34  C   UNL     1      47.279   1.947   6.484  0.00  0.00    +0.000 A 
ATOM     35  C   UNL     1      46.882   3.282   6.525  0.00  0.00    +0.000 A 
ATOM     36  C   UNL     1      46.010   3.721   7.522  0.00  0.00    +0.000 A 
ENDBRANCH  30  31
ENDBRANCH  25  30
ENDBRANCH  24  25
ENDBRANCH   4  24
TORSDOF 10
ENDMDL
MODEL 5
REMARK VINA RESULT:    -7.668      2.088      2.815
REMARK INTER + INTRA:         -13.046
REMARK INTER:                 -11.905
REMARK INTRA:                  -1.140
REMARK UNBOUND:                -1.119
REMARK  Name = 
REMARK  11 active torsions:
REMARK  status: ('A' for Active; 'I' for Inactive)
REMARK    1  A    between atoms: C_1  and  C_2
REMARK    2  A    between atoms: C_5  and  C_6
REMARK    3  A    between atoms: N_8  and  C_9
REMARK    4  A    between atoms: C_9  and  C_10
REMARK    5  A    between atoms: C_13  and  C_14
REMARK    6  A    between atoms: C_14  and  N_15
REMARK    7  A    between atoms: N_15  and  C_16
REMARK    8  A    between atoms: N_15  and  C_19
REMARK    9  A    between atoms: C_16  and  C_17
REMARK   10  A    between atoms: C_17  and  O_18
REMARK   11  A    between atoms: C_19  and  C_20
REMARK                            x       y       z     vdW  Elec       q    Type
REMARK                         _______ _______ _______ _____ _____    ______ ____
ROOT
ATOM      1  C   UNL     1      47.278   7.557  13.410  0.00  0.00    +0.000 A 
ATOM      2  C   UNL     1      47.664   6.491  12.585  0.00  0.00    +0.000 A 
ATOM      3  C   UNL     1      46.816   6.033  11.573  0.00  0.00    +0.000 A 
ATOM      4  C   UNL     1      45.565   6.630  11.369  0.00  0.00    +0.000 A 
ATOM      5  C   UNL     1      45.228   7.764  12.121  0.00  0.00    +0.000 A 
ATOM      6  C   UNL     1      46.078   8.225  13.130  0.00  0.00    +0.000 A 
ENDROOT
BRANCH   1   7
ATOM      7  C   UNL     1      48.148   7.981  14.568  0.00  0.00    +0.000 C 
BRANCH   7  10
ATOM      8  C   UNL     1      49.056   6.865  16.586  0.00  0.00    +0.000 C 
ATOM      9  O   UNL     1      48.991   7.876  17.277  0.00  0.00    +0.000 OA
ATOM     10  N   UNL     1      48.657   6.836  15.271  0.00  0.00    +0.000 N 
ATOM     11  H   UNL     1      48.688   5.961  14.765  0.00  0.00    +0.000 HD
BRANCH   8  16
ATOM     12  C   UNL     1      54.711   5.483  17.303  0.00  0.00    +0.000 C 
ATOM     13  C   UNL     1      53.306   4.983  17.449  0.00  0.00    +0.000 A 
ATOM     14  C   UNL     1      52.209   5.784  17.111  0.00  0.00    +0.000 A 
ATOM     15  C   UNL     1      50.944   5.206  17.290  0.00  0.00    +0.000 A 
ATOM     16  C   UNL     1      49.565   5.592  17.099  0.00  0.00    +0.000 A 
ATOM     17  C   UNL     1      48.830   4.487  17.494  0.00  0.00    +0.000 A 
ATOM     18 CL   UNL     1      47.164   4.133  17.556  0.00  0.00    +0.000 Cl
ATOM     19  N   UNL     1      49.652   3.491  17.906  0.00  0.00    +0.000 N 
ATOM     20  C   UNL     1      50.939   3.908  17.789  0.00  0.00    +0.000 A 
ATOM     21  N   UNL     1      52.009   3.167  18.110  0.00  0.00    +0.000 NA
ATOM     22  N   UNL     1      53.192   3.718  17.935  0.00  0.00    +0.000 NA
ATOM     23  H   UNL     1      49.371   2.582  18.238  0.00  0.00    +0.000 HD
ENDBRANCH   8  16
ENDBRANCH   7  10
ENDBRANCH   1   7
BRANCH   4  24
ATOM     24  C   UNL     1      44.563   6.014  10.411  0.00  0.00    +0.000 C 
BRANCH  24  25
ATOM     25  N   UNL     1      44.467   4.533  10.524  0.00  0.00    +0.000 NA
BRANCH  25  26
ATOM     26  C   UNL     1      43.479   4.149  11.564  0.00  0.00    +0.000 C 
BRANCH  26  27
ATOM     27  C   UNL     1      42.483   5.251  11.971  0.00  0.00    +0.000 C 
BRANCH  27  28
ATOM     28  O   UNL     1      42.570   5.509  13.372  0.00  0.00    +0.000 OA
ATOM     29  H   UNL     1      41.778   5.124  13.785  0.00  0.00    +0.000 HD
ENDBRANCH  27  28
ENDBRANCH  26  27
ENDBRANCH  25  26
BRANCH  25  30
ATOM     30  C   UNL     1      44.070   3.956   9.220  0.00  0.00    +0.000 C 
BRANCH  30  31
ATOM     31  C   UNL     1      45.162   3.209   8.488  0.00  0.00    +0.000 A 
ATOM     32  C   UNL     1      46.038   3.881   7.623  0.00  0.00    +0.000 A 
ATOM     33  C   UNL     1      47.088   3.196   7.009  0.00  0.00    +0.000 A 
ATOM     34  C   UNL     1      47.271   1.835   7.250  0.00  0.00    +0.000 A 
ATOM     35  C   UNL     1      46.396   1.154   8.095  0.00  0.00    +0.000 A 
ATOM     36  C   UNL     1      45.347   1.836   8.712  0.00  0.00    +0.000 A 
ENDBRANCH  30  31
ENDBRANCH  25  30
ENDBRANCH  24  25
ENDBRANCH   4  24
TORSDOF 10
ENDMDL
MODEL 6
REMARK VINA RESULT:    -7.233      2.929      9.574
REMARK INTER + INTRA:         -12.369
REMARK INTER:                 -10.740
REMARK INTRA:                  -1.629
REMARK UNBOUND:                -1.119
REMARK  Name = 
REMARK  11 active torsions:
REMARK  status: ('A' for Active; 'I' for Inactive)
REMARK    1  A    between atoms: C_1  and  C_2
REMARK    2  A    between atoms: C_5  and  C_6
REMARK    3  A    between atoms: N_8  and  C_9
REMARK    4  A    between atoms: C_9  and  C_10
REMARK    5  A    between atoms: C_13  and  C_14
REMARK    6  A    between atoms: C_14  and  N_15
REMARK    7  A    between atoms: N_15  and  C_16
REMARK    8  A    between atoms: N_15  and  C_19
REMARK    9  A    between atoms: C_16  and  C_17
REMARK   10  A    between atoms: C_17  and  O_18
REMARK   11  A    between atoms: C_19  and  C_20
REMARK                            x       y       z     vdW  Elec       q    Type
REMARK                         _______ _______ _______ _____ _____    ______ ____
ROOT
ATOM      1  C   UNL     1      47.476   8.081  13.014  0.00  0.00    +0.000 A 
ATOM      2  C   UNL     1      47.806   9.261  13.696  0.00  0.00    +0.000 A 
ATOM      3  C   UNL     1      48.820   9.267  14.656  0.00  0.00    +0.000 A 
ATOM      4  C   UNL     1      49.522   8.092  14.956  0.00  0.00    +0.000 A 
ATOM      5  C   UNL     1      49.267   6.941  14.198  0.00  0.00    +0.000 A 
ATOM      6  C   UNL     1      48.255   6.936  13.234  0.00  0.00    +0.000 A 
ENDROOT
BRANCH   1   7
ATOM      7  C   UNL     1      46.312   8.052  12.054  0.00  0.00    +0.000 C 
BRANCH   7  10
ATOM      8  C   UNL     1      44.718   6.310  11.300  0.00  0.00    +0.000 C 
ATOM      9  O   UNL     1      43.783   7.097  11.187  0.00  0.00    +0.000 OA
ATOM     10  N   UNL     1      45.972   6.700  11.703  0.00  0.00    +0.000 N 
ATOM     11  H   UNL     1      46.717   6.017  11.732  0.00  0.00    +0.000 HD
BRANCH   8  16
ATOM     12  C   UNL     1      46.652   3.593   6.476  0.00  0.00    +0.000 C 
ATOM     13  C   UNL     1      45.942   3.400   7.781  0.00  0.00    +0.000 A 
ATOM     14  C   UNL     1      45.716   4.473   8.652  0.00  0.00    +0.000 A 
ATOM     15  C   UNL     1      45.041   4.169   9.842  0.00  0.00    +0.000 A 
ATOM     16  C   UNL     1      44.584   4.881  11.014  0.00  0.00    +0.000 A 
ATOM     17  C   UNL     1      43.978   3.917  11.800  0.00  0.00    +0.000 A 
ATOM     18 CL   UNL     1      43.185   3.945  13.309  0.00  0.00    +0.000 Cl
ATOM     19  N   UNL     1      44.043   2.703  11.201  0.00  0.00    +0.000 N 
ATOM     20  C   UNL     1      44.684   2.836  10.011  0.00  0.00    +0.000 A 
ATOM     21  N   UNL     1      44.919   1.828   9.159  0.00  0.00    +0.000 NA
ATOM     22  N   UNL     1      45.552   2.125   8.042  0.00  0.00    +0.000 NA
ATOM     23  H   UNL     1      43.674   1.837  11.560  0.00  0.00    +0.000 HD
ENDBRANCH   8  16
ENDBRANCH   7  10
ENDBRANCH   1   7
BRANCH   4  24
ATOM     24  C   UNL     1      50.481   8.045  16.132  0.00  0.00    +0.000 C 
BRANCH  24  25
ATOM     25  N   UNL     1      51.096   6.707  16.343  0.00  0.00    +0.000 NA
BRANCH  25  26
ATOM     26  C   UNL     1      52.577   6.812  16.393  0.00  0.00    +0.000 C 
BRANCH  26  27
ATOM     27  C   UNL     1      53.240   7.429  15.147  0.00  0.00    +0.000 C 
BRANCH  27  28
ATOM     28  O   UNL     1      54.177   6.515  14.578  0.00  0.00    +0.000 OA
ATOM     29  H   UNL     1      53.983   6.460  13.627  0.00  0.00    +0.000 HD
ENDBRANCH  27  28
ENDBRANCH  26  27
ENDBRANCH  25  26
BRANCH  25  30
ATOM     30  C   UNL     1      50.594   6.118  17.604  0.00  0.00    +0.000 C 
BRANCH  30  31
ATOM     31  C   UNL     1      49.565   5.021  17.437  0.00  0.00    +0.000 A 
ATOM     32  C   UNL     1      49.952   3.674  17.385  0.00  0.00    +0.000 A 
ATOM     33  C   UNL     1      48.990   2.666  17.305  0.00  0.00    +0.000 A 
ATOM     34  C   UNL     1      47.635   2.993  17.274  0.00  0.00    +0.000 A 
ATOM     35  C   UNL     1      47.240   4.329  17.309  0.00  0.00    +0.000 A 
ATOM     36  C   UNL     1      48.200   5.339  17.391  0.00  0.00    +0.000 A 
ENDBRANCH  30  31
ENDBRANCH  25  30
ENDBRANCH  24  25
ENDBRANCH   4  24
TORSDOF 10
ENDMDL
MODEL 7
REMARK VINA RESULT:    -7.174      2.685     10.499
REMARK INTER + INTRA:         -12.278
REMARK INTER:                 -11.121
REMARK INTRA:                  -1.156
REMARK UNBOUND:                -1.119
REMARK  Name = 
REMARK  11 active torsions:
REMARK  status: ('A' for Active; 'I' for Inactive)
REMARK    1  A    between atoms: C_1  and  C_2
REMARK    2  A    between atoms: C_5  and  C_6
REMARK    3  A    between atoms: N_8  and  C_9
REMARK    4  A    between atoms: C_9  and  C_10
REMARK    5  A    between atoms: C_13  and  C_14
REMARK    6  A    between atoms: C_14  and  N_15
REMARK    7  A    between atoms: N_15  and  C_16
REMARK    8  A    between atoms: N_15  and  C_19
REMARK    9  A    between atoms: C_16  and  C_17
REMARK   10  A    between atoms: C_17  and  O_18
REMARK   11  A    between atoms: C_19  and  C_20
REMARK                            x       y       z     vdW  Elec       q    Type
REMARK                         _______ _______ _______ _____ _____    ______ ____
ROOT
ATOM      1  C   UNL     1      47.759   7.751  13.612  0.00  0.00    +0.000 A 
ATOM      2  C   UNL     1      47.917   8.841  14.480  0.00  0.00    +0.000 A 
ATOM      3  C   UNL     1      48.465   8.662  15.752  0.00  0.00    +0.000 A 
ATOM      4  C   UNL     1      48.862   7.389  16.182  0.00  0.00    +0.000 A 
ATOM      5  C   UNL     1      48.806   6.322  15.276  0.00  0.00    +0.000 A 
ATOM      6  C   UNL     1      48.261   6.502  14.001  0.00  0.00    +0.000 A 
ENDROOT
BRANCH   1   7
ATOM      7  C   UNL     1      47.071   7.927  12.280  0.00  0.00    +0.000 C 
BRANCH   7  10
ATOM      8  C   UNL     1      45.106   6.650  11.476  0.00  0.00    +0.000 C 
ATOM      9  O   UNL     1      44.384   7.640  11.411  0.00  0.00    +0.000 OA
ATOM     10  N   UNL     1      46.419   6.712  11.877  0.00  0.00    +0.000 N 
ATOM     11  H   UNL     1      46.979   5.871  11.865  0.00  0.00    +0.000 HD
BRANCH   8  16
ATOM     12  C   UNL     1      46.631   3.615   6.694  0.00  0.00    +0.000 C 
ATOM     13  C   UNL     1      45.803   3.587   7.942  0.00  0.00    +0.000 A 
ATOM     14  C   UNL     1      45.794   4.666   8.834  0.00  0.00    +0.000 A 
ATOM     15  C   UNL     1      44.979   4.524   9.966  0.00  0.00    +0.000 A 
ATOM     16  C   UNL     1      44.635   5.307  11.131  0.00  0.00    +0.000 A 
ATOM     17  C   UNL     1      43.749   4.516  11.841  0.00  0.00    +0.000 A 
ATOM     18 CL   UNL     1      42.882   4.719  13.295  0.00  0.00    +0.000 Cl
ATOM     19  N   UNL     1      43.547   3.337  11.204  0.00  0.00    +0.000 N 
ATOM     20  C   UNL     1      44.285   3.323  10.064  0.00  0.00    +0.000 A 
ATOM     21  N   UNL     1      44.318   2.304   9.194  0.00  0.00    +0.000 NA
ATOM     22  N   UNL     1      45.084   2.449   8.132  0.00  0.00    +0.000 NA
ATOM     23  H   UNL     1      42.945   2.588  11.507  0.00  0.00    +0.000 HD
ENDBRANCH   8  16
ENDBRANCH   7  10
ENDBRANCH   1   7
BRANCH   4  24
ATOM     24  C   UNL     1      49.269   7.155  17.626  0.00  0.00    +0.000 C 
BRANCH  24  25
ATOM     25  N   UNL     1      48.118   6.908  18.535  0.00  0.00    +0.000 NA
BRANCH  25  26
ATOM     26  C   UNL     1      47.784   5.461  18.580  0.00  0.00    +0.000 C 
BRANCH  26  27
ATOM     27  C   UNL     1      48.909   4.538  19.086  0.00  0.00    +0.000 C 
BRANCH  27  28
ATOM     28  O   UNL     1      48.470   3.794  20.222  0.00  0.00    +0.000 OA
ATOM     29  H   UNL     1      49.112   3.953  20.935  0.00  0.00    +0.000 HD
ENDBRANCH  27  28
ENDBRANCH  26  27
ENDBRANCH  25  26
BRANCH  25  30
ATOM     30  C   UNL     1      48.443   7.389  19.896  0.00  0.00    +0.000 C 
BRANCH  30  31
ATOM     31  C   UNL     1      47.531   8.471  20.432  0.00  0.00    +0.000 A 
ATOM     32  C   UNL     1      47.150   8.488  21.781  0.00  0.00    +0.000 A 
ATOM     33  C   UNL     1      46.369   9.531  22.282  0.00  0.00    +0.000 A 
ATOM     34  C   UNL     1      45.958  10.564  21.439  0.00  0.00    +0.000 A 
ATOM     35  C   UNL     1      46.317  10.548  20.093  0.00  0.00    +0.000 A 
ATOM     36  C   UNL     1      47.100   9.508  19.590  0.00  0.00    +0.000 A 
ENDBRANCH  30  31
ENDBRANCH  25  30
ENDBRANCH  24  25
ENDBRANCH   4  24
TORSDOF 10
ENDMDL
MODEL 8
REMARK VINA RESULT:    -6.927      3.678      9.104
REMARK INTER + INTRA:         -11.893
REMARK INTER:                  -9.061
REMARK INTRA:                  -2.833
REMARK UNBOUND:                -1.119
REMARK  Name = 
REMARK  11 active torsions:
REMARK  status: ('A' for Active; 'I' for Inactive)
REMARK    1  A    between atoms: C_1  and  C_2
REMARK    2  A    between atoms: C_5  and  C_6
REMARK    3  A    between atoms: N_8  and  C_9
REMARK    4  A    between atoms: C_9  and  C_10
REMARK    5  A    between atoms: C_13  and  C_14
REMARK    6  A    between atoms: C_14  and  N_15
REMARK    7  A    between atoms: N_15  and  C_16
REMARK    8  A    between atoms: N_15  and  C_19
REMARK    9  A    between atoms: C_16  and  C_17
REMARK   10  A    between atoms: C_17  and  O_18
REMARK   11  A    between atoms: C_19  and  C_20
REMARK                            x       y       z     vdW  Elec       q    Type
REMARK                         _______ _______ _______ _____ _____    ______ ____
ROOT
ATOM      1  C   UNL     1      48.006   3.977  17.100  0.00  0.00    +0.000 A 
ATOM      2  C   UNL     1      49.286   3.636  17.562  0.00  0.00    +0.000 A 
ATOM      3  C   UNL     1      49.785   4.189  18.744  0.00  0.00    +0.000 A 
ATOM      4  C   UNL     1      49.015   5.096  19.485  0.00  0.00    +0.000 A 
ATOM      5  C   UNL     1      47.697   5.350  19.083  0.00  0.00    +0.000 A 
ATOM      6  C   UNL     1      47.197   4.793  17.902  0.00  0.00    +0.000 A 
ENDROOT
BRANCH   1   7
ATOM      7  C   UNL     1      47.510   3.461  15.771  0.00  0.00    +0.000 C 
BRANCH   7  10
ATOM      8  C   UNL     1      46.262   4.310  13.806  0.00  0.00    +0.000 C 
ATOM      9  O   UNL     1      46.284   3.231  13.221  0.00  0.00    +0.000 OA
ATOM     10  N   UNL     1      46.825   4.495  15.046  0.00  0.00    +0.000 N 
ATOM     11  H   UNL     1      46.734   5.393  15.501  0.00  0.00    +0.000 HD
BRANCH   8  16
ATOM     12  C   UNL     1      49.022   9.288  12.389  0.00  0.00    +0.000 C 
ATOM     13  C   UNL     1      47.692   8.598  12.420  0.00  0.00    +0.000 A 
ATOM     14  C   UNL     1      47.564   7.286  12.892  0.00  0.00    +0.000 A 
ATOM     15  C   UNL     1      46.269   6.748  12.874  0.00  0.00    +0.000 A 
ATOM     16  C   UNL     1      45.633   5.502  13.236  0.00  0.00    +0.000 A 
ATOM     17  C   UNL     1      44.294   5.689  12.938  0.00  0.00    +0.000 A 
ATOM     18 CL   UNL     1      42.901   4.717  13.087  0.00  0.00    +0.000 Cl
ATOM     19  N   UNL     1      44.087   6.927  12.429  0.00  0.00    +0.000 N 
ATOM     20  C   UNL     1      45.274   7.586  12.382  0.00  0.00    +0.000 A 
ATOM     21  N   UNL     1      45.429   8.838  11.931  0.00  0.00    +0.000 NA
ATOM     22  N   UNL     1      46.649   9.335  11.956  0.00  0.00    +0.000 NA
ATOM     23  H   UNL     1      43.204   7.315  12.137  0.00  0.00    +0.000 HD
ENDBRANCH   8  16
ENDBRANCH   7  10
ENDBRANCH   1   7
BRANCH   4  24
ATOM     24  C   UNL     1      49.624   5.848  20.655  0.00  0.00    +0.000 C 
BRANCH  24  25
ATOM     25  N   UNL     1      49.445   7.323  20.569  0.00  0.00    +0.000 NA
BRANCH  25  26
ATOM     26  C   UNL     1      49.456   7.933  21.923  0.00  0.00    +0.000 C 
BRANCH  26  27
ATOM     27  C   UNL     1      48.280   8.878  22.233  0.00  0.00    +0.000 C 
BRANCH  27  28
ATOM     28  O   UNL     1      47.100   8.445  21.557  0.00  0.00    +0.000 OA
ATOM     29  H   UNL     1      46.974   7.505  21.772  0.00  0.00    +0.000 HD
ENDBRANCH  27  28
ENDBRANCH  26  27
ENDBRANCH  25  26
BRANCH  25  30
ATOM     30  C   UNL     1      50.526   7.911  19.747  0.00  0.00    +0.000 C 
BRANCH  30  31
ATOM     31  C   UNL     1      50.382   7.712  18.254  0.00  0.00    +0.000 A 
ATOM     32  C   UNL     1      51.382   7.063  17.516  0.00  0.00    +0.000 A 
ATOM     33  C   UNL     1      51.206   6.819  16.153  0.00  0.00    +0.000 A 
ATOM     34  C   UNL     1      50.033   7.222  15.515  0.00  0.00    +0.000 A 
ATOM     35  C   UNL     1      49.040   7.881  16.236  0.00  0.00    +0.000 A 
ATOM     36  C   UNL     1      49.212   8.125  17.600  0.00  0.00    +0.000 A 
ENDBRANCH  30  31
ENDBRANCH  25  30
ENDBRANCH  24  25
ENDBRANCH   4  24
TORSDOF 10
ENDMDL
MODEL 9
REMARK VINA RESULT:    -6.898      3.245      9.861
REMARK INTER + INTRA:         -11.847
REMARK INTER:                 -10.693
REMARK INTRA:                  -1.154
REMARK UNBOUND:                -1.119
REMARK  Name = 
REMARK  11 active torsions:
REMARK  status: ('A' for Active; 'I' for Inactive)
REMARK    1  A    between atoms: C_1  and  C_2
REMARK    2  A    between atoms: C_5  and  C_6
REMARK    3  A    between atoms: N_8  and  C_9
REMARK    4  A    between atoms: C_9  and  C_10
REMARK    5  A    between atoms: C_13  and  C_14
REMARK    6  A    between atoms: C_14  and  N_15
REMARK    7  A    between atoms: N_15  and  C_16
REMARK    8  A    between atoms: N_15  and  C_19
REMARK    9  A    between atoms: C_16  and  C_17
REMARK   10  A    between atoms: C_17  and  O_18
REMARK   11  A    between atoms: C_19  and  C_20
REMARK                            x       y       z     vdW  Elec       q    Type
REMARK                         _______ _______ _______ _____ _____    ______ ____
ROOT
ATOM      1  C   UNL     1      46.169   7.166  12.406  0.00  0.00    +0.000 A 
ATOM      2  C   UNL     1      47.190   6.213  12.539  0.00  0.00    +0.000 A 
ATOM      3  C   UNL     1      48.322   6.488  13.310  0.00  0.00    +0.000 A 
ATOM      4  C   UNL     1      48.456   7.722  13.961  0.00  0.00    +0.000 A 
ATOM      5  C   UNL     1      47.387   8.628  13.918  0.00  0.00    +0.000 A 
ATOM      6  C   UNL     1      46.253   8.351  13.149  0.00  0.00    +0.000 A 
ENDROOT
BRANCH   1   7
ATOM      7  C   UNL     1      44.998   6.909  11.489  0.00  0.00    +0.000 C 
BRANCH   7  10
ATOM      8  C   UNL     1      45.421   5.154   9.791  0.00  0.00    +0.000 C 
ATOM      9  O   UNL     1      45.864   5.944   8.963  0.00  0.00    +0.000 OA
ATOM     10  N   UNL     1      44.993   5.545  11.037  0.00  0.00    +0.000 N 
ATOM     11  H   UNL     1      44.682   4.843  11.695  0.00  0.00    +0.000 HD
BRANCH   8  16
ATOM     12  C   UNL     1      48.253   2.218   5.577  0.00  0.00    +0.000 C 
ATOM     13  C   UNL     1      47.276   2.090   6.706  0.00  0.00    +0.000 A 
ATOM     14  C   UNL     1      46.903   3.198   7.475  0.00  0.00    +0.000 A 
ATOM     15  C   UNL     1      45.981   2.954   8.502  0.00  0.00    +0.000 A 
ATOM     16  C   UNL     1      45.307   3.719   9.527  0.00  0.00    +0.000 A 
ATOM     17  C   UNL     1      44.519   2.798  10.195  0.00  0.00    +0.000 A 
ATOM     18 CL   UNL     1      43.425   2.900  11.499  0.00  0.00    +0.000 Cl
ATOM     19  N   UNL     1      44.673   1.562   9.661  0.00  0.00    +0.000 N 
ATOM     20  C   UNL     1      45.557   1.636   8.632  0.00  0.00    +0.000 A 
ATOM     21  N   UNL     1      45.937   0.593   7.882  0.00  0.00    +0.000 NA
ATOM     22  N   UNL     1      46.801   0.834   6.917  0.00  0.00    +0.000 NA
ATOM     23  H   UNL     1      44.210   0.719   9.960  0.00  0.00    +0.000 HD
ENDBRANCH   8  16
ENDBRANCH   7  10
ENDBRANCH   1   7
BRANCH   4  24
ATOM     24  C   UNL     1      49.763   8.102  14.632  0.00  0.00    +0.000 C 
BRANCH  24  25
ATOM     25  N   UNL     1      50.368   6.996  15.421  0.00  0.00    +0.000 NA
BRANCH  25  26
ATOM     26  C   UNL     1      51.783   7.301  15.754  0.00  0.00    +0.000 C 
BRANCH  26  27
ATOM     27  C   UNL     1      52.006   8.569  16.600  0.00  0.00    +0.000 C 
BRANCH  27  28
ATOM     28  O   UNL     1      53.253   8.496  17.290  0.00  0.00    +0.000 OA
ATOM     29  H   UNL     1      53.948   8.738  16.655  0.00  0.00    +0.000 HD
ENDBRANCH  27  28
ENDBRANCH  26  27
ENDBRANCH  25  26
BRANCH  25  30
ATOM     30  C   UNL     1      49.596   6.788  16.666  0.00  0.00    +0.000 C 
BRANCH  30  31
ATOM     31  C   UNL     1      49.125   5.369  16.903  0.00  0.00    +0.000 A 
ATOM     32  C   UNL     1      47.799   4.998  16.638  0.00  0.00    +0.000 A 
ATOM     33  C   UNL     1      47.393   3.671  16.789  0.00  0.00    +0.000 A 
ATOM     34  C   UNL     1      48.307   2.704  17.209  0.00  0.00    +0.000 A 
ATOM     35  C   UNL     1      49.623   3.065  17.489  0.00  0.00    +0.000 A 
ATOM     36  C   UNL     1      50.032   4.391  17.337  0.00  0.00    +0.000 A 
ENDBRANCH  30  31
ENDBRANCH  25  30
ENDBRANCH  24  25
ENDBRANCH   4  24
TORSDOF 10
ENDMDL
