MODEL 1
REMARK VINA RESULT:    -8.163      0.000      0.000
REMARK INTER + INTRA:         -11.303
REMARK INTER:                 -10.549
REMARK INTRA:                  -0.754
REMARK UNBOUND:                -0.754
REMARK  Name = 
REMARK  5 active torsions:
REMARK  status: ('A' for Active; 'I' for Inactive)
REMARK    1  A    between atoms: N_2  and  C_4
REMARK    2  A    between atoms: C_8  and  C_9
REMARK    3  A    between atoms: C_9  and  O_10
REMARK    4  A    between atoms: O_10  and  C_11
REMARK    5  A    between atoms: C_16  and  C_17
REMARK                            x       y       z     vdW  Elec       q    Type
REMARK                         _______ _______ _______ _____ _____    ______ ____
ROOT
ATOM      1  C   UNL     1      43.947   4.905  10.449  0.00  0.00    +0.000 A 
ATOM      2  C   UNL     1      43.308   3.957  11.240  0.00  0.00    +0.000 A 
ATOM      3  C   UNL     1      43.536   2.611  10.997  0.00  0.00    +0.000 A 
ATOM      4  F   UNL     1      42.943   1.692  11.771  0.00  0.00    +0.000 F 
ATOM      5  C   UNL     1      44.375   2.194   9.965  0.00  0.00    +0.000 A 
ATOM      6  C   UNL     1      45.011   3.130   9.133  0.00  0.00    +0.000 A 
ATOM      7  C   UNL     1      44.774   4.491   9.399  0.00  0.00    +0.000 A 
ENDROOT
BRANCH   6   8
ATOM      8  C   UNL     1      45.897   2.721   8.024  0.00  0.00    +0.000 A 
ATOM      9  C   UNL     1      46.187   3.568   6.946  0.00  0.00    +0.000 A 
ATOM     10  C   UNL     1      47.034   3.151   5.921  0.00  0.00    +0.000 A 
ATOM     11  C   UNL     1      47.570   1.876   5.989  0.00  0.00    +0.000 A 
ATOM     12  N   UNL     1      47.314   1.013   6.990  0.00  0.00    +0.000 NA
ATOM     13  C   UNL     1      46.495   1.456   7.975  0.00  0.00    +0.000 A 
ENDBRANCH   6   8
BRANCH   1  14
ATOM     14  O   UNL     1      43.700   6.212  10.762  0.00  0.00    +0.000 OA
BRANCH  14  15
ATOM     15  C   UNL     1      43.881   6.551  12.142  0.00  0.00    +0.000 C 
BRANCH  15  20
ATOM     16  C   UNL     1      47.091   5.346  13.739  0.00  0.00    +0.000 A 
ATOM     17  C   UNL     1      48.019   6.170  13.103  0.00  0.00    +0.000 A 
ATOM     18  C   UNL     1      47.531   7.082  12.189  0.00  0.00    +0.000 A 
ATOM     19  N   UNL     1      46.221   7.215  11.895  0.00  0.00    +0.000 NA
ATOM     20  C   UNL     1      45.333   6.412  12.535  0.00  0.00    +0.000 A 
ATOM     21  C   UNL     1      45.732   5.450  13.451  0.00  0.00    +0.000 A 
BRANCH  16  23
ATOM     22  O   UNL     1      48.096   4.777  15.743  0.00  0.00    +0.000 OA
ATOM     23  N   UNL     1      47.544   4.358  14.718  0.00  0.00    +0.000 N 
ATOM     24  O   UNL     1      47.350   3.160  14.460  0.00  0.00    +0.000 OA
ENDBRANCH  16  23
ENDBRANCH  15  20
ENDBRANCH  14  15
ENDBRANCH   1  14
TORSDOF 5
ENDMDL
MODEL 2
REMARK VINA RESULT:    -7.850      1.768      2.433
REMARK INTER + INTRA:         -10.899
REMARK INTER:                 -10.128
REMARK INTRA:                  -0.771
REMARK UNBOUND:                -0.754
REMARK  Name = 
REMARK  5 active torsions:
REMARK  status: ('A' for Active; 'I' for Inactive)
REMARK    1  A    between atoms: N_2  and  C_4
REMARK    2  A    between atoms: C_8  and  C_9
REMARK    3  A    between atoms: C_9  and  O_10
REMARK    4  A    between atoms: O_10  and  C_11
REMARK    5  A    between atoms: C_16  and  C_17
REMARK                            x       y       z     vdW  Elec       q    Type
REMARK                         _______ _______ _______ _____ _____    ______ ____
ROOT
ATOM      1  C   UNL     1      45.305   6.543  11.413  0.00  0.00    +0.000 A 
ATOM      2  C   UNL     1      43.966   6.498  11.786  0.00  0.00    +0.000 A 
ATOM      3  C   UNL     1      43.153   5.503  11.265  0.00  0.00    +0.000 A 
ATOM      4  F   UNL     1      41.869   5.438  11.639  0.00  0.00    +0.000 F 
ATOM      5  C   UNL     1      43.648   4.564  10.361  0.00  0.00    +0.000 A 
ATOM      6  C   UNL     1      44.990   4.603   9.946  0.00  0.00    +0.000 A 
ATOM      7  C   UNL     1      45.801   5.616  10.491  0.00  0.00    +0.000 A 
ENDROOT
BRANCH   6   8
ATOM      8  C   UNL     1      45.543   3.630   8.982  0.00  0.00    +0.000 A 
ATOM      9  C   UNL     1      46.147   4.026   7.782  0.00  0.00    +0.000 A 
ATOM     10  C   UNL     1      46.666   3.080   6.900  0.00  0.00    +0.000 A 
ATOM     11  C   UNL     1      46.557   1.741   7.233  0.00  0.00    +0.000 A 
ATOM     12  N   UNL     1      45.971   1.301   8.363  0.00  0.00    +0.000 NA
ATOM     13  C   UNL     1      45.489   2.249   9.203  0.00  0.00    +0.000 A 
ENDBRANCH   6   8
BRANCH   1  14
ATOM     14  O   UNL     1      46.054   7.532  11.986  0.00  0.00    +0.000 OA
BRANCH  14  15
ATOM     15  C   UNL     1      47.450   7.237  12.118  0.00  0.00    +0.000 C 
BRANCH  15  20
ATOM     16  C   UNL     1      47.749   5.136  15.248  0.00  0.00    +0.000 A 
ATOM     17  C   UNL     1      48.476   5.997  16.068  0.00  0.00    +0.000 A 
ATOM     18  C   UNL     1      48.819   7.227  15.544  0.00  0.00    +0.000 A 
ATOM     19  N   UNL     1      48.483   7.627  14.300  0.00  0.00    +0.000 NA
ATOM     20  C   UNL     1      47.763   6.778  13.523  0.00  0.00    +0.000 A 
ATOM     21  C   UNL     1      47.393   5.513  13.956  0.00  0.00    +0.000 A 
BRANCH  16  23
ATOM     22  O   UNL     1      47.786   2.824  15.146  0.00  0.00    +0.000 OA
ATOM     23  N   UNL     1      47.354   3.817  15.745  0.00  0.00    +0.000 N 
ATOM     24  O   UNL     1      46.609   3.773  16.736  0.00  0.00    +0.000 OA
ENDBRANCH  16  23
ENDBRANCH  15  20
ENDBRANCH  14  15
ENDBRANCH   1  14
TORSDOF 5
ENDMDL
MODEL 3
REMARK VINA RESULT:    -7.624      3.063      6.408
REMARK INTER + INTRA:         -10.606
REMARK INTER:                 -10.124
REMARK INTRA:                  -0.482
REMARK UNBOUND:                -0.754
REMARK  Name = 
REMARK  5 active torsions:
REMARK  status: ('A' for Active; 'I' for Inactive)
REMARK    1  A    between atoms: N_2  and  C_4
REMARK    2  A    between atoms: C_8  and  C_9
REMARK    3  A    between atoms: C_9  and  O_10
REMARK    4  A    between atoms: O_10  and  C_11
REMARK    5  A    between atoms: C_16  and  C_17
REMARK                            x       y       z     vdW  Elec       q    Type
REMARK                         _______ _______ _______ _____ _____    ______ ____
ROOT
ATOM      1  C   UNL     1      45.094   5.205  11.796  0.00  0.00    +0.000 A 
ATOM      2  C   UNL     1      45.315   4.427  12.927  0.00  0.00    +0.000 A 
ATOM      3  C   UNL     1      46.347   4.767  13.789  0.00  0.00    +0.000 A 
ATOM      4  F   UNL     1      46.551   4.036  14.893  0.00  0.00    +0.000 F 
ATOM      5  C   UNL     1      47.175   5.858  13.532  0.00  0.00    +0.000 A 
ATOM      6  C   UNL     1      46.991   6.645  12.383  0.00  0.00    +0.000 A 
ATOM      7  C   UNL     1      45.935   6.289  11.523  0.00  0.00    +0.000 A 
ENDROOT
BRANCH   6   8
ATOM      8  C   UNL     1      47.858   7.801  12.075  0.00  0.00    +0.000 A 
ATOM      9  C   UNL     1      47.388   9.120  12.111  0.00  0.00    +0.000 A 
ATOM     10  C   UNL     1      48.238  10.187  11.824  0.00  0.00    +0.000 A 
ATOM     11  C   UNL     1      49.551   9.909  11.490  0.00  0.00    +0.000 A 
ATOM     12  N   UNL     1      50.055   8.661  11.423  0.00  0.00    +0.000 NA
ATOM     13  C   UNL     1      49.203   7.650  11.720  0.00  0.00    +0.000 A 
ENDBRANCH   6   8
BRANCH   1  14
ATOM     14  O   UNL     1      44.044   4.830  11.006  0.00  0.00    +0.000 OA
BRANCH  14  15
ATOM     15  C   UNL     1      44.115   3.493  10.496  0.00  0.00    +0.000 C 
BRANCH  15  20
ATOM     16  C   UNL     1      46.462   2.196   7.829  0.00  0.00    +0.000 A 
ATOM     17  C   UNL     1      46.768   3.379   7.158  0.00  0.00    +0.000 A 
ATOM     18  C   UNL     1      46.188   4.540   7.629  0.00  0.00    +0.000 A 
ATOM     19  N   UNL     1      45.361   4.581   8.695  0.00  0.00    +0.000 NA
ATOM     20  C   UNL     1      45.087   3.419   9.342  0.00  0.00    +0.000 A 
ATOM     21  C   UNL     1      45.604   2.201   8.926  0.00  0.00    +0.000 A 
BRANCH  16  23
ATOM     22  O   UNL     1      47.865   0.974   6.454  0.00  0.00    +0.000 OA
ATOM     23  N   UNL     1      47.043   0.932   7.378  0.00  0.00    +0.000 N 
ATOM     24  O   UNL     1      46.676  -0.108   7.947  0.00  0.00    +0.000 OA
ENDBRANCH  16  23
ENDBRANCH  15  20
ENDBRANCH  14  15
ENDBRANCH   1  14
TORSDOF 5
ENDMDL
MODEL 4
REMARK VINA RESULT:    -7.559      2.735      3.844
REMARK INTER + INTRA:         -10.523
REMARK INTER:                  -9.994
REMARK INTRA:                  -0.529
REMARK UNBOUND:                -0.754
REMARK  Name = 
REMARK  5 active torsions:
REMARK  status: ('A' for Active; 'I' for Inactive)
REMARK    1  A    between atoms: N_2  and  C_4
REMARK    2  A    between atoms: C_8  and  C_9
REMARK    3  A    between atoms: C_9  and  O_10
REMARK    4  A    between atoms: O_10  and  C_11
REMARK    5  A    between atoms: C_16  and  C_17
REMARK                            x       y       z     vdW  Elec       q    Type
REMARK                         _______ _______ _______ _____ _____    ______ ____
ROOT
ATOM      1  C   UNL     1      44.836   4.554  12.948  0.00  0.00    +0.000 A 
ATOM      2  C   UNL     1      43.571   5.130  12.929  0.00  0.00    +0.000 A 
ATOM      3  C   UNL     1      42.872   5.185  11.732  0.00  0.00    +0.000 A 
ATOM      4  F   UNL     1      41.643   5.716  11.710  0.00  0.00    +0.000 F 
ATOM      5  C   UNL     1      43.424   4.694  10.549  0.00  0.00    +0.000 A 
ATOM      6  C   UNL     1      44.711   4.132  10.536  0.00  0.00    +0.000 A 
ATOM      7  C   UNL     1      45.402   4.079  11.761  0.00  0.00    +0.000 A 
ENDROOT
BRANCH   6   8
ATOM      8  C   UNL     1      45.329   3.614   9.298  0.00  0.00    +0.000 A 
ATOM      9  C   UNL     1      45.490   2.243   9.059  0.00  0.00    +0.000 A 
ATOM     10  C   UNL     1      46.069   1.790   7.875  0.00  0.00    +0.000 A 
ATOM     11  C   UNL     1      46.491   2.728   6.949  0.00  0.00    +0.000 A 
ATOM     12  N   UNL     1      46.378   4.058   7.131  0.00  0.00    +0.000 NA
ATOM     13  C   UNL     1      45.799   4.462   8.288  0.00  0.00    +0.000 A 
ENDBRANCH   6   8
BRANCH   1  14
ATOM     14  O   UNL     1      45.455   4.508  14.166  0.00  0.00    +0.000 OA
BRANCH  14  15
ATOM     15  C   UNL     1      46.887   4.484  14.118  0.00  0.00    +0.000 C 
BRANCH  15  20
ATOM     16  C   UNL     1      47.838   4.340  17.776  0.00  0.00    +0.000 A 
ATOM     17  C   UNL     1      48.426   3.077  17.839  0.00  0.00    +0.000 A 
ATOM     18  C   UNL     1      48.482   2.348  16.668  0.00  0.00    +0.000 A 
ATOM     19  N   UNL     1      48.010   2.797  15.487  0.00  0.00    +0.000 NA
ATOM     20  C   UNL     1      47.453   4.036  15.445  0.00  0.00    +0.000 A 
ATOM     21  C   UNL     1      47.332   4.831  16.575  0.00  0.00    +0.000 A 
BRANCH  16  23
ATOM     22  O   UNL     1      46.748   5.880  19.114  0.00  0.00    +0.000 OA
ATOM     23  N   UNL     1      47.747   5.162  18.982  0.00  0.00    +0.000 N 
ATOM     24  O   UNL     1      48.678   5.093  19.799  0.00  0.00    +0.000 OA
ENDBRANCH  16  23
ENDBRANCH  15  20
ENDBRANCH  14  15
ENDBRANCH   1  14
TORSDOF 5
ENDMDL
MODEL 5
REMARK VINA RESULT:    -7.509      3.096      6.486
REMARK INTER + INTRA:         -10.458
REMARK INTER:                 -10.179
REMARK INTRA:                  -0.279
REMARK UNBOUND:                -0.754
REMARK  Name = 
REMARK  5 active torsions:
REMARK  status: ('A' for Active; 'I' for Inactive)
REMARK    1  A    between atoms: N_2  and  C_4
REMARK    2  A    between atoms: C_8  and  C_9
REMARK    3  A    between atoms: C_9  and  O_10
REMARK    4  A    between atoms: O_10  and  C_11
REMARK    5  A    between atoms: C_16  and  C_17
REMARK                            x       y       z     vdW  Elec       q    Type
REMARK                         _______ _______ _______ _____ _____    ______ ____
ROOT
ATOM      1  C   UNL     1      44.877   4.804  11.846  0.00  0.00    +0.000 A 
ATOM      2  C   UNL     1      43.914   5.737  11.478  0.00  0.00    +0.000 A 
ATOM      3  C   UNL     1      44.231   7.087  11.519  0.00  0.00    +0.000 A 
ATOM      4  F   UNL     1      43.317   7.990  11.142  0.00  0.00    +0.000 F 
ATOM      5  C   UNL     1      45.486   7.523  11.942  0.00  0.00    +0.000 A 
ATOM      6  C   UNL     1      46.468   6.602  12.345  0.00  0.00    +0.000 A 
ATOM      7  C   UNL     1      46.131   5.237  12.290  0.00  0.00    +0.000 A 
ENDROOT
BRANCH   6   8
ATOM      8  C   UNL     1      47.804   7.032  12.809  0.00  0.00    +0.000 A 
ATOM      9  C   UNL     1      48.617   7.890  12.057  0.00  0.00    +0.000 A 
ATOM     10  C   UNL     1      49.868   8.281  12.532  0.00  0.00    +0.000 A 
ATOM     11  C   UNL     1      50.290   7.791  13.755  0.00  0.00    +0.000 A 
ATOM     12  N   UNL     1      49.559   6.951  14.513  0.00  0.00    +0.000 NA
ATOM     13  C   UNL     1      48.344   6.601  14.027  0.00  0.00    +0.000 A 
ENDBRANCH   6   8
BRANCH   1  14
ATOM     14  O   UNL     1      44.506   3.492  11.755  0.00  0.00    +0.000 OA
BRANCH  14  15
ATOM     15  C   UNL     1      43.884   3.122  10.519  0.00  0.00    +0.000 C 
BRANCH  15  20
ATOM     16  C   UNL     1      46.392   2.063   7.893  0.00  0.00    +0.000 A 
ATOM     17  C   UNL     1      46.628   3.282   7.257  0.00  0.00    +0.000 A 
ATOM     18  C   UNL     1      45.953   4.385   7.737  0.00  0.00    +0.000 A 
ATOM     19  N   UNL     1      45.095   4.340   8.778  0.00  0.00    +0.000 NA
ATOM     20  C   UNL     1      44.890   3.146   9.392  0.00  0.00    +0.000 A 
ATOM     21  C   UNL     1      45.506   1.979   8.965  0.00  0.00    +0.000 A 
BRANCH  16  23
ATOM     22  O   UNL     1      48.003   0.994   6.623  0.00  0.00    +0.000 OA
ATOM     23  N   UNL     1      47.077   0.856   7.432  0.00  0.00    +0.000 N 
ATOM     24  O   UNL     1      46.688  -0.234   7.878  0.00  0.00    +0.000 OA
ENDBRANCH  16  23
ENDBRANCH  15  20
ENDBRANCH  14  15
ENDBRANCH   1  14
TORSDOF 5
ENDMDL
MODEL 6
REMARK VINA RESULT:    -7.457      1.845      2.215
REMARK INTER + INTRA:         -10.390
REMARK INTER:                  -9.687
REMARK INTRA:                  -0.703
REMARK UNBOUND:                -0.754
REMARK  Name = 
REMARK  5 active torsions:
REMARK  status: ('A' for Active; 'I' for Inactive)
REMARK    1  A    between atoms: N_2  and  C_4
REMARK    2  A    between atoms: C_8  and  C_9
REMARK    3  A    between atoms: C_9  and  O_10
REMARK    4  A    between atoms: O_10  and  C_11
REMARK    5  A    between atoms: C_16  and  C_17
REMARK                            x       y       z     vdW  Elec       q    Type
REMARK                         _______ _______ _______ _____ _____    ______ ____
ROOT
ATOM      1  C   UNL     1      44.330   5.024  10.647  0.00  0.00    +0.000 A 
ATOM      2  C   UNL     1      43.557   4.122  11.370  0.00  0.00    +0.000 A 
ATOM      3  C   UNL     1      43.586   2.779  11.025  0.00  0.00    +0.000 A 
ATOM      4  F   UNL     1      42.864   1.901  11.732  0.00  0.00    +0.000 F 
ATOM      5  C   UNL     1      44.357   2.323   9.956  0.00  0.00    +0.000 A 
ATOM      6  C   UNL     1      45.126   3.217   9.192  0.00  0.00    +0.000 A 
ATOM      7  C   UNL     1      45.089   4.575   9.562  0.00  0.00    +0.000 A 
ENDROOT
BRANCH   6   8
ATOM      8  C   UNL     1      45.944   2.769   8.047  0.00  0.00    +0.000 A 
ATOM      9  C   UNL     1      46.221   3.599   6.953  0.00  0.00    +0.000 A 
ATOM     10  C   UNL     1      47.006   3.144   5.895  0.00  0.00    +0.000 A 
ATOM     11  C   UNL     1      47.491   1.850   5.946  0.00  0.00    +0.000 A 
ATOM     12  N   UNL     1      47.244   1.001   6.962  0.00  0.00    +0.000 NA
ATOM     13  C   UNL     1      46.489   1.480   7.979  0.00  0.00    +0.000 A 
ENDBRANCH   6   8
BRANCH   1  14
ATOM     14  O   UNL     1      44.275   6.325  11.060  0.00  0.00    +0.000 OA
BRANCH  14  15
ATOM     15  C   UNL     1      44.755   6.561  12.389  0.00  0.00    +0.000 C 
BRANCH  15  20
ATOM     16  C   UNL     1      48.202   8.117  12.372  0.00  0.00    +0.000 A 
ATOM     17  C   UNL     1      47.876   9.465  12.231  0.00  0.00    +0.000 A 
ATOM     18  C   UNL     1      46.535   9.785  12.159  0.00  0.00    +0.000 A 
ATOM     19  N   UNL     1      45.545   8.869  12.223  0.00  0.00    +0.000 NA
ATOM     20  C   UNL     1      45.885   7.563  12.374  0.00  0.00    +0.000 A 
ATOM     21  C   UNL     1      47.206   7.145  12.433  0.00  0.00    +0.000 A 
BRANCH  16  23
ATOM     22  O   UNL     1      50.081   7.513  13.581  0.00  0.00    +0.000 OA
ATOM     23  N   UNL     1      49.606   7.712  12.455  0.00  0.00    +0.000 N 
ATOM     24  O   UNL     1      50.236   7.594  11.393  0.00  0.00    +0.000 OA
ENDBRANCH  16  23
ENDBRANCH  15  20
ENDBRANCH  14  15
ENDBRANCH   1  14
TORSDOF 5
ENDMDL
MODEL 7
REMARK VINA RESULT:    -7.377      3.225      6.769
REMARK INTER + INTRA:         -10.287
REMARK INTER:                  -9.798
REMARK INTRA:                  -0.489
REMARK UNBOUND:                -0.754
REMARK  Name = 
REMARK  5 active torsions:
REMARK  status: ('A' for Active; 'I' for Inactive)
REMARK    1  A    between atoms: N_2  and  C_4
REMARK    2  A    between atoms: C_8  and  C_9
REMARK    3  A    between atoms: C_9  and  O_10
REMARK    4  A    between atoms: O_10  and  C_11
REMARK    5  A    between atoms: C_16  and  C_17
REMARK                            x       y       z     vdW  Elec       q    Type
REMARK                         _______ _______ _______ _____ _____    ______ ____
ROOT
ATOM      1  C   UNL     1      44.505   5.149  11.963  0.00  0.00    +0.000 A 
ATOM      2  C   UNL     1      45.358   4.441  12.802  0.00  0.00    +0.000 A 
ATOM      3  C   UNL     1      46.361   5.122  13.476  0.00  0.00    +0.000 A 
ATOM      4  F   UNL     1      47.170   4.451  14.305  0.00  0.00    +0.000 F 
ATOM      5  C   UNL     1      46.541   6.494  13.310  0.00  0.00    +0.000 A 
ATOM      6  C   UNL     1      45.710   7.229  12.447  0.00  0.00    +0.000 A 
ATOM      7  C   UNL     1      44.694   6.522  11.777  0.00  0.00    +0.000 A 
ENDROOT
BRANCH   6   8
ATOM      8  C   UNL     1      45.882   8.682  12.240  0.00  0.00    +0.000 A 
ATOM      9  C   UNL     1      47.141   9.296  12.246  0.00  0.00    +0.000 A 
ATOM     10  C   UNL     1      47.265  10.668  12.038  0.00  0.00    +0.000 A 
ATOM     11  C   UNL     1      46.113  11.409  11.838  0.00  0.00    +0.000 A 
ATOM     12  N   UNL     1      44.876  10.877  11.838  0.00  0.00    +0.000 NA
ATOM     13  C   UNL     1      44.794   9.538  12.032  0.00  0.00    +0.000 A 
ENDBRANCH   6   8
BRANCH   1  14
ATOM     14  O   UNL     1      43.522   4.420  11.353  0.00  0.00    +0.000 OA
BRANCH  14  15
ATOM     15  C   UNL     1      43.901   3.092  10.970  0.00  0.00    +0.000 C 
BRANCH  15  20
ATOM     16  C   UNL     1      46.130   2.093   8.083  0.00  0.00    +0.000 A 
ATOM     17  C   UNL     1      46.035   3.228   7.280  0.00  0.00    +0.000 A 
ATOM     18  C   UNL     1      45.247   4.263   7.741  0.00  0.00    +0.000 A 
ATOM     19  N   UNL     1      44.583   4.229   8.915  0.00  0.00    +0.000 NA
ATOM     20  C   UNL     1      44.700   3.118   9.689  0.00  0.00    +0.000 A 
ATOM     21  C   UNL     1      45.450   2.020   9.297  0.00  0.00    +0.000 A 
BRANCH  16  23
ATOM     22  O   UNL     1      46.584  -0.174   7.984  0.00  0.00    +0.000 OA
ATOM     23  N   UNL     1      46.949   0.960   7.651  0.00  0.00    +0.000 N 
ATOM     24  O   UNL     1      47.963   1.205   6.978  0.00  0.00    +0.000 OA
ENDBRANCH  16  23
ENDBRANCH  15  20
ENDBRANCH  14  15
ENDBRANCH   1  14
TORSDOF 5
ENDMDL
MODEL 8
REMARK VINA RESULT:    -6.803      3.341      5.072
REMARK INTER + INTRA:          -9.546
REMARK INTER:                  -8.894
REMARK INTRA:                  -0.652
REMARK UNBOUND:                -0.754
REMARK  Name = 
REMARK  5 active torsions:
REMARK  status: ('A' for Active; 'I' for Inactive)
REMARK    1  A    between atoms: N_2  and  C_4
REMARK    2  A    between atoms: C_8  and  C_9
REMARK    3  A    between atoms: C_9  and  O_10
REMARK    4  A    between atoms: O_10  and  C_11
REMARK    5  A    between atoms: C_16  and  C_17
REMARK                            x       y       z     vdW  Elec       q    Type
REMARK                         _______ _______ _______ _____ _____    ______ ____
ROOT
ATOM      1  C   UNL     1      45.257   6.537  11.374  0.00  0.00    +0.000 A 
ATOM      2  C   UNL     1      43.928   6.445  11.771  0.00  0.00    +0.000 A 
ATOM      3  C   UNL     1      43.144   5.414  11.274  0.00  0.00    +0.000 A 
ATOM      4  F   UNL     1      41.870   5.305  11.671  0.00  0.00    +0.000 F 
ATOM      5  C   UNL     1      43.659   4.485  10.371  0.00  0.00    +0.000 A 
ATOM      6  C   UNL     1      44.991   4.571   9.932  0.00  0.00    +0.000 A 
ATOM      7  C   UNL     1      45.772   5.619  10.452  0.00  0.00    +0.000 A 
ENDROOT
BRANCH   6   8
ATOM      8  C   UNL     1      45.563   3.609   8.967  0.00  0.00    +0.000 A 
ATOM      9  C   UNL     1      46.188   4.020   7.783  0.00  0.00    +0.000 A 
ATOM     10  C   UNL     1      46.725   3.084   6.901  0.00  0.00    +0.000 A 
ATOM     11  C   UNL     1      46.613   1.742   7.218  0.00  0.00    +0.000 A 
ATOM     12  N   UNL     1      46.009   1.288   8.332  0.00  0.00    +0.000 NA
ATOM     13  C   UNL     1      45.509   2.225   9.173  0.00  0.00    +0.000 A 
ENDBRANCH   6   8
BRANCH   1  14
ATOM     14  O   UNL     1      45.978   7.559  11.924  0.00  0.00    +0.000 OA
BRANCH  14  15
ATOM     15  C   UNL     1      45.195   8.606  12.511  0.00  0.00    +0.000 C 
BRANCH  15  20
ATOM     16  C   UNL     1      43.976  10.999   9.849  0.00  0.00    +0.000 A 
ATOM     17  C   UNL     1      44.923  12.016   9.964  0.00  0.00    +0.000 A 
ATOM     18  C   UNL     1      45.915  11.850  10.909  0.00  0.00    +0.000 A 
ATOM     19  N   UNL     1      46.012  10.765  11.705  0.00  0.00    +0.000 NA
ATOM     20  C   UNL     1      45.088   9.780  11.567  0.00  0.00    +0.000 A 
ATOM     21  C   UNL     1      44.041   9.870  10.662  0.00  0.00    +0.000 A 
BRANCH  16  23
ATOM     22  O   UNL     1      41.743  11.235   9.293  0.00  0.00    +0.000 OA
ATOM     23  N   UNL     1      42.898  11.115   8.867  0.00  0.00    +0.000 N 
ATOM     24  O   UNL     1      43.207  11.084   7.665  0.00  0.00    +0.000 OA
ENDBRANCH  16  23
ENDBRANCH  15  20
ENDBRANCH  14  15
ENDBRANCH   1  14
TORSDOF 5
ENDMDL
MODEL 9
REMARK VINA RESULT:    -6.675      3.210      4.897
REMARK INTER + INTRA:          -9.380
REMARK INTER:                  -8.666
REMARK INTRA:                  -0.714
REMARK UNBOUND:                -0.754
REMARK  Name = 
REMARK  5 active torsions:
REMARK  status: ('A' for Active; 'I' for Inactive)
REMARK    1  A    between atoms: N_2  and  C_4
REMARK    2  A    between atoms: C_8  and  C_9
REMARK    3  A    between atoms: C_9  and  O_10
REMARK    4  A    between atoms: O_10  and  C_11
REMARK    5  A    between atoms: C_16  and  C_17
REMARK                            x       y       z     vdW  Elec       q    Type
REMARK                         _______ _______ _______ _____ _____    ______ ____
ROOT
ATOM      1  C   UNL     1      47.461   7.170  12.938  0.00  0.00    +0.000 A 
ATOM      2  C   UNL     1      46.712   8.333  13.078  0.00  0.00    +0.000 A 
ATOM      3  C   UNL     1      45.480   8.423  12.447  0.00  0.00    +0.000 A 
ATOM      4  F   UNL     1      44.742   9.531  12.598  0.00  0.00    +0.000 F 
ATOM      5  C   UNL     1      44.991   7.380  11.662  0.00  0.00    +0.000 A 
ATOM      6  C   UNL     1      45.739   6.204  11.482  0.00  0.00    +0.000 A 
ATOM      7  C   UNL     1      46.984   6.129  12.135  0.00  0.00    +0.000 A 
ENDROOT
BRANCH   6   8
ATOM      8  C   UNL     1      45.255   5.086  10.647  0.00  0.00    +0.000 A 
ATOM      9  C   UNL     1      45.565   4.979   9.285  0.00  0.00    +0.000 A 
ATOM     10  C   UNL     1      45.098   3.904   8.532  0.00  0.00    +0.000 A 
ATOM     11  C   UNL     1      44.312   2.953   9.159  0.00  0.00    +0.000 A 
ATOM     12  N   UNL     1      43.968   3.012  10.460  0.00  0.00    +0.000 NA
ATOM     13  C   UNL     1      44.450   4.064  11.165  0.00  0.00    +0.000 A 
ENDBRANCH   6   8
BRANCH   1  14
ATOM     14  O   UNL     1      48.651   7.139  13.608  0.00  0.00    +0.000 OA
BRANCH  14  15
ATOM     15  C   UNL     1      48.594   7.590  14.967  0.00  0.00    +0.000 C 
BRANCH  15  20
ATOM     16  C   UNL     1      48.716   4.541  17.201  0.00  0.00    +0.000 A 
ATOM     17  C   UNL     1      50.072   4.513  17.525  0.00  0.00    +0.000 A 
ATOM     18  C   UNL     1      50.868   5.508  16.993  0.00  0.00    +0.000 A 
ATOM     19  N   UNL     1      50.400   6.491  16.196  0.00  0.00    +0.000 NA
ATOM     20  C   UNL     1      49.073   6.507  15.905  0.00  0.00    +0.000 A 
ATOM     21  C   UNL     1      48.201   5.536  16.374  0.00  0.00    +0.000 A 
BRANCH  16  23
ATOM     22  O   UNL     1      48.217   2.847  18.696  0.00  0.00    +0.000 OA
ATOM     23  N   UNL     1      47.819   3.515  17.733  0.00  0.00    +0.000 N 
ATOM     24  O   UNL     1      46.715   3.373  17.185  0.00  0.00    +0.000 OA
ENDBRANCH  16  23
ENDBRANCH  15  20
ENDBRANCH  14  15
ENDBRANCH   1  14
TORSDOF 5
ENDMDL
