MODEL 1
REMARK VINA RESULT:    -7.870      0.000      0.000
REMARK INTER + INTRA:         -11.328
REMARK INTER:                 -10.401
REMARK INTRA:                  -0.927
REMARK UNBOUND:                -0.927
REMARK  Name = 
REMARK  6 active torsions:
REMARK  status: ('A' for Active; 'I' for Inactive)
REMARK    1  A    between atoms: C_2  and  OXT_3
REMARK    2  A    between atoms: C_2  and  CA_4
REMARK    3  A    between atoms: C_8  and  C_9
REMARK    4  A    between atoms: C_9  and  C_10
REMARK    5  A    between atoms: C_10  and  C_11
REMARK    6  A    between atoms: C_15  and  C_16
REMARK                            x       y       z     vdW  Elec       q    Type
REMARK                         _______ _______ _______ _____ _____    ______ ____
ROOT
ATOM      1  C   UNL     1      46.220   7.450  12.182  0.00  0.00    +0.000 C 
ENDROOT
BRANCH   1   2
ATOM      2  C   UNL     1      45.287   6.433  11.556  0.00  0.00    +0.000 A 
ATOM      3  C   UNL     1      43.901   6.475  11.742  0.00  0.00    +0.000 A 
ATOM      4  C   UNL     1      43.072   5.547  11.122  0.00  0.00    +0.000 A 
ATOM      5  C   UNL     1      43.613   4.589  10.267  0.00  0.00    +0.000 A 
ATOM      6  C   UNL     1      44.989   4.552   9.989  0.00  0.00    +0.000 A 
ATOM      7  C   UNL     1      45.813   5.470  10.673  0.00  0.00    +0.000 A 
BRANCH   6   8
ATOM      8  C   UNL     1      45.534   3.655   8.941  0.00  0.00    +0.000 A 
ATOM      9  C   UNL     1      46.166   4.192   7.801  0.00  0.00    +0.000 A 
ATOM     10  C   UNL     1      46.766   3.378   6.840  0.00  0.00    +0.000 A 
ATOM     11  C   UNL     1      46.756   1.996   6.999  0.00  0.00    +0.000 A 
ATOM     12  C   UNL     1      46.126   1.435   8.106  0.00  0.00    +0.000 A 
ATOM     13  C   UNL     1      45.512   2.255   9.060  0.00  0.00    +0.000 A 
ENDBRANCH   6   8
ENDBRANCH   1   2
BRANCH   1  14
ATOM     14  C   UNL     1      47.662   6.967  12.362  0.00  0.00    +0.000 C 
BRANCH  14  19
ATOM     15  CA  UNL     1      47.847   5.094  15.534  0.00  0.00    +0.000 A 
ATOM     16  C   UNL     1      48.569   5.911  16.390  0.00  0.00    +0.000 A 
ATOM     17  C   UNL     1      49.002   7.138  15.900  0.00  0.00    +0.000 A 
ATOM     18  C   UNL     1      48.702   7.499  14.589  0.00  0.00    +0.000 A 
ATOM     19  C   UNL     1      47.975   6.616  13.792  0.00  0.00    +0.000 A 
ATOM     20  N   UNL     1      47.536   5.413  14.242  0.00  0.00    +0.000 NA
BRANCH  15  22
ATOM     21  O   UNL     1      46.683   3.568  16.993  0.00  0.00    +0.000 OA
ATOM     22  C   UNL     1      47.363   3.761  15.996  0.00  0.00    +0.000 C 
BRANCH  22  23
ATOM     23  OXT UNL     1      47.784   2.786  15.157  0.00  0.00    +0.000 OA
ATOM     24  HXT UNL     1      47.824   1.936  15.662  0.00  0.00    +0.000 HD
ENDBRANCH  22  23
ENDBRANCH  15  22
ENDBRANCH  14  19
ENDBRANCH   1  14
TORSDOF 6
ENDMDL
MODEL 2
REMARK VINA RESULT:    -7.509      1.740      2.559
REMARK INTER + INTRA:         -10.850
REMARK INTER:                  -9.822
REMARK INTRA:                  -1.028
REMARK UNBOUND:                -0.927
REMARK  Name = 
REMARK  6 active torsions:
REMARK  status: ('A' for Active; 'I' for Inactive)
REMARK    1  A    between atoms: C_2  and  OXT_3
REMARK    2  A    between atoms: C_2  and  CA_4
REMARK    3  A    between atoms: C_8  and  C_9
REMARK    4  A    between atoms: C_9  and  C_10
REMARK    5  A    between atoms: C_10  and  C_11
REMARK    6  A    between atoms: C_15  and  C_16
REMARK                            x       y       z     vdW  Elec       q    Type
REMARK                         _______ _______ _______ _____ _____    ______ ____
ROOT
ATOM      1  C   UNL     1      44.722   6.903  11.401  0.00  0.00    +0.000 C 
ENDROOT
BRANCH   1   2
ATOM      2  C   UNL     1      44.501   5.442  11.062  0.00  0.00    +0.000 A 
ATOM      3  C   UNL     1      43.495   4.679  11.663  0.00  0.00    +0.000 A 
ATOM      4  C   UNL     1      43.297   3.351  11.301  0.00  0.00    +0.000 A 
ATOM      5  C   UNL     1      44.074   2.779  10.295  0.00  0.00    +0.000 A 
ATOM      6  C   UNL     1      45.047   3.525   9.610  0.00  0.00    +0.000 A 
ATOM      7  C   UNL     1      45.263   4.852  10.035  0.00  0.00    +0.000 A 
BRANCH   6   8
ATOM      8  C   UNL     1      45.740   2.970   8.422  0.00  0.00    +0.000 A 
ATOM      9  C   UNL     1      46.088   3.809   7.344  0.00  0.00    +0.000 A 
ATOM     10  C   UNL     1      46.817   3.338   6.251  0.00  0.00    +0.000 A 
ATOM     11  C   UNL     1      47.225   2.009   6.212  0.00  0.00    +0.000 A 
ATOM     12  C   UNL     1      46.883   1.152   7.253  0.00  0.00    +0.000 A 
ATOM     13  C   UNL     1      46.139   1.626   8.341  0.00  0.00    +0.000 A 
ENDBRANCH   6   8
ENDBRANCH   1   2
BRANCH   1  14
ATOM     14  C   UNL     1      45.339   7.151  12.781  0.00  0.00    +0.000 C 
BRANCH  14  19
ATOM     15  CA  UNL     1      48.877   7.129  13.819  0.00  0.00    +0.000 A 
ATOM     16  C   UNL     1      49.591   7.400  12.663  0.00  0.00    +0.000 A 
ATOM     17  C   UNL     1      48.870   7.610  11.492  0.00  0.00    +0.000 A 
ATOM     18  C   UNL     1      47.479   7.543  11.522  0.00  0.00    +0.000 A 
ATOM     19  C   UNL     1      46.839   7.260  12.727  0.00  0.00    +0.000 A 
ATOM     20  N   UNL     1      47.515   7.052  13.886  0.00  0.00    +0.000 NA
BRANCH  15  22
ATOM     21  O   UNL     1      50.518   7.557  15.533  0.00  0.00    +0.000 OA
ATOM     22  C   UNL     1      49.594   6.883  15.105  0.00  0.00    +0.000 C 
BRANCH  22  23
ATOM     23  OXT UNL     1      49.077   5.804  15.738  0.00  0.00    +0.000 OA
ATOM     24  HXT UNL     1      48.162   5.651  15.395  0.00  0.00    +0.000 HD
ENDBRANCH  22  23
ENDBRANCH  15  22
ENDBRANCH  14  19
ENDBRANCH   1  14
TORSDOF 6
ENDMDL
MODEL 3
REMARK VINA RESULT:    -7.091      3.336      7.005
REMARK INTER + INTRA:         -10.297
REMARK INTER:                  -9.140
REMARK INTRA:                  -1.157
REMARK UNBOUND:                -0.927
REMARK  Name = 
REMARK  6 active torsions:
REMARK  status: ('A' for Active; 'I' for Inactive)
REMARK    1  A    between atoms: C_2  and  OXT_3
REMARK    2  A    between atoms: C_2  and  CA_4
REMARK    3  A    between atoms: C_8  and  C_9
REMARK    4  A    between atoms: C_9  and  C_10
REMARK    5  A    between atoms: C_10  and  C_11
REMARK    6  A    between atoms: C_15  and  C_16
REMARK                            x       y       z     vdW  Elec       q    Type
REMARK                         _______ _______ _______ _____ _____    ______ ____
ROOT
ATOM      1  C   UNL     1      43.716   5.440  12.182  0.00  0.00    +0.000 C 
ENDROOT
BRANCH   1   2
ATOM      2  C   UNL     1      45.108   5.623  12.752  0.00  0.00    +0.000 A 
ATOM      3  C   UNL     1      45.698   4.680  13.601  0.00  0.00    +0.000 A 
ATOM      4  C   UNL     1      46.992   4.863  14.076  0.00  0.00    +0.000 A 
ATOM      5  C   UNL     1      47.734   5.971  13.672  0.00  0.00    +0.000 A 
ATOM      6  C   UNL     1      47.214   6.907  12.763  0.00  0.00    +0.000 A 
ATOM      7  C   UNL     1      45.880   6.726  12.340  0.00  0.00    +0.000 A 
BRANCH   6   8
ATOM      8  C   UNL     1      48.067   7.978  12.194  0.00  0.00    +0.000 A 
ATOM      9  C   UNL     1      47.561   9.283  12.033  0.00  0.00    +0.000 A 
ATOM     10  C   UNL     1      48.362  10.333  11.584  0.00  0.00    +0.000 A 
ATOM     11  C   UNL     1      49.702  10.105  11.290  0.00  0.00    +0.000 A 
ATOM     12  C   UNL     1      50.228   8.824  11.424  0.00  0.00    +0.000 A 
ATOM     13  C   UNL     1      49.416   7.770  11.861  0.00  0.00    +0.000 A 
ENDBRANCH   6   8
ENDBRANCH   1   2
BRANCH   1  14
ATOM     14  C   UNL     1      43.635   5.526  10.655  0.00  0.00    +0.000 C 
BRANCH  14  19
ATOM     15  CA  UNL     1      45.486   3.365   8.309  0.00  0.00    +0.000 A 
ATOM     16  C   UNL     1      45.251   2.073   8.750  0.00  0.00    +0.000 A 
ATOM     17  C   UNL     1      44.436   1.909   9.865  0.00  0.00    +0.000 A 
ATOM     18  C   UNL     1      43.893   3.030  10.488  0.00  0.00    +0.000 A 
ATOM     19  C   UNL     1      44.184   4.296   9.983  0.00  0.00    +0.000 A 
ATOM     20  N   UNL     1      44.973   4.487   8.895  0.00  0.00    +0.000 NA
BRANCH  15  22
ATOM     21  O   UNL     1      46.394   2.910   6.121  0.00  0.00    +0.000 OA
ATOM     22  C   UNL     1      46.361   3.607   7.124  0.00  0.00    +0.000 C 
BRANCH  22  23
ATOM     23  OXT UNL     1      47.120   4.711   7.313  0.00  0.00    +0.000 OA
ATOM     24  HXT UNL     1      46.595   5.502   7.037  0.00  0.00    +0.000 HD
ENDBRANCH  22  23
ENDBRANCH  15  22
ENDBRANCH  14  19
ENDBRANCH   1  14
TORSDOF 6
ENDMDL
MODEL 4
REMARK VINA RESULT:    -7.053      1.335      2.565
REMARK INTER + INTRA:         -10.248
REMARK INTER:                  -9.445
REMARK INTRA:                  -0.802
REMARK UNBOUND:                -0.927
REMARK  Name = 
REMARK  6 active torsions:
REMARK  status: ('A' for Active; 'I' for Inactive)
REMARK    1  A    between atoms: C_2  and  OXT_3
REMARK    2  A    between atoms: C_2  and  CA_4
REMARK    3  A    between atoms: C_8  and  C_9
REMARK    4  A    between atoms: C_9  and  C_10
REMARK    5  A    between atoms: C_10  and  C_11
REMARK    6  A    between atoms: C_15  and  C_16
REMARK                            x       y       z     vdW  Elec       q    Type
REMARK                         _______ _______ _______ _____ _____    ______ ____
ROOT
ATOM      1  C   UNL     1      48.911   7.077  13.457  0.00  0.00    +0.000 C 
ENDROOT
BRANCH   1   2
ATOM      2  C   UNL     1      47.511   7.165  12.883  0.00  0.00    +0.000 A 
ATOM      3  C   UNL     1      46.737   8.327  12.975  0.00  0.00    +0.000 A 
ATOM      4  C   UNL     1      45.470   8.384  12.405  0.00  0.00    +0.000 A 
ATOM      5  C   UNL     1      44.975   7.293  11.693  0.00  0.00    +0.000 A 
ATOM      6  C   UNL     1      45.743   6.131  11.508  0.00  0.00    +0.000 A 
ATOM      7  C   UNL     1      47.002   6.081  12.143  0.00  0.00    +0.000 A 
BRANCH   6   8
ATOM      8  C   UNL     1      45.291   5.052  10.598  0.00  0.00    +0.000 A 
ATOM      9  C   UNL     1      45.634   5.081   9.232  0.00  0.00    +0.000 A 
ATOM     10  C   UNL     1      45.299   4.039   8.367  0.00  0.00    +0.000 A 
ATOM     11  C   UNL     1      44.615   2.929   8.851  0.00  0.00    +0.000 A 
ATOM     12  C   UNL     1      44.249   2.878  10.193  0.00  0.00    +0.000 A 
ATOM     13  C   UNL     1      44.573   3.933  11.054  0.00  0.00    +0.000 A 
ENDBRANCH   6   8
ENDBRANCH   1   2
BRANCH   1  14
ATOM     14  C   UNL     1      49.096   7.788  14.800  0.00  0.00    +0.000 C 
BRANCH  14  19
ATOM     15  CA  UNL     1      48.099   4.829  16.763  0.00  0.00    +0.000 A 
ATOM     16  C   UNL     1      48.363   5.168  18.080  0.00  0.00    +0.000 A 
ATOM     17  C   UNL     1      48.882   6.434  18.331  0.00  0.00    +0.000 A 
ATOM     18  C   UNL     1      49.114   7.303  17.268  0.00  0.00    +0.000 A 
ATOM     19  C   UNL     1      48.826   6.881  15.971  0.00  0.00    +0.000 A 
ATOM     20  N   UNL     1      48.316   5.654  15.695  0.00  0.00    +0.000 NA
BRANCH  15  22
ATOM     21  O   UNL     1      47.843   2.832  15.436  0.00  0.00    +0.000 OA
ATOM     22  C   UNL     1      47.551   3.482  16.428  0.00  0.00    +0.000 C 
BRANCH  22  23
ATOM     23  OXT UNL     1      46.678   3.076  17.379  0.00  0.00    +0.000 OA
ATOM     24  HXT UNL     1      45.764   3.126  17.005  0.00  0.00    +0.000 HD
ENDBRANCH  22  23
ENDBRANCH  15  22
ENDBRANCH  14  19
ENDBRANCH   1  14
TORSDOF 6
ENDMDL
MODEL 5
REMARK VINA RESULT:    -6.964      3.358      4.389
REMARK INTER + INTRA:         -10.130
REMARK INTER:                  -9.271
REMARK INTRA:                  -0.859
REMARK UNBOUND:                -0.927
REMARK  Name = 
REMARK  6 active torsions:
REMARK  status: ('A' for Active; 'I' for Inactive)
REMARK    1  A    between atoms: C_2  and  OXT_3
REMARK    2  A    between atoms: C_2  and  CA_4
REMARK    3  A    between atoms: C_8  and  C_9
REMARK    4  A    between atoms: C_9  and  C_10
REMARK    5  A    between atoms: C_10  and  C_11
REMARK    6  A    between atoms: C_15  and  C_16
REMARK                            x       y       z     vdW  Elec       q    Type
REMARK                         _______ _______ _______ _____ _____    ______ ____
ROOT
ATOM      1  C   UNL     1      45.110   5.959  12.627  0.00  0.00    +0.000 C 
ENDROOT
BRANCH   1   2
ATOM      2  C   UNL     1      44.721   4.697  11.884  0.00  0.00    +0.000 A 
ATOM      3  C   UNL     1      43.590   3.947  12.225  0.00  0.00    +0.000 A 
ATOM      4  C   UNL     1      43.243   2.814  11.497  0.00  0.00    +0.000 A 
ATOM      5  C   UNL     1      43.997   2.439  10.387  0.00  0.00    +0.000 A 
ATOM      6  C   UNL     1      45.098   3.201   9.960  0.00  0.00    +0.000 A 
ATOM      7  C   UNL     1      45.459   4.313  10.748  0.00  0.00    +0.000 A 
BRANCH   6   8
ATOM      8  C   UNL     1      45.781   2.905   8.677  0.00  0.00    +0.000 A 
ATOM      9  C   UNL     1      46.169   1.587   8.364  0.00  0.00    +0.000 A 
ATOM     10  C   UNL     1      46.734   1.260   7.131  0.00  0.00    +0.000 A 
ATOM     11  C   UNL     1      46.920   2.248   6.171  0.00  0.00    +0.000 A 
ATOM     12  C   UNL     1      46.562   3.562   6.455  0.00  0.00    +0.000 A 
ATOM     13  C   UNL     1      46.008   3.889   7.700  0.00  0.00    +0.000 A 
ENDBRANCH   6   8
ENDBRANCH   1   2
BRANCH   1  14
ATOM     14  C   UNL     1      46.609   6.273  12.610  0.00  0.00    +0.000 C 
BRANCH  14  19
ATOM     15  CA  UNL     1      46.083   9.858  11.925  0.00  0.00    +0.000 A 
ATOM     16  C   UNL     1      47.356  10.381  11.758  0.00  0.00    +0.000 A 
ATOM     17  C   UNL     1      48.433   9.508  11.865  0.00  0.00    +0.000 A 
ATOM     18  C   UNL     1      48.200   8.161  12.132  0.00  0.00    +0.000 A 
ATOM     19  C   UNL     1      46.888   7.718  12.291  0.00  0.00    +0.000 A 
ATOM     20  N   UNL     1      45.817   8.545  12.189  0.00  0.00    +0.000 NA
BRANCH  15  22
ATOM     21  O   UNL     1      44.870  11.848  11.304  0.00  0.00    +0.000 OA
ATOM     22  C   UNL     1      44.887  10.746  11.832  0.00  0.00    +0.000 C 
BRANCH  22  23
ATOM     23  OXT UNL     1      43.816  10.162  12.417  0.00  0.00    +0.000 OA
ATOM     24  HXT UNL     1      43.114  10.848  12.539  0.00  0.00    +0.000 HD
ENDBRANCH  22  23
ENDBRANCH  15  22
ENDBRANCH  14  19
ENDBRANCH   1  14
TORSDOF 6
ENDMDL
MODEL 6
REMARK VINA RESULT:    -6.953      3.116      7.648
REMARK INTER + INTRA:         -10.116
REMARK INTER:                  -9.155
REMARK INTRA:                  -0.961
REMARK UNBOUND:                -0.927
REMARK  Name = 
REMARK  6 active torsions:
REMARK  status: ('A' for Active; 'I' for Inactive)
REMARK    1  A    between atoms: C_2  and  OXT_3
REMARK    2  A    between atoms: C_2  and  CA_4
REMARK    3  A    between atoms: C_8  and  C_9
REMARK    4  A    between atoms: C_9  and  C_10
REMARK    5  A    between atoms: C_10  and  C_11
REMARK    6  A    between atoms: C_15  and  C_16
REMARK                            x       y       z     vdW  Elec       q    Type
REMARK                         _______ _______ _______ _____ _____    ______ ____
ROOT
ATOM      1  C   UNL     1      44.243   5.137  12.254  0.00  0.00    +0.000 C 
ENDROOT
BRANCH   1   2
ATOM      2  C   UNL     1      45.620   5.526  12.756  0.00  0.00    +0.000 A 
ATOM      3  C   UNL     1      46.377   6.536  12.155  0.00  0.00    +0.000 A 
ATOM      4  C   UNL     1      47.621   6.891  12.665  0.00  0.00    +0.000 A 
ATOM      5  C   UNL     1      48.107   6.272  13.815  0.00  0.00    +0.000 A 
ATOM      6  C   UNL     1      47.351   5.305  14.499  0.00  0.00    +0.000 A 
ATOM      7  C   UNL     1      46.118   4.925  13.929  0.00  0.00    +0.000 A 
BRANCH   6   8
ATOM      8  C   UNL     1      47.787   4.786  15.817  0.00  0.00    +0.000 A 
ATOM      9  C   UNL     1      47.336   3.531  16.274  0.00  0.00    +0.000 A 
ATOM     10  C   UNL     1      47.795   2.974  17.468  0.00  0.00    +0.000 A 
ATOM     11  C   UNL     1      48.727   3.659  18.238  0.00  0.00    +0.000 A 
ATOM     12  C   UNL     1      49.180   4.908  17.823  0.00  0.00    +0.000 A 
ATOM     13  C   UNL     1      48.706   5.470  16.631  0.00  0.00    +0.000 A 
ENDBRANCH   6   8
ENDBRANCH   1   2
BRANCH   1  14
ATOM     14  C   UNL     1      44.030   5.346  10.752  0.00  0.00    +0.000 C 
BRANCH  14  19
ATOM     15  CA  UNL     1      45.631   3.282   8.149  0.00  0.00    +0.000 A 
ATOM     16  C   UNL     1      45.281   1.978   8.460  0.00  0.00    +0.000 A 
ATOM     17  C   UNL     1      44.471   1.774   9.571  0.00  0.00    +0.000 A 
ATOM     18  C   UNL     1      44.046   2.868  10.321  0.00  0.00    +0.000 A 
ATOM     19  C   UNL     1      44.449   4.148   9.942  0.00  0.00    +0.000 A 
ATOM     20  N   UNL     1      45.236   4.379   8.861  0.00  0.00    +0.000 NA
BRANCH  15  22
ATOM     21  O   UNL     1      46.550   2.897   5.953  0.00  0.00    +0.000 OA
ATOM     22  C   UNL     1      46.507   3.566   6.974  0.00  0.00    +0.000 C 
BRANCH  22  23
ATOM     23  OXT UNL     1      47.255   4.672   7.195  0.00  0.00    +0.000 OA
ATOM     24  HXT UNL     1      47.070   4.994   8.112  0.00  0.00    +0.000 HD
ENDBRANCH  22  23
ENDBRANCH  15  22
ENDBRANCH  14  19
ENDBRANCH   1  14
TORSDOF 6
ENDMDL
MODEL 7
REMARK VINA RESULT:    -6.608      2.095      2.674
REMARK INTER + INTRA:          -9.660
REMARK INTER:                  -8.955
REMARK INTRA:                  -0.704
REMARK UNBOUND:                -0.927
REMARK  Name = 
REMARK  6 active torsions:
REMARK  status: ('A' for Active; 'I' for Inactive)
REMARK    1  A    between atoms: C_2  and  OXT_3
REMARK    2  A    between atoms: C_2  and  CA_4
REMARK    3  A    between atoms: C_8  and  C_9
REMARK    4  A    between atoms: C_9  and  C_10
REMARK    5  A    between atoms: C_10  and  C_11
REMARK    6  A    between atoms: C_15  and  C_16
REMARK                            x       y       z     vdW  Elec       q    Type
REMARK                         _______ _______ _______ _____ _____    ______ ____
ROOT
ATOM      1  C   UNL     1      46.023   5.218  13.904  0.00  0.00    +0.000 C 
ENDROOT
BRANCH   1   2
ATOM      2  C   UNL     1      45.099   4.994  12.723  0.00  0.00    +0.000 A 
ATOM      3  C   UNL     1      43.827   5.572  12.648  0.00  0.00    +0.000 A 
ATOM      4  C   UNL     1      43.022   5.374  11.533  0.00  0.00    +0.000 A 
ATOM      5  C   UNL     1      43.495   4.632  10.452  0.00  0.00    +0.000 A 
ATOM      6  C   UNL     1      44.793   4.094  10.447  0.00  0.00    +0.000 A 
ATOM      7  C   UNL     1      45.567   4.264  11.613  0.00  0.00    +0.000 A 
BRANCH   6   8
ATOM      8  C   UNL     1      45.356   3.468   9.227  0.00  0.00    +0.000 A 
ATOM      9  C   UNL     1      45.823   4.268   8.165  0.00  0.00    +0.000 A 
ATOM     10  C   UNL     1      46.439   3.715   7.042  0.00  0.00    +0.000 A 
ATOM     11  C   UNL     1      46.611   2.338   6.955  0.00  0.00    +0.000 A 
ATOM     12  C   UNL     1      46.146   1.519   7.980  0.00  0.00    +0.000 A 
ATOM     13  C   UNL     1      45.516   2.078   9.098  0.00  0.00    +0.000 A 
ENDBRANCH   6   8
ENDBRANCH   1   2
BRANCH   1  14
ATOM     14  C   UNL     1      46.901   4.016  14.264  0.00  0.00    +0.000 C 
BRANCH  14  19
ATOM     15  CA  UNL     1      48.799   5.533  17.038  0.00  0.00    +0.000 A 
ATOM     16  C   UNL     1      48.823   4.563  18.028  0.00  0.00    +0.000 A 
ATOM     17  C   UNL     1      48.194   3.352  17.761  0.00  0.00    +0.000 A 
ATOM     18  C   UNL     1      47.573   3.158  16.530  0.00  0.00    +0.000 A 
ATOM     19  C   UNL     1      47.591   4.188  15.591  0.00  0.00    +0.000 A 
ATOM     20  N   UNL     1      48.198   5.380  15.821  0.00  0.00    +0.000 NA
BRANCH  15  22
ATOM     21  O   UNL     1      49.093   7.910  16.759  0.00  0.00    +0.000 OA
ATOM     22  C   UNL     1      49.447   6.858  17.268  0.00  0.00    +0.000 C 
BRANCH  22  23
ATOM     23  OXT UNL     1      50.490   6.734  18.121  0.00  0.00    +0.000 OA
ATOM     24  HXT UNL     1      51.220   7.325  17.809  0.00  0.00    +0.000 HD
ENDBRANCH  22  23
ENDBRANCH  15  22
ENDBRANCH  14  19
ENDBRANCH   1  14
TORSDOF 6
ENDMDL
MODEL 8
REMARK VINA RESULT:    -6.606      2.279      3.980
REMARK INTER + INTRA:          -9.657
REMARK INTER:                  -8.740
REMARK INTRA:                  -0.917
REMARK UNBOUND:                -0.927
REMARK  Name = 
REMARK  6 active torsions:
REMARK  status: ('A' for Active; 'I' for Inactive)
REMARK    1  A    between atoms: C_2  and  OXT_3
REMARK    2  A    between atoms: C_2  and  CA_4
REMARK    3  A    between atoms: C_8  and  C_9
REMARK    4  A    between atoms: C_9  and  C_10
REMARK    5  A    between atoms: C_10  and  C_11
REMARK    6  A    between atoms: C_15  and  C_16
REMARK                            x       y       z     vdW  Elec       q    Type
REMARK                         _______ _______ _______ _____ _____    ______ ____
ROOT
ATOM      1  C   UNL     1      49.255   6.818  14.793  0.00  0.00    +0.000 C 
ENDROOT
BRANCH   1   2
ATOM      2  C   UNL     1      47.959   7.124  14.071  0.00  0.00    +0.000 A 
ATOM      3  C   UNL     1      47.503   8.432  13.874  0.00  0.00    +0.000 A 
ATOM      4  C   UNL     1      46.327   8.678  13.174  0.00  0.00    +0.000 A 
ATOM      5  C   UNL     1      45.611   7.619  12.619  0.00  0.00    +0.000 A 
ATOM      6  C   UNL     1      46.066   6.294  12.725  0.00  0.00    +0.000 A 
ATOM      7  C   UNL     1      47.231   6.069  13.486  0.00  0.00    +0.000 A 
BRANCH   6   8
ATOM      8  C   UNL     1      45.404   5.196  11.980  0.00  0.00    +0.000 A 
ATOM      9  C   UNL     1      44.953   4.045  12.657  0.00  0.00    +0.000 A 
ATOM     10  C   UNL     1      44.249   3.034  12.002  0.00  0.00    +0.000 A 
ATOM     11  C   UNL     1      43.971   3.152  10.645  0.00  0.00    +0.000 A 
ATOM     12  C   UNL     1      44.416   4.269   9.944  0.00  0.00    +0.000 A 
ATOM     13  C   UNL     1      45.135   5.275  10.603  0.00  0.00    +0.000 A 
ENDBRANCH   6   8
ENDBRANCH   1   2
BRANCH   1  14
ATOM     14  C   UNL     1      49.256   7.176  16.282  0.00  0.00    +0.000 C 
BRANCH  14  19
ATOM     15  CA  UNL     1      49.255   3.712  17.549  0.00  0.00    +0.000 A 
ATOM     16  C   UNL     1      48.580   3.774  18.758  0.00  0.00    +0.000 A 
ATOM     17  C   UNL     1      48.095   5.012  19.166  0.00  0.00    +0.000 A 
ATOM     18  C   UNL     1      48.300   6.128  18.359  0.00  0.00    +0.000 A 
ATOM     19  C   UNL     1      48.994   5.981  17.159  0.00  0.00    +0.000 A 
ATOM     20  N   UNL     1      49.477   4.786  16.733  0.00  0.00    +0.000 NA
BRANCH  15  22
ATOM     21  O   UNL     1      49.456   1.840  16.043  0.00  0.00    +0.000 OA
ATOM     22  C   UNL     1      49.808   2.415  17.062  0.00  0.00    +0.000 C 
BRANCH  22  23
ATOM     23  OXT UNL     1      50.759   1.957  17.909  0.00  0.00    +0.000 OA
ATOM     24  HXT UNL     1      50.369   1.226  18.449  0.00  0.00    +0.000 HD
ENDBRANCH  22  23
ENDBRANCH  15  22
ENDBRANCH  14  19
ENDBRANCH   1  14
TORSDOF 6
ENDMDL
MODEL 9
REMARK VINA RESULT:    -6.264      3.854      8.284
REMARK INTER + INTRA:          -9.206
REMARK INTER:                  -8.412
REMARK INTRA:                  -0.793
REMARK UNBOUND:                -0.927
REMARK  Name = 
REMARK  6 active torsions:
REMARK  status: ('A' for Active; 'I' for Inactive)
REMARK    1  A    between atoms: C_2  and  OXT_3
REMARK    2  A    between atoms: C_2  and  CA_4
REMARK    3  A    between atoms: C_8  and  C_9
REMARK    4  A    between atoms: C_9  and  C_10
REMARK    5  A    between atoms: C_10  and  C_11
REMARK    6  A    between atoms: C_15  and  C_16
REMARK                            x       y       z     vdW  Elec       q    Type
REMARK                         _______ _______ _______ _____ _____    ______ ____
ROOT
ATOM      1  C   UNL     1      46.970   4.404  16.271  0.00  0.00    +0.000 C 
ENDROOT
BRANCH   1   2
ATOM      2  C   UNL     1      48.088   4.517  17.287  0.00  0.00    +0.000 A 
ATOM      3  C   UNL     1      47.924   5.177  18.510  0.00  0.00    +0.000 A 
ATOM      4  C   UNL     1      48.961   5.230  19.434  0.00  0.00    +0.000 A 
ATOM      5  C   UNL     1      50.166   4.581  19.170  0.00  0.00    +0.000 A 
ATOM      6  C   UNL     1      50.354   3.842  17.990  0.00  0.00    +0.000 A 
ATOM      7  C   UNL     1      49.306   3.851  17.047  0.00  0.00    +0.000 A 
BRANCH   6   8
ATOM      8  C   UNL     1      51.562   3.005  17.797  0.00  0.00    +0.000 A 
ATOM      9  C   UNL     1      52.847   3.549  17.999  0.00  0.00    +0.000 A 
ATOM     10  C   UNL     1      53.999   2.768  17.912  0.00  0.00    +0.000 A 
ATOM     11  C   UNL     1      53.896   1.411  17.625  0.00  0.00    +0.000 A 
ATOM     12  C   UNL     1      52.643   0.846  17.405  0.00  0.00    +0.000 A 
ATOM     13  C   UNL     1      51.490   1.638  17.479  0.00  0.00    +0.000 A 
ENDBRANCH   6   8
ENDBRANCH   1   2
BRANCH   1  14
ATOM     14  C   UNL     1      47.368   3.725  14.957  0.00  0.00    +0.000 C 
BRANCH  14  19
ATOM     15  CA  UNL     1      44.905   4.019  12.228  0.00  0.00    +0.000 A 
ATOM     16  C   UNL     1      45.158   5.253  11.650  0.00  0.00    +0.000 A 
ATOM     17  C   UNL     1      46.194   6.015  12.178  0.00  0.00    +0.000 A 
ATOM     18  C   UNL     1      46.931   5.521  13.251  0.00  0.00    +0.000 A 
ATOM     19  C   UNL     1      46.608   4.271  13.778  0.00  0.00    +0.000 A 
ATOM     20  N   UNL     1      45.605   3.503  13.282  0.00  0.00    +0.000 NA
BRANCH  15  22
ATOM     21  O   UNL     1      43.192   3.347  10.670  0.00  0.00    +0.000 OA
ATOM     22  C   UNL     1      43.800   3.159  11.713  0.00  0.00    +0.000 C 
BRANCH  22  23
ATOM     23  OXT UNL     1      43.558   2.136  12.565  0.00  0.00    +0.000 OA
ATOM     24  HXT UNL     1      43.087   1.422  12.069  0.00  0.00    +0.000 HD
ENDBRANCH  22  23
ENDBRANCH  15  22
ENDBRANCH  14  19
ENDBRANCH   1  14
TORSDOF 6
ENDMDL
