MODEL 1
REMARK VINA RESULT:    -8.456      0.000      0.000
REMARK INTER + INTRA:         -14.064
REMARK INTER:                 -12.411
REMARK INTRA:                  -1.653
REMARK UNBOUND:                -1.653
REMARK  Name = 
REMARK  9 active torsions:
REMARK  status: ('A' for Active; 'I' for Inactive)
REMARK    1  A    between atoms: C_1  and  C_2
REMARK    2  A    between atoms: C_2  and  C_3
REMARK    3  A    between atoms: C_2  and  N_13
REMARK    4  A    between atoms: C_3  and  C_4
REMARK    5  A    between atoms: C_7  and  C_8
REMARK    6  A    between atoms: N_13  and  C_14
REMARK    7  A    between atoms: C_18  and  C_19
REMARK    8  A    between atoms: C_24  and  O_25
REMARK    9  A    between atoms: O_25  and  C_26
REMARK                            x       y       z     vdW  Elec       q    Type
REMARK                         _______ _______ _______ _____ _____    ______ ____
ROOT
ATOM      1  C   UNL     1      44.655   7.668  11.626  0.00  0.00    +0.000 A 
ATOM      2  C   UNL     1      44.635   9.013  11.250  0.00  0.00    +0.000 A 
ATOM      3  C   UNL     1      45.610   9.890  11.709  0.00  0.00    +0.000 A 
ATOM      4  C   UNL     1      46.623   9.428  12.549  0.00  0.00    +0.000 A 
ATOM      5  C   UNL     1      46.676   8.091  12.995  0.00  0.00    +0.000 A 
ATOM      6  C   UNL     1      45.696   7.221  12.470  0.00  0.00    +0.000 A 
ENDROOT
BRANCH   5   7
ATOM      7  C   UNL     1      47.633   7.693  14.077  0.00  0.00    +0.000 A 
ATOM      8  C   UNL     1      48.087   8.711  14.955  0.00  0.00    +0.000 A 
ATOM      9  C   UNL     1      48.923   8.457  16.041  0.00  0.00    +0.000 A 
ATOM     10  C   UNL     1      49.274   7.155  16.336  0.00  0.00    +0.000 A 
ATOM     11  C   UNL     1      48.830   6.121  15.509  0.00  0.00    +0.000 A 
ATOM     12  C   UNL     1      48.089   6.376  14.346  0.00  0.00    +0.000 A 
BRANCH  12  13
ATOM     13  O   UNL     1      47.773   5.393  13.450  0.00  0.00    +0.000 OA
BRANCH  13  14
ATOM     14  C   UNL     1      46.873   4.353  13.837  0.00  0.00    +0.000 C 
ATOM     15  F   UNL     1      45.844   4.762  14.610  0.00  0.00    +0.000 F 
ATOM     16  F   UNL     1      46.377   3.751  12.734  0.00  0.00    +0.000 F 
ATOM     17  F   UNL     1      47.560   3.429  14.546  0.00  0.00    +0.000 F 
ENDBRANCH  13  14
ENDBRANCH  12  13
ENDBRANCH   5   7
BRANCH   1  18
ATOM     18  N   UNL     1      43.777   6.713  11.086  0.00  0.00    +0.000 N 
ATOM     19  H   UNL     1      42.824   7.061  11.201  0.00  0.00    +0.000 HD
BRANCH  18  21
ATOM     20  C   UNL     1      43.010   5.062  12.715  0.00  0.00    +0.000 C 
ATOM     21  C   UNL     1      43.905   5.295  11.494  0.00  0.00    +0.000 C 
BRANCH  21  22
ATOM     22  C   UNL     1      43.500   4.410  10.295  0.00  0.00    +0.000 C 
BRANCH  22  23
ATOM     23  C   UNL     1      44.617   3.786   9.487  0.00  0.00    +0.000 A 
ATOM     24  C   UNL     1      44.774   2.392   9.469  0.00  0.00    +0.000 A 
ATOM     25  C   UNL     1      45.712   1.793   8.626  0.00  0.00    +0.000 A 
ATOM     26  C   UNL     1      46.506   2.577   7.783  0.00  0.00    +0.000 A 
ATOM     27  C   UNL     1      46.386   3.972   7.827  0.00  0.00    +0.000 A 
ATOM     28  C   UNL     1      45.446   4.571   8.676  0.00  0.00    +0.000 A 
BRANCH  26  29
ATOM     29  C   UNL     1      47.452   1.890   6.862  0.00  0.00    +0.000 C 
ATOM     30  N   UNL     1      48.472   2.629   6.337  0.00  0.00    +0.000 N 
ATOM     31  O   UNL     1      47.305   0.712   6.551  0.00  0.00    +0.000 OA
ATOM     32  H   UNL     1      48.503   3.637   6.382  0.00  0.00    +0.000 HD
ATOM     33  H   UNL     1      49.035   2.174   5.628  0.00  0.00    +0.000 HD
ENDBRANCH  26  29
ENDBRANCH  22  23
ENDBRANCH  21  22
ENDBRANCH  18  21
ENDBRANCH   1  18
TORSDOF 8
ENDMDL
MODEL 2
REMARK VINA RESULT:    -8.156      3.129      4.013
REMARK INTER + INTRA:         -13.623
REMARK INTER:                 -11.860
REMARK INTRA:                  -1.763
REMARK UNBOUND:                -1.653
REMARK  Name = 
REMARK  9 active torsions:
REMARK  status: ('A' for Active; 'I' for Inactive)
REMARK    1  A    between atoms: C_1  and  C_2
REMARK    2  A    between atoms: C_2  and  C_3
REMARK    3  A    between atoms: C_2  and  N_13
REMARK    4  A    between atoms: C_3  and  C_4
REMARK    5  A    between atoms: C_7  and  C_8
REMARK    6  A    between atoms: N_13  and  C_14
REMARK    7  A    between atoms: C_18  and  C_19
REMARK    8  A    between atoms: C_24  and  O_25
REMARK    9  A    between atoms: O_25  and  C_26
REMARK                            x       y       z     vdW  Elec       q    Type
REMARK                         _______ _______ _______ _____ _____    ______ ____
ROOT
ATOM      1  C   UNL     1      46.029   6.249  12.183  0.00  0.00    +0.000 A 
ATOM      2  C   UNL     1      46.365   5.397  13.236  0.00  0.00    +0.000 A 
ATOM      3  C   UNL     1      47.559   5.563  13.927  0.00  0.00    +0.000 A 
ATOM      4  C   UNL     1      48.431   6.592  13.574  0.00  0.00    +0.000 A 
ATOM      5  C   UNL     1      48.167   7.462  12.495  0.00  0.00    +0.000 A 
ATOM      6  C   UNL     1      46.924   7.291  11.849  0.00  0.00    +0.000 A 
ENDROOT
BRANCH   5   7
ATOM      7  C   UNL     1      49.230   8.395  11.999  0.00  0.00    +0.000 A 
ATOM      8  C   UNL     1      50.375   7.818  11.393  0.00  0.00    +0.000 A 
ATOM      9  C   UNL     1      51.399   8.579  10.832  0.00  0.00    +0.000 A 
ATOM     10  C   UNL     1      51.276   9.953  10.786  0.00  0.00    +0.000 A 
ATOM     11  C   UNL     1      50.152  10.560  11.353  0.00  0.00    +0.000 A 
ATOM     12  C   UNL     1      49.175   9.813  12.027  0.00  0.00    +0.000 A 
BRANCH  12  13
ATOM     13  O   UNL     1      48.149  10.402  12.712  0.00  0.00    +0.000 OA
BRANCH  13  14
ATOM     14  C   UNL     1      47.109  11.064  11.988  0.00  0.00    +0.000 C 
ATOM     15  F   UNL     1      46.971  12.374  12.282  0.00  0.00    +0.000 F 
ATOM     16  F   UNL     1      47.330  10.936  10.662  0.00  0.00    +0.000 F 
ATOM     17  F   UNL     1      45.932  10.464  12.277  0.00  0.00    +0.000 F 
ENDBRANCH  13  14
ENDBRANCH  12  13
ENDBRANCH   5   7
BRANCH   1  18
ATOM     18  N   UNL     1      44.780   6.212  11.540  0.00  0.00    +0.000 N 
ATOM     19  H   UNL     1      44.255   7.039  11.827  0.00  0.00    +0.000 HD
BRANCH  18  21
ATOM     20  C   UNL     1      42.712   5.280  12.446  0.00  0.00    +0.000 C 
ATOM     21  C   UNL     1      43.962   4.980  11.611  0.00  0.00    +0.000 C 
BRANCH  21  22
ATOM     22  C   UNL     1      43.612   4.551  10.169  0.00  0.00    +0.000 C 
BRANCH  22  23
ATOM     23  C   UNL     1      44.693   3.848   9.376  0.00  0.00    +0.000 A 
ATOM     24  C   UNL     1      44.805   2.451   9.431  0.00  0.00    +0.000 A 
ATOM     25  C   UNL     1      45.708   1.777   8.604  0.00  0.00    +0.000 A 
ATOM     26  C   UNL     1      46.509   2.489   7.706  0.00  0.00    +0.000 A 
ATOM     27  C   UNL     1      46.434   3.887   7.677  0.00  0.00    +0.000 A 
ATOM     28  C   UNL     1      45.531   4.561   8.509  0.00  0.00    +0.000 A 
BRANCH  26  29
ATOM     29  C   UNL     1      47.414   1.723   6.807  0.00  0.00    +0.000 C 
ATOM     30  N   UNL     1      48.470   2.389   6.256  0.00  0.00    +0.000 N 
ATOM     31  O   UNL     1      47.205   0.545   6.535  0.00  0.00    +0.000 OA
ATOM     32  H   UNL     1      48.555   3.395   6.268  0.00  0.00    +0.000 HD
ATOM     33  H   UNL     1      49.007   1.883   5.562  0.00  0.00    +0.000 HD
ENDBRANCH  26  29
ENDBRANCH  22  23
ENDBRANCH  21  22
ENDBRANCH  18  21
ENDBRANCH   1  18
TORSDOF 8
ENDMDL
MODEL 3
REMARK VINA RESULT:    -8.098      1.716      2.479
REMARK INTER + INTRA:         -13.538
REMARK INTER:                 -12.947
REMARK INTRA:                  -0.591
REMARK UNBOUND:                -1.653
REMARK  Name = 
REMARK  9 active torsions:
REMARK  status: ('A' for Active; 'I' for Inactive)
REMARK    1  A    between atoms: C_1  and  C_2
REMARK    2  A    between atoms: C_2  and  C_3
REMARK    3  A    between atoms: C_2  and  N_13
REMARK    4  A    between atoms: C_3  and  C_4
REMARK    5  A    between atoms: C_7  and  C_8
REMARK    6  A    between atoms: N_13  and  C_14
REMARK    7  A    between atoms: C_18  and  C_19
REMARK    8  A    between atoms: C_24  and  O_25
REMARK    9  A    between atoms: O_25  and  C_26
REMARK                            x       y       z     vdW  Elec       q    Type
REMARK                         _______ _______ _______ _____ _____    ______ ____
ROOT
ATOM      1  C   UNL     1      45.986   4.863  12.621  0.00  0.00    +0.000 A 
ATOM      2  C   UNL     1      45.702   6.040  11.925  0.00  0.00    +0.000 A 
ATOM      3  C   UNL     1      46.357   7.224  12.240  0.00  0.00    +0.000 A 
ATOM      4  C   UNL     1      47.311   7.244  13.257  0.00  0.00    +0.000 A 
ATOM      5  C   UNL     1      47.615   6.098  14.023  0.00  0.00    +0.000 A 
ATOM      6  C   UNL     1      46.964   4.905  13.641  0.00  0.00    +0.000 A 
ENDROOT
BRANCH   5   7
ATOM      7  C   UNL     1      48.464   6.214  15.252  0.00  0.00    +0.000 A 
ATOM      8  C   UNL     1      49.491   7.194  15.246  0.00  0.00    +0.000 A 
ATOM      9  C   UNL     1      50.302   7.447  16.352  0.00  0.00    +0.000 A 
ATOM     10  C   UNL     1      50.061   6.779  17.536  0.00  0.00    +0.000 A 
ATOM     11  C   UNL     1      49.044   5.823  17.589  0.00  0.00    +0.000 A 
ATOM     12  C   UNL     1      48.302   5.474  16.451  0.00  0.00    +0.000 A 
BRANCH  12  13
ATOM     13  O   UNL     1      47.408   4.440  16.451  0.00  0.00    +0.000 OA
BRANCH  13  14
ATOM     14  C   UNL     1      47.876   3.106  16.665  0.00  0.00    +0.000 C 
ATOM     15  F   UNL     1      49.158   3.023  17.081  0.00  0.00    +0.000 F 
ATOM     16  F   UNL     1      47.083   2.489  17.568  0.00  0.00    +0.000 F 
ATOM     17  F   UNL     1      47.791   2.427  15.499  0.00  0.00    +0.000 F 
ENDBRANCH  13  14
ENDBRANCH  12  13
ENDBRANCH   5   7
BRANCH   1  18
ATOM     18  N   UNL     1      45.456   3.614  12.257  0.00  0.00    +0.000 N 
ATOM     19  H   UNL     1      46.016   3.248  11.486  0.00  0.00    +0.000 HD
BRANCH  18  21
ATOM     20  C   UNL     1      43.255   4.302  13.061  0.00  0.00    +0.000 C 
ATOM     21  C   UNL     1      44.003   3.487  12.001  0.00  0.00    +0.000 C 
BRANCH  21  22
ATOM     22  C   UNL     1      43.720   3.991  10.569  0.00  0.00    +0.000 C 
BRANCH  22  23
ATOM     23  C   UNL     1      44.615   3.472   9.464  0.00  0.00    +0.000 A 
ATOM     24  C   UNL     1      45.278   4.373   8.619  0.00  0.00    +0.000 A 
ATOM     25  C   UNL     1      46.210   3.916   7.683  0.00  0.00    +0.000 A 
ATOM     26  C   UNL     1      46.497   2.551   7.581  0.00  0.00    +0.000 A 
ATOM     27  C   UNL     1      45.807   1.641   8.392  0.00  0.00    +0.000 A 
ATOM     28  C   UNL     1      44.871   2.101   9.327  0.00  0.00    +0.000 A 
BRANCH  26  29
ATOM     29  C   UNL     1      47.537   2.120   6.608  0.00  0.00    +0.000 C 
ATOM     30  N   UNL     1      47.907   3.009   5.642  0.00  0.00    +0.000 N 
ATOM     31  O   UNL     1      48.022   0.993   6.643  0.00  0.00    +0.000 OA
ATOM     32  H   UNL     1      47.385   3.849   5.436  0.00  0.00    +0.000 HD
ATOM     33  H   UNL     1      48.530   2.659   4.925  0.00  0.00    +0.000 HD
ENDBRANCH  26  29
ENDBRANCH  22  23
ENDBRANCH  21  22
ENDBRANCH  18  21
ENDBRANCH   1  18
TORSDOF 8
ENDMDL
MODEL 4
REMARK VINA RESULT:    -7.780      2.897      7.104
REMARK INTER + INTRA:         -13.071
REMARK INTER:                 -11.007
REMARK INTRA:                  -2.064
REMARK UNBOUND:                -1.653
REMARK  Name = 
REMARK  9 active torsions:
REMARK  status: ('A' for Active; 'I' for Inactive)
REMARK    1  A    between atoms: C_1  and  C_2
REMARK    2  A    between atoms: C_2  and  C_3
REMARK    3  A    between atoms: C_2  and  N_13
REMARK    4  A    between atoms: C_3  and  C_4
REMARK    5  A    between atoms: C_7  and  C_8
REMARK    6  A    between atoms: N_13  and  C_14
REMARK    7  A    between atoms: C_18  and  C_19
REMARK    8  A    between atoms: C_24  and  O_25
REMARK    9  A    between atoms: O_25  and  C_26
REMARK                            x       y       z     vdW  Elec       q    Type
REMARK                         _______ _______ _______ _____ _____    ______ ____
ROOT
ATOM      1  C   UNL     1      46.737   7.857  11.896  0.00  0.00    +0.000 A 
ATOM      2  C   UNL     1      45.553   8.460  12.328  0.00  0.00    +0.000 A 
ATOM      3  C   UNL     1      44.322   7.888  12.038  0.00  0.00    +0.000 A 
ATOM      4  C   UNL     1      44.259   6.697  11.314  0.00  0.00    +0.000 A 
ATOM      5  C   UNL     1      45.416   6.060  10.817  0.00  0.00    +0.000 A 
ATOM      6  C   UNL     1      46.650   6.646  11.173  0.00  0.00    +0.000 A 
ENDROOT
BRANCH   5   7
ATOM      7  C   UNL     1      45.295   4.922   9.850  0.00  0.00    +0.000 A 
ATOM      8  C   UNL     1      46.098   4.970   8.681  0.00  0.00    +0.000 A 
ATOM      9  C   UNL     1      46.128   3.942   7.740  0.00  0.00    +0.000 A 
ATOM     10  C   UNL     1      45.410   2.787   7.976  0.00  0.00    +0.000 A 
ATOM     11  C   UNL     1      44.624   2.690   9.126  0.00  0.00    +0.000 A 
ATOM     12  C   UNL     1      44.492   3.765  10.019  0.00  0.00    +0.000 A 
BRANCH  12  13
ATOM     13  O   UNL     1      43.615   3.740  11.067  0.00  0.00    +0.000 OA
BRANCH  13  14
ATOM     14  C   UNL     1      44.032   3.190  12.318  0.00  0.00    +0.000 C 
ATOM     15  F   UNL     1      43.453   2.010  12.631  0.00  0.00    +0.000 F 
ATOM     16  F   UNL     1      45.373   3.032  12.319  0.00  0.00    +0.000 F 
ATOM     17  F   UNL     1      43.712   4.063  13.301  0.00  0.00    +0.000 F 
ENDBRANCH  13  14
ENDBRANCH  12  13
ENDBRANCH   5   7
BRANCH   1  18
ATOM     18  N   UNL     1      48.009   8.317  12.275  0.00  0.00    +0.000 N 
ATOM     19  H   UNL     1      48.324   8.985  11.571  0.00  0.00    +0.000 HD
BRANCH  18  21
ATOM     20  C   UNL     1      50.256   7.559  11.687  0.00  0.00    +0.000 C 
ATOM     21  C   UNL     1      49.063   7.337  12.624  0.00  0.00    +0.000 C 
BRANCH  21  22
ATOM     22  C   UNL     1      49.440   7.542  14.108  0.00  0.00    +0.000 C 
BRANCH  22  23
ATOM     23  C   UNL     1      48.873   6.558  15.107  0.00  0.00    +0.000 A 
ATOM     24  C   UNL     1      47.831   5.698  14.729  0.00  0.00    +0.000 A 
ATOM     25  C   UNL     1      47.388   4.694  15.594  0.00  0.00    +0.000 A 
ATOM     26  C   UNL     1      47.982   4.531  16.849  0.00  0.00    +0.000 A 
ATOM     27  C   UNL     1      48.993   5.414  17.251  0.00  0.00    +0.000 A 
ATOM     28  C   UNL     1      49.433   6.422  16.384  0.00  0.00    +0.000 A 
BRANCH  26  29
ATOM     29  C   UNL     1      47.514   3.413  17.712  0.00  0.00    +0.000 C 
ATOM     30  N   UNL     1      48.260   3.110  18.814  0.00  0.00    +0.000 N 
ATOM     31  O   UNL     1      46.516   2.757  17.431  0.00  0.00    +0.000 OA
ATOM     32  H   UNL     1      49.194   3.464  18.963  0.00  0.00    +0.000 HD
ATOM     33  H   UNL     1      47.989   2.278  19.324  0.00  0.00    +0.000 HD
ENDBRANCH  26  29
ENDBRANCH  22  23
ENDBRANCH  21  22
ENDBRANCH  18  21
ENDBRANCH   1  18
TORSDOF 8
ENDMDL
MODEL 5
REMARK VINA RESULT:    -7.699      2.147      2.335
REMARK INTER + INTRA:         -12.952
REMARK INTER:                 -10.962
REMARK INTRA:                  -1.990
REMARK UNBOUND:                -1.653
REMARK  Name = 
REMARK  9 active torsions:
REMARK  status: ('A' for Active; 'I' for Inactive)
REMARK    1  A    between atoms: C_1  and  C_2
REMARK    2  A    between atoms: C_2  and  C_3
REMARK    3  A    between atoms: C_2  and  N_13
REMARK    4  A    between atoms: C_3  and  C_4
REMARK    5  A    between atoms: C_7  and  C_8
REMARK    6  A    between atoms: N_13  and  C_14
REMARK    7  A    between atoms: C_18  and  C_19
REMARK    8  A    between atoms: C_24  and  O_25
REMARK    9  A    between atoms: O_25  and  C_26
REMARK                            x       y       z     vdW  Elec       q    Type
REMARK                         _______ _______ _______ _____ _____    ______ ____
ROOT
ATOM      1  C   UNL     1      44.715   7.092  12.371  0.00  0.00    +0.000 A 
ATOM      2  C   UNL     1      44.497   8.236  11.601  0.00  0.00    +0.000 A 
ATOM      3  C   UNL     1      45.440   9.254  11.565  0.00  0.00    +0.000 A 
ATOM      4  C   UNL     1      46.620   9.138  12.298  0.00  0.00    +0.000 A 
ATOM      5  C   UNL     1      46.882   8.026  13.126  0.00  0.00    +0.000 A 
ATOM      6  C   UNL     1      45.922   6.991  13.099  0.00  0.00    +0.000 A 
ENDROOT
BRANCH   5   7
ATOM      7  C   UNL     1      48.041   8.047  14.075  0.00  0.00    +0.000 A 
ATOM      8  C   UNL     1      47.886   8.779  15.281  0.00  0.00    +0.000 A 
ATOM      9  C   UNL     1      48.863   8.819  16.274  0.00  0.00    +0.000 A 
ATOM     10  C   UNL     1      50.006   8.058  16.131  0.00  0.00    +0.000 A 
ATOM     11  C   UNL     1      50.188   7.305  14.968  0.00  0.00    +0.000 A 
ATOM     12  C   UNL     1      49.268   7.352  13.910  0.00  0.00    +0.000 A 
BRANCH  12  13
ATOM     13  O   UNL     1      49.502   6.740  12.711  0.00  0.00    +0.000 OA
BRANCH  13  14
ATOM     14  C   UNL     1      49.954   7.519  11.601  0.00  0.00    +0.000 C 
ATOM     15  F   UNL     1      51.071   7.048  11.006  0.00  0.00    +0.000 F 
ATOM     16  F   UNL     1      48.971   7.604  10.678  0.00  0.00    +0.000 F 
ATOM     17  F   UNL     1      50.231   8.769  12.035  0.00  0.00    +0.000 F 
ENDBRANCH  13  14
ENDBRANCH  12  13
ENDBRANCH   5   7
BRANCH   1  18
ATOM     18  N   UNL     1      43.861   5.976  12.339  0.00  0.00    +0.000 N 
ATOM     19  H   UNL     1      43.440   5.875  13.264  0.00  0.00    +0.000 HD
BRANCH  18  21
ATOM     20  C   UNL     1      43.740   3.554  12.633  0.00  0.00    +0.000 C 
ATOM     21  C   UNL     1      44.367   4.687  11.814  0.00  0.00    +0.000 C 
BRANCH  21  22
ATOM     22  C   UNL     1      44.000   4.599  10.317  0.00  0.00    +0.000 C 
BRANCH  22  23
ATOM     23  C   UNL     1      45.028   3.993   9.387  0.00  0.00    +0.000 A 
ATOM     24  C   UNL     1      45.147   2.598   9.289  0.00  0.00    +0.000 A 
ATOM     25  C   UNL     1      45.996   2.023   8.340  0.00  0.00    +0.000 A 
ATOM     26  C   UNL     1      46.735   2.831   7.471  0.00  0.00    +0.000 A 
ATOM     27  C   UNL     1      46.654   4.224   7.592  0.00  0.00    +0.000 A 
ATOM     28  C   UNL     1      45.806   4.799   8.546  0.00  0.00    +0.000 A 
BRANCH  26  29
ATOM     29  C   UNL     1      47.581   2.170   6.441  0.00  0.00    +0.000 C 
ATOM     30  N   UNL     1      47.860   2.875   5.306  0.00  0.00    +0.000 N 
ATOM     31  O   UNL     1      47.986   1.020   6.581  0.00  0.00    +0.000 OA
ATOM     32  H   UNL     1      47.374   3.721   5.047  0.00  0.00    +0.000 HD
ATOM     33  H   UNL     1      48.341   2.369   4.571  0.00  0.00    +0.000 HD
ENDBRANCH  26  29
ENDBRANCH  22  23
ENDBRANCH  21  22
ENDBRANCH  18  21
ENDBRANCH   1  18
TORSDOF 8
ENDMDL
MODEL 6
REMARK VINA RESULT:    -7.298      2.202      3.519
REMARK INTER + INTRA:         -12.364
REMARK INTER:                 -10.913
REMARK INTRA:                  -1.451
REMARK UNBOUND:                -1.653
REMARK  Name = 
REMARK  9 active torsions:
REMARK  status: ('A' for Active; 'I' for Inactive)
REMARK    1  A    between atoms: C_1  and  C_2
REMARK    2  A    between atoms: C_2  and  C_3
REMARK    3  A    between atoms: C_2  and  N_13
REMARK    4  A    between atoms: C_3  and  C_4
REMARK    5  A    between atoms: C_7  and  C_8
REMARK    6  A    between atoms: N_13  and  C_14
REMARK    7  A    between atoms: C_18  and  C_19
REMARK    8  A    between atoms: C_24  and  O_25
REMARK    9  A    between atoms: O_25  and  C_26
REMARK                            x       y       z     vdW  Elec       q    Type
REMARK                         _______ _______ _______ _____ _____    ______ ____
ROOT
ATOM      1  C   UNL     1      46.450   4.561  13.020  0.00  0.00    +0.000 A 
ATOM      2  C   UNL     1      46.606   3.639  14.057  0.00  0.00    +0.000 A 
ATOM      3  C   UNL     1      47.304   3.980  15.208  0.00  0.00    +0.000 A 
ATOM      4  C   UNL     1      47.854   5.255  15.338  0.00  0.00    +0.000 A 
ATOM      5  C   UNL     1      47.764   6.218  14.310  0.00  0.00    +0.000 A 
ATOM      6  C   UNL     1      47.007   5.850  13.177  0.00  0.00    +0.000 A 
ENDROOT
BRANCH   5   7
ATOM      7  C   UNL     1      48.565   7.483  14.389  0.00  0.00    +0.000 A 
ATOM      8  C   UNL     1      49.936   7.368  14.735  0.00  0.00    +0.000 A 
ATOM      9  C   UNL     1      50.801   8.460  14.774  0.00  0.00    +0.000 A 
ATOM     10  C   UNL     1      50.341   9.703  14.389  0.00  0.00    +0.000 A 
ATOM     11  C   UNL     1      49.003   9.855  14.019  0.00  0.00    +0.000 A 
ATOM     12  C   UNL     1      48.094   8.788  14.092  0.00  0.00    +0.000 A 
BRANCH  12  13
ATOM     13  O   UNL     1      46.755   8.953  13.876  0.00  0.00    +0.000 OA
BRANCH  13  14
ATOM     14  C   UNL     1      46.284   9.230  12.555  0.00  0.00    +0.000 C 
ATOM     15  F   UNL     1      46.050  10.536  12.307  0.00  0.00    +0.000 F 
ATOM     16  F   UNL     1      47.176   8.767  11.652  0.00  0.00    +0.000 F 
ATOM     17  F   UNL     1      45.117   8.574  12.366  0.00  0.00    +0.000 F 
ENDBRANCH  13  14
ENDBRANCH  12  13
ENDBRANCH   5   7
BRANCH   1  18
ATOM     18  N   UNL     1      45.643   4.316  11.897  0.00  0.00    +0.000 N 
ATOM     19  H   UNL     1      45.733   5.113  11.265  0.00  0.00    +0.000 HD
BRANCH  18  21
ATOM     20  C   UNL     1      43.530   5.002  12.914  0.00  0.00    +0.000 C 
ATOM     21  C   UNL     1      44.230   3.916  12.089  0.00  0.00    +0.000 C 
BRANCH  21  22
ATOM     22  C   UNL     1      43.587   3.733  10.697  0.00  0.00    +0.000 C 
BRANCH  22  23
ATOM     23  C   UNL     1      44.502   3.332   9.561  0.00  0.00    +0.000 A 
ATOM     24  C   UNL     1      45.067   4.317   8.736  0.00  0.00    +0.000 A 
ATOM     25  C   UNL     1      46.017   3.976   7.770  0.00  0.00    +0.000 A 
ATOM     26  C   UNL     1      46.420   2.646   7.615  0.00  0.00    +0.000 A 
ATOM     27  C   UNL     1      45.828   1.652   8.405  0.00  0.00    +0.000 A 
ATOM     28  C   UNL     1      44.874   1.995   9.370  0.00  0.00    +0.000 A 
BRANCH  26  29
ATOM     29  C   UNL     1      47.475   2.341   6.611  0.00  0.00    +0.000 C 
ATOM     30  N   UNL     1      47.373   2.936   5.387  0.00  0.00    +0.000 N 
ATOM     31  O   UNL     1      48.385   1.554   6.852  0.00  0.00    +0.000 OA
ATOM     32  H   UNL     1      46.537   3.404   5.069  0.00  0.00    +0.000 HD
ATOM     33  H   UNL     1      48.035   2.629   4.683  0.00  0.00    +0.000 HD
ENDBRANCH  26  29
ENDBRANCH  22  23
ENDBRANCH  21  22
ENDBRANCH  18  21
ENDBRANCH   1  18
TORSDOF 8
ENDMDL
MODEL 7
REMARK VINA RESULT:    -7.236      2.228      2.717
REMARK INTER + INTRA:         -12.273
REMARK INTER:                 -11.003
REMARK INTRA:                  -1.270
REMARK UNBOUND:                -1.653
REMARK  Name = 
REMARK  9 active torsions:
REMARK  status: ('A' for Active; 'I' for Inactive)
REMARK    1  A    between atoms: C_1  and  C_2
REMARK    2  A    between atoms: C_2  and  C_3
REMARK    3  A    between atoms: C_2  and  N_13
REMARK    4  A    between atoms: C_3  and  C_4
REMARK    5  A    between atoms: C_7  and  C_8
REMARK    6  A    between atoms: N_13  and  C_14
REMARK    7  A    between atoms: C_18  and  C_19
REMARK    8  A    between atoms: C_24  and  O_25
REMARK    9  A    between atoms: O_25  and  C_26
REMARK                            x       y       z     vdW  Elec       q    Type
REMARK                         _______ _______ _______ _____ _____    ______ ____
ROOT
ATOM      1  C   UNL     1      45.173   5.488  12.739  0.00  0.00    +0.000 A 
ATOM      2  C   UNL     1      44.297   6.446  12.226  0.00  0.00    +0.000 A 
ATOM      3  C   UNL     1      44.775   7.665  11.761  0.00  0.00    +0.000 A 
ATOM      4  C   UNL     1      46.142   7.938  11.799  0.00  0.00    +0.000 A 
ATOM      5  C   UNL     1      47.074   7.027  12.340  0.00  0.00    +0.000 A 
ATOM      6  C   UNL     1      46.556   5.782  12.759  0.00  0.00    +0.000 A 
ENDROOT
BRANCH   5   7
ATOM      7  C   UNL     1      48.492   7.449  12.580  0.00  0.00    +0.000 A 
ATOM      8  C   UNL     1      49.332   7.590  11.445  0.00  0.00    +0.000 A 
ATOM      9  C   UNL     1      50.648   8.042  11.529  0.00  0.00    +0.000 A 
ATOM     10  C   UNL     1      51.148   8.447  12.750  0.00  0.00    +0.000 A 
ATOM     11  C   UNL     1      50.346   8.345  13.889  0.00  0.00    +0.000 A 
ATOM     12  C   UNL     1      49.063   7.779  13.836  0.00  0.00    +0.000 A 
BRANCH  12  13
ATOM     13  O   UNL     1      48.325   7.537  14.960  0.00  0.00    +0.000 OA
BRANCH  13  14
ATOM     14  C   UNL     1      48.812   6.612  15.935  0.00  0.00    +0.000 C 
ATOM     15  F   UNL     1      50.116   6.290  15.798  0.00  0.00    +0.000 F 
ATOM     16  F   UNL     1      48.615   7.115  17.173  0.00  0.00    +0.000 F 
ATOM     17  F   UNL     1      48.105   5.464  15.832  0.00  0.00    +0.000 F 
ENDBRANCH  13  14
ENDBRANCH  12  13
ENDBRANCH   5   7
BRANCH   1  18
ATOM     18  N   UNL     1      44.763   4.192  13.096  0.00  0.00    +0.000 N 
ATOM     19  H   UNL     1      45.394   3.851  13.821  0.00  0.00    +0.000 HD
BRANCH  18  21
ATOM     20  C   UNL     1      43.351   2.304  12.456  0.00  0.00    +0.000 C 
ATOM     21  C   UNL     1      44.534   3.183  12.036  0.00  0.00    +0.000 C 
BRANCH  21  22
ATOM     22  C   UNL     1      44.268   3.929  10.710  0.00  0.00    +0.000 C 
BRANCH  22  23
ATOM     23  C   UNL     1      45.180   3.614   9.545  0.00  0.00    +0.000 A 
ATOM     24  C   UNL     1      45.414   2.280   9.179  0.00  0.00    +0.000 A 
ATOM     25  C   UNL     1      46.144   1.976   8.028  0.00  0.00    +0.000 A 
ATOM     26  C   UNL     1      46.648   3.000   7.220  0.00  0.00    +0.000 A 
ATOM     27  C   UNL     1      46.455   4.334   7.602  0.00  0.00    +0.000 A 
ATOM     28  C   UNL     1      45.727   4.636   8.759  0.00  0.00    +0.000 A 
BRANCH  26  29
ATOM     29  C   UNL     1      47.370   2.627   5.974  0.00  0.00    +0.000 C 
ATOM     30  N   UNL     1      48.588   2.024   6.106  0.00  0.00    +0.000 N 
ATOM     31  O   UNL     1      46.914   2.882   4.864  0.00  0.00    +0.000 OA
ATOM     32  H   UNL     1      49.099   1.998   6.977  0.00  0.00    +0.000 HD
ATOM     33  H   UNL     1      49.112   1.881   5.251  0.00  0.00    +0.000 HD
ENDBRANCH  26  29
ENDBRANCH  22  23
ENDBRANCH  21  22
ENDBRANCH  18  21
ENDBRANCH   1  18
TORSDOF 8
ENDMDL
MODEL 8
REMARK VINA RESULT:    -7.161      3.483      5.986
REMARK INTER + INTRA:         -12.162
REMARK INTER:                  -9.784
REMARK INTRA:                  -2.379
REMARK UNBOUND:                -1.653
REMARK  Name = 
REMARK  9 active torsions:
REMARK  status: ('A' for Active; 'I' for Inactive)
REMARK    1  A    between atoms: C_1  and  C_2
REMARK    2  A    between atoms: C_2  and  C_3
REMARK    3  A    between atoms: C_2  and  N_13
REMARK    4  A    between atoms: C_3  and  C_4
REMARK    5  A    between atoms: C_7  and  C_8
REMARK    6  A    between atoms: N_13  and  C_14
REMARK    7  A    between atoms: C_18  and  C_19
REMARK    8  A    between atoms: C_24  and  O_25
REMARK    9  A    between atoms: O_25  and  C_26
REMARK                            x       y       z     vdW  Elec       q    Type
REMARK                         _______ _______ _______ _____ _____    ______ ____
ROOT
ATOM      1  C   UNL     1      49.453   7.729  16.085  0.00  0.00    +0.000 A 
ATOM      2  C   UNL     1      48.873   8.231  17.252  0.00  0.00    +0.000 A 
ATOM      3  C   UNL     1      48.997   7.546  18.454  0.00  0.00    +0.000 A 
ATOM      4  C   UNL     1      49.711   6.349  18.504  0.00  0.00    +0.000 A 
ATOM      5  C   UNL     1      50.287   5.771  17.353  0.00  0.00    +0.000 A 
ATOM      6  C   UNL     1      50.179   6.519  16.162  0.00  0.00    +0.000 A 
ENDROOT
BRANCH   5   7
ATOM      7  C   UNL     1      50.836   4.377  17.402  0.00  0.00    +0.000 A 
ATOM      8  C   UNL     1      52.195   4.223  17.781  0.00  0.00    +0.000 A 
ATOM      9  C   UNL     1      52.803   2.978  17.930  0.00  0.00    +0.000 A 
ATOM     10  C   UNL     1      52.047   1.833  17.782  0.00  0.00    +0.000 A 
ATOM     11  C   UNL     1      50.699   1.941  17.430  0.00  0.00    +0.000 A 
ATOM     12  C   UNL     1      50.108   3.184  17.159  0.00  0.00    +0.000 A 
BRANCH  12  13
ATOM     13  O   UNL     1      48.835   3.297  16.673  0.00  0.00    +0.000 OA
BRANCH  13  14
ATOM     14  C   UNL     1      47.746   3.452  17.585  0.00  0.00    +0.000 C 
ATOM     15  F   UNL     1      48.107   3.506  18.884  0.00  0.00    +0.000 F 
ATOM     16  F   UNL     1      47.054   4.571  17.277  0.00  0.00    +0.000 F 
ATOM     17  F   UNL     1      46.914   2.394  17.447  0.00  0.00    +0.000 F 
ENDBRANCH  13  14
ENDBRANCH  12  13
ENDBRANCH   5   7
BRANCH   1  18
ATOM     18  N   UNL     1      49.474   8.444  14.876  0.00  0.00    +0.000 N 
ATOM     19  H   UNL     1      49.753   9.404  15.083  0.00  0.00    +0.000 HD
BRANCH  18  21
ATOM     20  C   UNL     1      48.154   9.749  13.288  0.00  0.00    +0.000 C 
ATOM     21  C   UNL     1      48.299   8.387  13.976  0.00  0.00    +0.000 C 
BRANCH  21  22
ATOM     22  C   UNL     1      48.521   7.242  12.965  0.00  0.00    +0.000 C 
BRANCH  22  23
ATOM     23  C   UNL     1      47.366   6.292  12.732  0.00  0.00    +0.000 A 
ATOM     24  C   UNL     1      46.983   5.395  13.741  0.00  0.00    +0.000 A 
ATOM     25  C   UNL     1      45.840   4.607  13.595  0.00  0.00    +0.000 A 
ATOM     26  C   UNL     1      45.057   4.705  12.440  0.00  0.00    +0.000 A 
ATOM     27  C   UNL     1      45.457   5.567  11.410  0.00  0.00    +0.000 A 
ATOM     28  C   UNL     1      46.606   6.353  11.558  0.00  0.00    +0.000 A 
BRANCH  26  29
ATOM     29  C   UNL     1      43.817   3.887  12.355  0.00  0.00    +0.000 C 
ATOM     30  N   UNL     1      42.725   4.453  11.765  0.00  0.00    +0.000 N 
ATOM     31  O   UNL     1      43.758   2.757  12.831  0.00  0.00    +0.000 OA
ATOM     32  H   UNL     1      42.655   5.440  11.565  0.00  0.00    +0.000 HD
ATOM     33  H   UNL     1      41.862   3.924  11.818  0.00  0.00    +0.000 HD
ENDBRANCH  26  29
ENDBRANCH  22  23
ENDBRANCH  21  22
ENDBRANCH  18  21
ENDBRANCH   1  18
TORSDOF 8
ENDMDL
MODEL 9
REMARK VINA RESULT:    -7.118      3.628      6.976
REMARK INTER + INTRA:         -12.099
REMARK INTER:                  -9.990
REMARK INTRA:                  -2.109
REMARK UNBOUND:                -1.653
REMARK  Name = 
REMARK  9 active torsions:
REMARK  status: ('A' for Active; 'I' for Inactive)
REMARK    1  A    between atoms: C_1  and  C_2
REMARK    2  A    between atoms: C_2  and  C_3
REMARK    3  A    between atoms: C_2  and  N_13
REMARK    4  A    between atoms: C_3  and  C_4
REMARK    5  A    between atoms: C_7  and  C_8
REMARK    6  A    between atoms: N_13  and  C_14
REMARK    7  A    between atoms: C_18  and  C_19
REMARK    8  A    between atoms: C_24  and  O_25
REMARK    9  A    between atoms: O_25  and  C_26
REMARK                            x       y       z     vdW  Elec       q    Type
REMARK                         _______ _______ _______ _____ _____    ______ ____
ROOT
ATOM      1  C   UNL     1      45.471   8.690  12.515  0.00  0.00    +0.000 A 
ATOM      2  C   UNL     1      46.653   8.588  13.252  0.00  0.00    +0.000 A 
ATOM      3  C   UNL     1      47.498   7.499  13.086  0.00  0.00    +0.000 A 
ATOM      4  C   UNL     1      47.173   6.497  12.172  0.00  0.00    +0.000 A 
ATOM      5  C   UNL     1      45.976   6.522  11.426  0.00  0.00    +0.000 A 
ATOM      6  C   UNL     1      45.166   7.667  11.588  0.00  0.00    +0.000 A 
ENDROOT
BRANCH   5   7
ATOM      7  C   UNL     1      45.551   5.320  10.638  0.00  0.00    +0.000 A 
ATOM      8  C   UNL     1      45.774   5.346   9.237  0.00  0.00    +0.000 A 
ATOM      9  C   UNL     1      45.487   4.265   8.405  0.00  0.00    +0.000 A 
ATOM     10  C   UNL     1      45.037   3.083   8.960  0.00  0.00    +0.000 A 
ATOM     11  C   UNL     1      44.826   3.010  10.338  0.00  0.00    +0.000 A 
ATOM     12  C   UNL     1      44.995   4.128  11.169  0.00  0.00    +0.000 A 
BRANCH  12  13
ATOM     13  O   UNL     1      44.652   4.114  12.492  0.00  0.00    +0.000 OA
BRANCH  13  14
ATOM     14  C   UNL     1      43.350   4.552  12.885  0.00  0.00    +0.000 C 
ATOM     15  F   UNL     1      42.454   4.615  11.876  0.00  0.00    +0.000 F 
ATOM     16  F   UNL     1      42.868   3.733  13.845  0.00  0.00    +0.000 F 
ATOM     17  F   UNL     1      43.451   5.796  13.406  0.00  0.00    +0.000 F 
ENDBRANCH  13  14
ENDBRANCH  12  13
ENDBRANCH   5   7
BRANCH   1  18
ATOM     18  N   UNL     1      44.650   9.829  12.544  0.00  0.00    +0.000 N 
ATOM     19  H   UNL     1      43.817   9.603  13.088  0.00  0.00    +0.000 HD
BRANCH  18  21
ATOM     20  C   UNL     1      42.791  10.571  11.143  0.00  0.00    +0.000 C 
ATOM     21  C   UNL     1      44.317  10.519  11.276  0.00  0.00    +0.000 C 
BRANCH  21  22
ATOM     22  C   UNL     1      44.949  11.928  11.314  0.00  0.00    +0.000 C 
BRANCH  22  23
ATOM     23  C   UNL     1      46.230  12.131  10.535  0.00  0.00    +0.000 A 
ATOM     24  C   UNL     1      47.423  11.545  10.983  0.00  0.00    +0.000 A 
ATOM     25  C   UNL     1      48.583  11.611  10.207  0.00  0.00    +0.000 A 
ATOM     26  C   UNL     1      48.568  12.259   8.968  0.00  0.00    +0.000 A 
ATOM     27  C   UNL     1      47.392  12.884   8.534  0.00  0.00    +0.000 A 
ATOM     28  C   UNL     1      46.232  12.821   9.315  0.00  0.00    +0.000 A 
BRANCH  26  29
ATOM     29  C   UNL     1      49.813  12.254   8.153  0.00  0.00    +0.000 C 
ATOM     30  N   UNL     1      50.992  12.484   8.800  0.00  0.00    +0.000 N 
ATOM     31  O   UNL     1      49.786  12.088   6.938  0.00  0.00    +0.000 OA
ATOM     32  H   UNL     1      51.044  12.844   9.743  0.00  0.00    +0.000 HD
ATOM     33  H   UNL     1      51.812  12.588   8.214  0.00  0.00    +0.000 HD
ENDBRANCH  26  29
ENDBRANCH  22  23
ENDBRANCH  21  22
ENDBRANCH  18  21
ENDBRANCH   1  18
TORSDOF 8
ENDMDL
