MODEL 1
REMARK VINA RESULT:    -7.633      0.000      0.000
REMARK INTER + INTRA:         -11.470
REMARK INTER:                 -10.533
REMARK INTRA:                  -0.937
REMARK UNBOUND:                -0.937
REMARK  Name = 
REMARK  8 active torsions:
REMARK  status: ('A' for Active; 'I' for Inactive)
REMARK    1  A    between atoms: C_1  and  C_2
REMARK    2  A    between atoms: C_2  and  C_3
REMARK    3  A    between atoms: C_6  and  C_7
REMARK    4  A    between atoms: C_7  and  C_8
REMARK    5  A    between atoms: C_8  and  O_9
REMARK    6  A    between atoms: O_9  and  C_10
REMARK    7  A    between atoms: C_13  and  C_14
REMARK    8  A    between atoms: C_14  and  O_16
REMARK                            x       y       z     vdW  Elec       q    Type
REMARK                         _______ _______ _______ _____ _____    ______ ____
ROOT
ATOM      1  O   UNL     1      43.476   3.576  10.297  0.00  0.00    +0.000 OA
ENDROOT
BRANCH   1   2
ATOM      2  C   UNL     1      44.470   3.203   9.427  0.00  0.00    +0.000 A 
ATOM      3  C   UNL     1      44.914   1.896   9.220  0.00  0.00    +0.000 A 
ATOM      4  C   UNL     1      45.924   1.620   8.292  0.00  0.00    +0.000 A 
ATOM      5  C   UNL     1      46.516   2.663   7.574  0.00  0.00    +0.000 A 
ATOM      6  C   UNL     1      46.073   3.975   7.774  0.00  0.00    +0.000 A 
ATOM      7  C   UNL     1      45.057   4.242   8.700  0.00  0.00    +0.000 A 
BRANCH   5   8
ATOM      8  C   UNL     1      47.567   2.415   6.552  0.00  0.00    +0.000 C 
ATOM      9  O   UNL     1      48.435   1.572   6.693  0.00  0.00    +0.000 OA
BRANCH   8  10
ATOM     10  O   UNL     1      47.458   3.182   5.448  0.00  0.00    +0.000 OA
ATOM     11  H   UNL     1      47.169   2.720   4.643  0.00  0.00    +0.000 HD
ENDBRANCH   8  10
ENDBRANCH   5   8
ENDBRANCH   1   2
BRANCH   1  12
ATOM     12  C   UNL     1      43.626   3.118  11.645  0.00  0.00    +0.000 C 
BRANCH  12  13
ATOM     13  C   UNL     1      43.579   4.307  12.602  0.00  0.00    +0.000 C 
BRANCH  13  17
ATOM     14  C   UNL     1      47.431   6.279  12.794  0.00  0.00    +0.000 A 
ATOM     15  C   UNL     1      47.168   5.152  13.581  0.00  0.00    +0.000 A 
ATOM     16  C   UNL     1      45.920   4.524  13.532  0.00  0.00    +0.000 A 
ATOM     17  C   UNL     1      44.914   5.007  12.685  0.00  0.00    +0.000 A 
ATOM     18  C   UNL     1      45.164   6.158  11.927  0.00  0.00    +0.000 A 
ATOM     19  C   UNL     1      46.413   6.784  11.977  0.00  0.00    +0.000 A 
BRANCH  14  21
ATOM     20  C   UNL     1      49.009   7.778  11.553  0.00  0.00    +0.000 C 
ATOM     21  C   UNL     1      48.805   6.900  12.780  0.00  0.00    +0.000 C 
ENDBRANCH  14  21
ENDBRANCH  13  17
ENDBRANCH  12  13
ENDBRANCH   1  12
TORSDOF 7
ENDMDL
MODEL 2
REMARK VINA RESULT:    -7.226      2.691      5.746
REMARK INTER + INTRA:         -10.909
REMARK INTER:                  -9.898
REMARK INTRA:                  -1.010
REMARK UNBOUND:                -0.937
REMARK  Name = 
REMARK  8 active torsions:
REMARK  status: ('A' for Active; 'I' for Inactive)
REMARK    1  A    between atoms: C_1  and  C_2
REMARK    2  A    between atoms: C_2  and  C_3
REMARK    3  A    between atoms: C_6  and  C_7
REMARK    4  A    between atoms: C_7  and  C_8
REMARK    5  A    between atoms: C_8  and  O_9
REMARK    6  A    between atoms: O_9  and  C_10
REMARK    7  A    between atoms: C_13  and  C_14
REMARK    8  A    between atoms: C_14  and  O_16
REMARK                            x       y       z     vdW  Elec       q    Type
REMARK                         _______ _______ _______ _____ _____    ______ ____
ROOT
ATOM      1  O   UNL     1      43.376   5.569  12.789  0.00  0.00    +0.000 OA
ENDROOT
BRANCH   1   2
ATOM      2  C   UNL     1      44.722   5.828  12.853  0.00  0.00    +0.000 A 
ATOM      3  C   UNL     1      45.670   5.024  13.489  0.00  0.00    +0.000 A 
ATOM      4  C   UNL     1      47.026   5.368  13.480  0.00  0.00    +0.000 A 
ATOM      5  C   UNL     1      47.442   6.543  12.847  0.00  0.00    +0.000 A 
ATOM      6  C   UNL     1      46.498   7.352  12.205  0.00  0.00    +0.000 A 
ATOM      7  C   UNL     1      45.143   6.996  12.213  0.00  0.00    +0.000 A 
BRANCH   5   8
ATOM      8  C   UNL     1      48.876   6.933  12.780  0.00  0.00    +0.000 C 
ATOM      9  O   UNL     1      49.372   7.446  11.792  0.00  0.00    +0.000 OA
BRANCH   8  10
ATOM     10  O   UNL     1      49.568   6.696  13.913  0.00  0.00    +0.000 OA
ATOM     11  H   UNL     1      49.499   7.383  14.598  0.00  0.00    +0.000 HD
ENDBRANCH   8  10
ENDBRANCH   5   8
ENDBRANCH   1   2
BRANCH   1  12
ATOM     12  C   UNL     1      42.893   5.092  11.528  0.00  0.00    +0.000 C 
BRANCH  12  13
ATOM     13  C   UNL     1      43.303   3.634  11.337  0.00  0.00    +0.000 C 
BRANCH  13  17
ATOM     14  C   UNL     1      45.938   3.158   7.932  0.00  0.00    +0.000 A 
ATOM     15  C   UNL     1      45.424   2.038   8.596  0.00  0.00    +0.000 A 
ATOM     16  C   UNL     1      44.586   2.191   9.705  0.00  0.00    +0.000 A 
ATOM     17  C   UNL     1      44.239   3.468  10.164  0.00  0.00    +0.000 A 
ATOM     18  C   UNL     1      44.785   4.588   9.524  0.00  0.00    +0.000 A 
ATOM     19  C   UNL     1      45.623   4.433   8.415  0.00  0.00    +0.000 A 
BRANCH  14  21
ATOM     20  C   UNL     1      47.690   1.787   6.780  0.00  0.00    +0.000 C 
ATOM     21  C   UNL     1      46.767   2.994   6.683  0.00  0.00    +0.000 C 
ENDBRANCH  14  21
ENDBRANCH  13  17
ENDBRANCH  12  13
ENDBRANCH   1  12
TORSDOF 7
ENDMDL
MODEL 3
REMARK VINA RESULT:    -7.213      2.754      6.171
REMARK INTER + INTRA:         -10.892
REMARK INTER:                 -10.177
REMARK INTRA:                  -0.714
REMARK UNBOUND:                -0.937
REMARK  Name = 
REMARK  8 active torsions:
REMARK  status: ('A' for Active; 'I' for Inactive)
REMARK    1  A    between atoms: C_1  and  C_2
REMARK    2  A    between atoms: C_2  and  C_3
REMARK    3  A    between atoms: C_6  and  C_7
REMARK    4  A    between atoms: C_7  and  C_8
REMARK    5  A    between atoms: C_8  and  O_9
REMARK    6  A    between atoms: O_9  and  C_10
REMARK    7  A    between atoms: C_13  and  C_14
REMARK    8  A    between atoms: C_14  and  O_16
REMARK                            x       y       z     vdW  Elec       q    Type
REMARK                         _______ _______ _______ _____ _____    ______ ____
ROOT
ATOM      1  O   UNL     1      43.403   4.797  12.765  0.00  0.00    +0.000 OA
ENDROOT
BRANCH   1   2
ATOM      2  C   UNL     1      44.646   5.351  12.943  0.00  0.00    +0.000 A 
ATOM      3  C   UNL     1      44.984   6.678  12.674  0.00  0.00    +0.000 A 
ATOM      4  C   UNL     1      46.280   7.150  12.910  0.00  0.00    +0.000 A 
ATOM      5  C   UNL     1      47.260   6.283  13.401  0.00  0.00    +0.000 A 
ATOM      6  C   UNL     1      46.926   4.951  13.676  0.00  0.00    +0.000 A 
ATOM      7  C   UNL     1      45.625   4.489  13.443  0.00  0.00    +0.000 A 
BRANCH   5   8
ATOM      8  C   UNL     1      48.640   6.746  13.700  0.00  0.00    +0.000 C 
ATOM      9  O   UNL     1      48.955   7.220  14.778  0.00  0.00    +0.000 OA
BRANCH   8  10
ATOM     10  O   UNL     1      49.515   6.572  12.689  0.00  0.00    +0.000 OA
ATOM     11  H   UNL     1      50.033   7.358  12.442  0.00  0.00    +0.000 HD
ENDBRANCH   8  10
ENDBRANCH   5   8
ENDBRANCH   1   2
BRANCH   1  12
ATOM     12  C   UNL     1      43.272   3.906  11.652  0.00  0.00    +0.000 C 
BRANCH  12  13
ATOM     13  C   UNL     1      43.610   4.644  10.359  0.00  0.00    +0.000 C 
BRANCH  13  17
ATOM     14  C   UNL     1      46.284   2.312   7.873  0.00  0.00    +0.000 A 
ATOM     15  C   UNL     1      46.234   3.706   7.752  0.00  0.00    +0.000 A 
ATOM     16  C   UNL     1      45.360   4.458   8.543  0.00  0.00    +0.000 A 
ATOM     17  C   UNL     1      44.526   3.830   9.477  0.00  0.00    +0.000 A 
ATOM     18  C   UNL     1      44.548   2.432   9.570  0.00  0.00    +0.000 A 
ATOM     19  C   UNL     1      45.423   1.682   8.778  0.00  0.00    +0.000 A 
BRANCH  14  21
ATOM     20  C   UNL     1      47.760   2.266   5.849  0.00  0.00    +0.000 C 
ATOM     21  C   UNL     1      47.290   1.512   7.085  0.00  0.00    +0.000 C 
ENDBRANCH  14  21
ENDBRANCH  13  17
ENDBRANCH  12  13
ENDBRANCH   1  12
TORSDOF 7
ENDMDL
MODEL 4
REMARK VINA RESULT:    -6.408      3.061      6.769
REMARK INTER + INTRA:          -9.780
REMARK INTER:                  -9.446
REMARK INTRA:                  -0.334
REMARK UNBOUND:                -0.937
REMARK  Name = 
REMARK  8 active torsions:
REMARK  status: ('A' for Active; 'I' for Inactive)
REMARK    1  A    between atoms: C_1  and  C_2
REMARK    2  A    between atoms: C_2  and  C_3
REMARK    3  A    between atoms: C_6  and  C_7
REMARK    4  A    between atoms: C_7  and  C_8
REMARK    5  A    between atoms: C_8  and  O_9
REMARK    6  A    between atoms: O_9  and  C_10
REMARK    7  A    between atoms: C_13  and  C_14
REMARK    8  A    between atoms: C_14  and  O_16
REMARK                            x       y       z     vdW  Elec       q    Type
REMARK                         _______ _______ _______ _____ _____    ______ ____
ROOT
ATOM      1  O   UNL     1      45.846   5.314  11.216  0.00  0.00    +0.000 OA
ENDROOT
BRANCH   1   2
ATOM      2  C   UNL     1      46.431   5.344  12.457  0.00  0.00    +0.000 A 
ATOM      3  C   UNL     1      46.280   4.368  13.444  0.00  0.00    +0.000 A 
ATOM      4  C   UNL     1      46.938   4.484  14.673  0.00  0.00    +0.000 A 
ATOM      5  C   UNL     1      47.740   5.599  14.933  0.00  0.00    +0.000 A 
ATOM      6  C   UNL     1      47.898   6.579  13.946  0.00  0.00    +0.000 A 
ATOM      7  C   UNL     1      47.241   6.452  12.716  0.00  0.00    +0.000 A 
BRANCH   5   8
ATOM      8  C   UNL     1      48.487   5.748  16.210  0.00  0.00    +0.000 C 
ATOM      9  O   UNL     1      49.331   4.949  16.575  0.00  0.00    +0.000 OA
BRANCH   8  10
ATOM     10  O   UNL     1      48.169   6.855  16.911  0.00  0.00    +0.000 OA
ATOM     11  H   UNL     1      48.818   7.126  17.583  0.00  0.00    +0.000 HD
ENDBRANCH   8  10
ENDBRANCH   5   8
ENDBRANCH   1   2
BRANCH   1  12
ATOM     12  C   UNL     1      44.486   5.759  11.157  0.00  0.00    +0.000 C 
BRANCH  12  13
ATOM     13  C   UNL     1      43.648   4.753  10.372  0.00  0.00    +0.000 C 
BRANCH  13  17
ATOM     14  C   UNL     1      46.165   2.266   7.872  0.00  0.00    +0.000 A 
ATOM     15  C   UNL     1      46.065   3.643   7.636  0.00  0.00    +0.000 A 
ATOM     16  C   UNL     1      45.241   4.443   8.432  0.00  0.00    +0.000 A 
ATOM     17  C   UNL     1      44.508   3.883   9.487  0.00  0.00    +0.000 A 
ATOM     18  C   UNL     1      44.578   2.500   9.698  0.00  0.00    +0.000 A 
ATOM     19  C   UNL     1      45.403   1.701   8.901  0.00  0.00    +0.000 A 
BRANCH  14  21
ATOM     20  C   UNL     1      47.866   2.249   6.032  0.00  0.00    +0.000 C 
ATOM     21  C   UNL     1      47.123   1.420   7.072  0.00  0.00    +0.000 C 
ENDBRANCH  14  21
ENDBRANCH  13  17
ENDBRANCH  12  13
ENDBRANCH   1  12
TORSDOF 7
ENDMDL
MODEL 5
REMARK VINA RESULT:    -5.703      3.418      6.963
REMARK INTER + INTRA:          -8.807
REMARK INTER:                  -7.933
REMARK INTRA:                  -0.874
REMARK UNBOUND:                -0.937
REMARK  Name = 
REMARK  8 active torsions:
REMARK  status: ('A' for Active; 'I' for Inactive)
REMARK    1  A    between atoms: C_1  and  C_2
REMARK    2  A    between atoms: C_2  and  C_3
REMARK    3  A    between atoms: C_6  and  C_7
REMARK    4  A    between atoms: C_7  and  C_8
REMARK    5  A    between atoms: C_8  and  O_9
REMARK    6  A    between atoms: O_9  and  C_10
REMARK    7  A    between atoms: C_13  and  C_14
REMARK    8  A    between atoms: C_14  and  O_16
REMARK                            x       y       z     vdW  Elec       q    Type
REMARK                         _______ _______ _______ _____ _____    ______ ____
ROOT
ATOM      1  O   UNL     1      47.177   6.762  12.843  0.00  0.00    +0.000 OA
ENDROOT
BRANCH   1   2
ATOM      2  C   UNL     1      47.399   5.941  13.920  0.00  0.00    +0.000 A 
ATOM      3  C   UNL     1      48.088   6.299  15.080  0.00  0.00    +0.000 A 
ATOM      4  C   UNL     1      48.244   5.391  16.132  0.00  0.00    +0.000 A 
ATOM      5  C   UNL     1      47.725   4.097  16.019  0.00  0.00    +0.000 A 
ATOM      6  C   UNL     1      47.031   3.732  14.860  0.00  0.00    +0.000 A 
ATOM      7  C   UNL     1      46.874   4.651  13.814  0.00  0.00    +0.000 A 
BRANCH   5   8
ATOM      8  C   UNL     1      47.834   3.108  17.124  0.00  0.00    +0.000 C 
ATOM      9  O   UNL     1      48.902   2.654  17.497  0.00  0.00    +0.000 OA
BRANCH   8  10
ATOM     10  O   UNL     1      46.656   2.779  17.692  0.00  0.00    +0.000 OA
ATOM     11  H   UNL     1      45.886   3.291  17.386  0.00  0.00    +0.000 HD
ENDBRANCH   8  10
ENDBRANCH   5   8
ENDBRANCH   1   2
BRANCH   1  12
ATOM     12  C   UNL     1      46.011   7.590  12.922  0.00  0.00    +0.000 C 
BRANCH  12  13
ATOM     13  C   UNL     1      45.316   7.632  11.564  0.00  0.00    +0.000 C 
BRANCH  13  17
ATOM     14  C   UNL     1      44.666   3.678   9.916  0.00  0.00    +0.000 A 
ATOM     15  C   UNL     1      43.968   4.099  11.054  0.00  0.00    +0.000 A 
ATOM     16  C   UNL     1      44.188   5.369  11.595  0.00  0.00    +0.000 A 
ATOM     17  C   UNL     1      45.106   6.246  11.003  0.00  0.00    +0.000 A 
ATOM     18  C   UNL     1      45.834   5.810   9.888  0.00  0.00    +0.000 A 
ATOM     19  C   UNL     1      45.611   4.540   9.347  0.00  0.00    +0.000 A 
BRANCH  14  21
ATOM     20  C   UNL     1      45.602   1.738   8.637  0.00  0.00    +0.000 C 
ATOM     21  C   UNL     1      44.362   2.346   9.280  0.00  0.00    +0.000 C 
ENDBRANCH  14  21
ENDBRANCH  13  17
ENDBRANCH  12  13
ENDBRANCH   1  12
TORSDOF 7
ENDMDL
MODEL 6
REMARK VINA RESULT:    -5.550      4.508      6.412
REMARK INTER + INTRA:          -8.596
REMARK INTER:                  -8.141
REMARK INTRA:                  -0.454
REMARK UNBOUND:                -0.937
REMARK  Name = 
REMARK  8 active torsions:
REMARK  status: ('A' for Active; 'I' for Inactive)
REMARK    1  A    between atoms: C_1  and  C_2
REMARK    2  A    between atoms: C_2  and  C_3
REMARK    3  A    between atoms: C_6  and  C_7
REMARK    4  A    between atoms: C_7  and  C_8
REMARK    5  A    between atoms: C_8  and  O_9
REMARK    6  A    between atoms: O_9  and  C_10
REMARK    7  A    between atoms: C_13  and  C_14
REMARK    8  A    between atoms: C_14  and  O_16
REMARK                            x       y       z     vdW  Elec       q    Type
REMARK                         _______ _______ _______ _____ _____    ______ ____
ROOT
ATOM      1  O   UNL     1      47.638   5.076  14.747  0.00  0.00    +0.000 OA
ENDROOT
BRANCH   1   2
ATOM      2  C   UNL     1      46.855   4.911  13.632  0.00  0.00    +0.000 A 
ATOM      3  C   UNL     1      46.168   3.744  13.293  0.00  0.00    +0.000 A 
ATOM      4  C   UNL     1      45.379   3.685  12.139  0.00  0.00    +0.000 A 
ATOM      5  C   UNL     1      45.289   4.798  11.298  0.00  0.00    +0.000 A 
ATOM      6  C   UNL     1      45.972   5.973  11.634  0.00  0.00    +0.000 A 
ATOM      7  C   UNL     1      46.755   6.025  12.794  0.00  0.00    +0.000 A 
BRANCH   5   8
ATOM      8  C   UNL     1      44.435   4.795  10.081  0.00  0.00    +0.000 C 
ATOM      9  O   UNL     1      44.795   4.304   9.026  0.00  0.00    +0.000 OA
BRANCH   8  10
ATOM     10  O   UNL     1      43.221   5.358  10.255  0.00  0.00    +0.000 OA
ATOM     11  H   UNL     1      42.542   5.096   9.609  0.00  0.00    +0.000 HD
ENDBRANCH   8  10
ENDBRANCH   5   8
ENDBRANCH   1   2
BRANCH   1  12
ATOM     12  C   UNL     1      47.329   4.225  15.856  0.00  0.00    +0.000 C 
BRANCH  12  13
ATOM     13  C   UNL     1      48.061   4.716  17.102  0.00  0.00    +0.000 C 
BRANCH  13  17
ATOM     14  C   UNL     1      51.820   2.651  17.714  0.00  0.00    +0.000 A 
ATOM     15  C   UNL     1      51.743   4.044  17.841  0.00  0.00    +0.000 A 
ATOM     16  C   UNL     1      50.534   4.712  17.628  0.00  0.00    +0.000 A 
ATOM     17  C   UNL     1      49.376   3.999  17.294  0.00  0.00    +0.000 A 
ATOM     18  C   UNL     1      49.462   2.611  17.128  0.00  0.00    +0.000 A 
ATOM     19  C   UNL     1      50.672   1.943  17.341  0.00  0.00    +0.000 A 
BRANCH  14  21
ATOM     20  C   UNL     1      53.091   0.506  17.474  0.00  0.00    +0.000 C 
ATOM     21  C   UNL     1      53.102   1.923  18.031  0.00  0.00    +0.000 C 
ENDBRANCH  14  21
ENDBRANCH  13  17
ENDBRANCH  12  13
ENDBRANCH   1  12
TORSDOF 7
ENDMDL
MODEL 7
REMARK VINA RESULT:    -5.319      3.819      6.351
REMARK INTER + INTRA:          -8.278
REMARK INTER:                  -7.495
REMARK INTRA:                  -0.783
REMARK UNBOUND:                -0.937
REMARK  Name = 
REMARK  8 active torsions:
REMARK  status: ('A' for Active; 'I' for Inactive)
REMARK    1  A    between atoms: C_1  and  C_2
REMARK    2  A    between atoms: C_2  and  C_3
REMARK    3  A    between atoms: C_6  and  C_7
REMARK    4  A    between atoms: C_7  and  C_8
REMARK    5  A    between atoms: C_8  and  O_9
REMARK    6  A    between atoms: O_9  and  C_10
REMARK    7  A    between atoms: C_13  and  C_14
REMARK    8  A    between atoms: C_14  and  O_16
REMARK                            x       y       z     vdW  Elec       q    Type
REMARK                         _______ _______ _______ _____ _____    ______ ____
ROOT
ATOM      1  O   UNL     1      48.373   6.050  13.157  0.00  0.00    +0.000 OA
ENDROOT
BRANCH   1   2
ATOM      2  C   UNL     1      47.073   5.849  12.765  0.00  0.00    +0.000 A 
ATOM      3  C   UNL     1      46.458   6.457  11.669  0.00  0.00    +0.000 A 
ATOM      4  C   UNL     1      45.129   6.169  11.342  0.00  0.00    +0.000 A 
ATOM      5  C   UNL     1      44.394   5.278  12.130  0.00  0.00    +0.000 A 
ATOM      6  C   UNL     1      45.006   4.662  13.228  0.00  0.00    +0.000 A 
ATOM      7  C   UNL     1      46.339   4.952  13.544  0.00  0.00    +0.000 A 
BRANCH   5   8
ATOM      8  C   UNL     1      42.991   4.912  11.801  0.00  0.00    +0.000 C 
ATOM      9  O   UNL     1      42.082   5.724  11.807  0.00  0.00    +0.000 OA
BRANCH   8  10
ATOM     10  O   UNL     1      42.818   3.616  11.471  0.00  0.00    +0.000 OA
ATOM     11  H   UNL     1      43.033   2.974  12.170  0.00  0.00    +0.000 HD
ENDBRANCH   8  10
ENDBRANCH   5   8
ENDBRANCH   1   2
BRANCH   1  12
ATOM     12  C   UNL     1      48.724   7.400  13.483  0.00  0.00    +0.000 C 
BRANCH  12  13
ATOM     13  C   UNL     1      48.446   7.661  14.961  0.00  0.00    +0.000 C 
BRANCH  13  17
ATOM     14  C   UNL     1      50.597   4.845  17.454  0.00  0.00    +0.000 A 
ATOM     15  C   UNL     1      49.208   4.750  17.307  0.00  0.00    +0.000 A 
ATOM     16  C   UNL     1      48.511   5.668  16.516  0.00  0.00    +0.000 A 
ATOM     17  C   UNL     1      49.193   6.693  15.848  0.00  0.00    +0.000 A 
ATOM     18  C   UNL     1      50.577   6.812  16.026  0.00  0.00    +0.000 A 
ATOM     19  C   UNL     1      51.273   5.893  16.817  0.00  0.00    +0.000 A 
BRANCH  14  21
ATOM     20  C   UNL     1      51.337   2.453  17.528  0.00  0.00    +0.000 C 
ATOM     21  C   UNL     1      51.358   3.802  18.233  0.00  0.00    +0.000 C 
ENDBRANCH  14  21
ENDBRANCH  13  17
ENDBRANCH  12  13
ENDBRANCH   1  12
TORSDOF 7
ENDMDL
MODEL 8
REMARK VINA RESULT:    -5.302      3.392      6.434
REMARK INTER + INTRA:          -8.254
REMARK INTER:                  -7.514
REMARK INTRA:                  -0.740
REMARK UNBOUND:                -0.937
REMARK  Name = 
REMARK  8 active torsions:
REMARK  status: ('A' for Active; 'I' for Inactive)
REMARK    1  A    between atoms: C_1  and  C_2
REMARK    2  A    between atoms: C_2  and  C_3
REMARK    3  A    between atoms: C_6  and  C_7
REMARK    4  A    between atoms: C_7  and  C_8
REMARK    5  A    between atoms: C_8  and  O_9
REMARK    6  A    between atoms: O_9  and  C_10
REMARK    7  A    between atoms: C_13  and  C_14
REMARK    8  A    between atoms: C_14  and  O_16
REMARK                            x       y       z     vdW  Elec       q    Type
REMARK                         _______ _______ _______ _____ _____    ______ ____
ROOT
ATOM      1  O   UNL     1      45.611   7.107  12.959  0.00  0.00    +0.000 OA
ENDROOT
BRANCH   1   2
ATOM      2  C   UNL     1      46.963   7.339  12.904  0.00  0.00    +0.000 A 
ATOM      3  C   UNL     1      47.890   6.940  13.869  0.00  0.00    +0.000 A 
ATOM      4  C   UNL     1      49.253   7.210  13.709  0.00  0.00    +0.000 A 
ATOM      5  C   UNL     1      49.699   7.905  12.581  0.00  0.00    +0.000 A 
ATOM      6  C   UNL     1      48.775   8.305  11.608  0.00  0.00    +0.000 A 
ATOM      7  C   UNL     1      47.413   8.026  11.774  0.00  0.00    +0.000 A 
BRANCH   5   8
ATOM      8  C   UNL     1      51.141   8.184  12.349  0.00  0.00    +0.000 C 
ATOM      9  O   UNL     1      51.564   8.622  11.294  0.00  0.00    +0.000 OA
BRANCH   8  10
ATOM     10  O   UNL     1      51.931   7.935  13.413  0.00  0.00    +0.000 OA
ATOM     11  H   UNL     1      51.561   8.184  14.277  0.00  0.00    +0.000 HD
ENDBRANCH   8  10
ENDBRANCH   5   8
ENDBRANCH   1   2
BRANCH   1  12
ATOM     12  C   UNL     1      45.208   5.740  12.822  0.00  0.00    +0.000 C 
BRANCH  12  13
ATOM     13  C   UNL     1      44.168   5.619  11.711  0.00  0.00    +0.000 C 
BRANCH  13  17
ATOM     14  C   UNL     1      45.687   3.221   8.438  0.00  0.00    +0.000 A 
ATOM     15  C   UNL     1      46.034   4.573   8.551  0.00  0.00    +0.000 A 
ATOM     16  C   UNL     1      45.531   5.351   9.598  0.00  0.00    +0.000 A 
ATOM     17  C   UNL     1      44.679   4.789  10.557  0.00  0.00    +0.000 A 
ATOM     18  C   UNL     1      44.301   3.448  10.421  0.00  0.00    +0.000 A 
ATOM     19  C   UNL     1      44.804   2.670   9.374  0.00  0.00    +0.000 A 
BRANCH  14  21
ATOM     20  C   UNL     1      46.680   3.184   6.138  0.00  0.00    +0.000 C 
ATOM     21  C   UNL     1      46.300   2.361   7.362  0.00  0.00    +0.000 C 
ENDBRANCH  14  21
ENDBRANCH  13  17
ENDBRANCH  12  13
ENDBRANCH   1  12
TORSDOF 7
ENDMDL
MODEL 9
REMARK VINA RESULT:    -5.098      3.950      6.050
REMARK INTER + INTRA:          -7.973
REMARK INTER:                  -7.227
REMARK INTRA:                  -0.746
REMARK UNBOUND:                -0.937
REMARK  Name = 
REMARK  8 active torsions:
REMARK  status: ('A' for Active; 'I' for Inactive)
REMARK    1  A    between atoms: C_1  and  C_2
REMARK    2  A    between atoms: C_2  and  C_3
REMARK    3  A    between atoms: C_6  and  C_7
REMARK    4  A    between atoms: C_7  and  C_8
REMARK    5  A    between atoms: C_8  and  O_9
REMARK    6  A    between atoms: O_9  and  C_10
REMARK    7  A    between atoms: C_13  and  C_14
REMARK    8  A    between atoms: C_14  and  O_16
REMARK                            x       y       z     vdW  Elec       q    Type
REMARK                         _______ _______ _______ _____ _____    ______ ____
ROOT
ATOM      1  O   UNL     1      46.949   7.349  12.342  0.00  0.00    +0.000 OA
ENDROOT
BRANCH   1   2
ATOM      2  C   UNL     1      46.253   6.202  12.053  0.00  0.00    +0.000 A 
ATOM      3  C   UNL     1      45.996   5.166  12.953  0.00  0.00    +0.000 A 
ATOM      4  C   UNL     1      45.257   4.044  12.562  0.00  0.00    +0.000 A 
ATOM      5  C   UNL     1      44.786   3.941  11.250  0.00  0.00    +0.000 A 
ATOM      6  C   UNL     1      45.037   4.978  10.344  0.00  0.00    +0.000 A 
ATOM      7  C   UNL     1      45.772   6.101  10.746  0.00  0.00    +0.000 A 
BRANCH   5   8
ATOM      8  C   UNL     1      43.966   2.785  10.799  0.00  0.00    +0.000 C 
ATOM      9  O   UNL     1      44.282   2.087   9.851  0.00  0.00    +0.000 OA
BRANCH   8  10
ATOM     10  O   UNL     1      42.864   2.563  11.543  0.00  0.00    +0.000 OA
ATOM     11  H   UNL     1      43.027   2.286  12.461  0.00  0.00    +0.000 HD
ENDBRANCH   8  10
ENDBRANCH   5   8
ENDBRANCH   1   2
BRANCH   1  12
ATOM     12  C   UNL     1      46.181   8.418  12.906  0.00  0.00    +0.000 C 
BRANCH  12  13
ATOM     13  C   UNL     1      46.352   9.678  12.061  0.00  0.00    +0.000 C 
BRANCH  13  17
ATOM     14  C   UNL     1      42.538  11.070  10.549  0.00  0.00    +0.000 A 
ATOM     15  C   UNL     1      42.842   9.704  10.564  0.00  0.00    +0.000 A 
ATOM     16  C   UNL     1      44.079   9.255  11.037  0.00  0.00    +0.000 A 
ATOM     17  C   UNL     1      45.031  10.164  11.513  0.00  0.00    +0.000 A 
ATOM     18  C   UNL     1      44.743  11.534  11.461  0.00  0.00    +0.000 A 
ATOM     19  C   UNL     1      43.505  11.982  10.989  0.00  0.00    +0.000 A 
BRANCH  14  21
ATOM     20  C   UNL     1      40.796  12.851  10.813  0.00  0.00    +0.000 C 
ATOM     21  C   UNL     1      41.172  11.546  10.124  0.00  0.00    +0.000 C 
ENDBRANCH  14  21
ENDBRANCH  13  17
ENDBRANCH  12  13
ENDBRANCH   1  12
TORSDOF 7
ENDMDL
