MODEL 1
REMARK VINA RESULT:    -7.026      0.000      0.000
REMARK INTER + INTRA:          -9.826
REMARK INTER:                  -9.080
REMARK INTRA:                  -0.746
REMARK UNBOUND:                -0.746
REMARK  Name = 
REMARK  8 active torsions:
REMARK  status: ('A' for Active; 'I' for Inactive)
REMARK    1  A    between atoms: C_1  and  C_2
REMARK    2  A    between atoms: C_4  and  N_5
REMARK    3  A    between atoms: N_5  and  C_6
REMARK    4  A    between atoms: C_6  and  C_7
REMARK    5  A    between atoms: C_11  and  C_12
REMARK    6  A    between atoms: N_17  and  C_18
REMARK    7  A    between atoms: C_21  and  C_22
REMARK    8  A    between atoms: C_21  and  C_23
REMARK                            x       y       z     vdW  Elec       q    Type
REMARK                         _______ _______ _______ _____ _____    ______ ____
ROOT
ATOM      1  C   UNL     1      49.712   7.695  11.755  0.00  0.00    +0.000 C 
ATOM      2  C   UNL     1      48.717   6.972  12.614  0.00  0.00    +0.000 A 
ATOM      3  C   UNL     1      47.520   6.538  12.089  0.00  0.00    +0.000 A 
ATOM      4  C   UNL     1      46.616   5.987  12.974  0.00  0.00    +0.000 A 
ATOM      5  N   UNL     1      46.923   5.813  14.272  0.00  0.00    +0.000 NA
ATOM      6  C   UNL     1      48.123   6.224  14.701  0.00  0.00    +0.000 A 
ATOM      7  N   UNL     1      48.487   6.076  16.037  0.00  0.00    +0.000 N 
ATOM      8  N   UNL     1      49.030   6.816  13.917  0.00  0.00    +0.000 NA
ATOM      9  H   UNL     1      49.495   6.205  16.056  0.00  0.00    +0.000 HD
ENDROOT
BRANCH   7  10
ATOM     10  C   UNL     1      48.022   4.860  16.709  0.00  0.00    +0.000 C 
ATOM     11  C   UNL     1      49.164   3.900  17.015  0.00  0.00    +0.000 C 
ATOM     12  O   UNL     1      49.791   4.391  18.213  0.00  0.00    +0.000 OA
ATOM     13  C   UNL     1      48.791   5.074  18.998  0.00  0.00    +0.000 C 
ATOM     14  C   UNL     1      49.347   6.442  19.396  0.00  0.00    +0.000 C 
ATOM     15  C   UNL     1      48.537   4.253  20.266  0.00  0.00    +0.000 C 
ATOM     16  C   UNL     1      47.540   5.191  18.117  0.00  0.00    +0.000 C 
ENDBRANCH   7  10
BRANCH   4  17
ATOM     17  N   UNL     1      45.390   5.510  12.467  0.00  0.00    +0.000 N 
ATOM     18  H   UNL     1      45.342   4.499  12.530  0.00  0.00    +0.000 HD
BRANCH  17  19
ATOM     19  C   UNL     1      45.134   5.938  11.093  0.00  0.00    +0.000 C 
BRANCH  19  20
ATOM     20  C   UNL     1      45.070   4.721  10.194  0.00  0.00    +0.000 A 
ATOM     21  C   UNL     1      44.373   3.567  10.572  0.00  0.00    +0.000 A 
ATOM     22  C   UNL     1      44.363   2.443   9.744  0.00  0.00    +0.000 A 
ATOM     23  C   UNL     1      45.042   2.463   8.524  0.00  0.00    +0.000 A 
ATOM     24  C   UNL     1      45.729   3.613   8.115  0.00  0.00    +0.000 A 
ATOM     25  C   UNL     1      45.748   4.729   8.964  0.00  0.00    +0.000 A 
BRANCH  24  26
ATOM     26  C   UNL     1      46.459   3.650   6.802  0.00  0.00    +0.000 C 
ATOM     27 CL   UNL     1      47.629   2.321   6.694  0.00  0.00    +0.000 Cl
ENDBRANCH  24  26
ENDBRANCH  19  20
ENDBRANCH  17  19
ENDBRANCH   4  17
TORSDOF 5
ENDMDL
MODEL 2
REMARK VINA RESULT:    -7.005      2.350      4.542
REMARK INTER + INTRA:          -9.799
REMARK INTER:                  -8.973
REMARK INTRA:                  -0.825
REMARK UNBOUND:                -0.746
REMARK  Name = 
REMARK  8 active torsions:
REMARK  status: ('A' for Active; 'I' for Inactive)
REMARK    1  A    between atoms: C_1  and  C_2
REMARK    2  A    between atoms: C_4  and  N_5
REMARK    3  A    between atoms: N_5  and  C_6
REMARK    4  A    between atoms: C_6  and  C_7
REMARK    5  A    between atoms: C_11  and  C_12
REMARK    6  A    between atoms: N_17  and  C_18
REMARK    7  A    between atoms: C_21  and  C_22
REMARK    8  A    between atoms: C_21  and  C_23
REMARK                            x       y       z     vdW  Elec       q    Type
REMARK                         _______ _______ _______ _____ _____    ______ ____
ROOT
ATOM      1  C   UNL     1      47.349   3.918  15.904  0.00  0.00    +0.000 C 
ATOM      2  C   UNL     1      47.104   4.734  14.669  0.00  0.00    +0.000 A 
ATOM      3  C   UNL     1      45.903   4.653  14.000  0.00  0.00    +0.000 A 
ATOM      4  C   UNL     1      45.804   5.347  12.811  0.00  0.00    +0.000 A 
ATOM      5  N   UNL     1      46.809   6.125  12.369  0.00  0.00    +0.000 NA
ATOM      6  C   UNL     1      47.933   6.185  13.095  0.00  0.00    +0.000 A 
ATOM      7  N   UNL     1      49.005   6.968  12.677  0.00  0.00    +0.000 N 
ATOM      8  N   UNL     1      48.124   5.500  14.227  0.00  0.00    +0.000 NA
ATOM      9  H   UNL     1      49.604   7.060  13.493  0.00  0.00    +0.000 HD
ENDROOT
BRANCH   7  10
ATOM     10  C   UNL     1      48.671   8.239  12.029  0.00  0.00    +0.000 C 
ATOM     11  C   UNL     1      48.272   9.310  13.035  0.00  0.00    +0.000 C 
ATOM     12  O   UNL     1      49.499   9.838  13.568  0.00  0.00    +0.000 OA
ATOM     13  C   UNL     1      50.519   9.717  12.555  0.00  0.00    +0.000 C 
ATOM     14  C   UNL     1      51.747   9.061  13.188  0.00  0.00    +0.000 C 
ATOM     15  C   UNL     1      50.896  11.126  12.085  0.00  0.00    +0.000 C 
ATOM     16  C   UNL     1      49.924   8.865  11.426  0.00  0.00    +0.000 C 
ENDBRANCH   7  10
BRANCH   4  17
ATOM     17  N   UNL     1      44.581   5.306  12.113  0.00  0.00    +0.000 N 
ATOM     18  H   UNL     1      44.153   4.389  12.187  0.00  0.00    +0.000 HD
BRANCH  17  19
ATOM     19  C   UNL     1      44.711   5.685  10.708  0.00  0.00    +0.000 C 
BRANCH  19  20
ATOM     20  C   UNL     1      44.915   4.440   9.870  0.00  0.00    +0.000 A 
ATOM     21  C   UNL     1      44.401   3.199  10.266  0.00  0.00    +0.000 A 
ATOM     22  C   UNL     1      44.638   2.057   9.497  0.00  0.00    +0.000 A 
ATOM     23  C   UNL     1      45.382   2.145   8.320  0.00  0.00    +0.000 A 
ATOM     24  C   UNL     1      45.889   3.379   7.893  0.00  0.00    +0.000 A 
ATOM     25  C   UNL     1      45.662   4.516   8.683  0.00  0.00    +0.000 A 
BRANCH  24  26
ATOM     26  C   UNL     1      46.687   3.489   6.624  0.00  0.00    +0.000 C 
ATOM     27 CL   UNL     1      48.102   2.420   6.675  0.00  0.00    +0.000 Cl
ENDBRANCH  24  26
ENDBRANCH  19  20
ENDBRANCH  17  19
ENDBRANCH   4  17
TORSDOF 5
ENDMDL
MODEL 3
REMARK VINA RESULT:    -6.953      2.171      3.011
REMARK INTER + INTRA:          -9.732
REMARK INTER:                  -8.978
REMARK INTRA:                  -0.754
REMARK UNBOUND:                -0.746
REMARK  Name = 
REMARK  8 active torsions:
REMARK  status: ('A' for Active; 'I' for Inactive)
REMARK    1  A    between atoms: C_1  and  C_2
REMARK    2  A    between atoms: C_4  and  N_5
REMARK    3  A    between atoms: N_5  and  C_6
REMARK    4  A    between atoms: C_6  and  C_7
REMARK    5  A    between atoms: C_11  and  C_12
REMARK    6  A    between atoms: N_17  and  C_18
REMARK    7  A    between atoms: C_21  and  C_22
REMARK    8  A    between atoms: C_21  and  C_23
REMARK                            x       y       z     vdW  Elec       q    Type
REMARK                         _______ _______ _______ _____ _____    ______ ____
ROOT
ATOM      1  C   UNL     1      44.120   9.702  11.047  0.00  0.00    +0.000 C 
ATOM      2  C   UNL     1      44.777   8.502  11.662  0.00  0.00    +0.000 A 
ATOM      3  C   UNL     1      44.322   7.232  11.385  0.00  0.00    +0.000 A 
ATOM      4  C   UNL     1      44.907   6.195  12.082  0.00  0.00    +0.000 A 
ATOM      5  N   UNL     1      45.926   6.410  12.933  0.00  0.00    +0.000 NA
ATOM      6  C   UNL     1      46.342   7.669  13.121  0.00  0.00    +0.000 A 
ATOM      7  N   UNL     1      47.386   7.948  13.998  0.00  0.00    +0.000 N 
ATOM      8  N   UNL     1      45.789   8.731  12.525  0.00  0.00    +0.000 NA
ATOM      9  H   UNL     1      47.682   8.893  13.771  0.00  0.00    +0.000 HD
ENDROOT
BRANCH   7  10
ATOM     10  C   UNL     1      48.476   6.970  14.045  0.00  0.00    +0.000 C 
ATOM     11  C   UNL     1      49.846   7.634  14.005  0.00  0.00    +0.000 C 
ATOM     12  O   UNL     1      50.114   8.084  15.345  0.00  0.00    +0.000 OA
ATOM     13  C   UNL     1      49.432   7.202  16.261  0.00  0.00    +0.000 C 
ATOM     14  C   UNL     1      48.640   8.059  17.250  0.00  0.00    +0.000 C 
ATOM     15  C   UNL     1      50.489   6.404  17.031  0.00  0.00    +0.000 C 
ATOM     16  C   UNL     1      48.522   6.302  15.415  0.00  0.00    +0.000 C 
ENDBRANCH   7  10
BRANCH   4  17
ATOM     17  N   UNL     1      44.482   4.880  11.805  0.00  0.00    +0.000 N 
ATOM     18  H   UNL     1      45.265   4.236  11.818  0.00  0.00    +0.000 HD
BRANCH  17  19
ATOM     19  C   UNL     1      43.763   4.766  10.538  0.00  0.00    +0.000 C 
BRANCH  19  20
ATOM     20  C   UNL     1      44.493   3.795   9.634  0.00  0.00    +0.000 A 
ATOM     21  C   UNL     1      44.374   2.409   9.799  0.00  0.00    +0.000 A 
ATOM     22  C   UNL     1      45.090   1.535   8.978  0.00  0.00    +0.000 A 
ATOM     23  C   UNL     1      45.926   2.035   7.978  0.00  0.00    +0.000 A 
ATOM     24  C   UNL     1      46.045   3.417   7.782  0.00  0.00    +0.000 A 
ATOM     25  C   UNL     1      45.336   4.286   8.624  0.00  0.00    +0.000 A 
BRANCH  24  26
ATOM     26  C   UNL     1      46.937   3.969   6.705  0.00  0.00    +0.000 C 
ATOM     27 CL   UNL     1      47.032   2.851   5.331  0.00  0.00    +0.000 Cl
ENDBRANCH  24  26
ENDBRANCH  19  20
ENDBRANCH  17  19
ENDBRANCH   4  17
TORSDOF 5
ENDMDL
MODEL 4
REMARK VINA RESULT:    -6.515      4.351      9.083
REMARK INTER + INTRA:          -9.166
REMARK INTER:                  -8.452
REMARK INTRA:                  -0.713
REMARK UNBOUND:                -0.746
REMARK  Name = 
REMARK  8 active torsions:
REMARK  status: ('A' for Active; 'I' for Inactive)
REMARK    1  A    between atoms: C_1  and  C_2
REMARK    2  A    between atoms: C_4  and  N_5
REMARK    3  A    between atoms: N_5  and  C_6
REMARK    4  A    between atoms: C_6  and  C_7
REMARK    5  A    between atoms: C_11  and  C_12
REMARK    6  A    between atoms: N_17  and  C_18
REMARK    7  A    between atoms: C_21  and  C_22
REMARK    8  A    between atoms: C_21  and  C_23
REMARK                            x       y       z     vdW  Elec       q    Type
REMARK                         _______ _______ _______ _____ _____    ______ ____
ROOT
ATOM      1  C   UNL     1      49.891   1.963  16.790  0.00  0.00    +0.000 C 
ATOM      2  C   UNL     1      48.742   2.915  16.633  0.00  0.00    +0.000 A 
ATOM      3  C   UNL     1      48.319   3.687  17.693  0.00  0.00    +0.000 A 
ATOM      4  C   UNL     1      47.185   4.447  17.496  0.00  0.00    +0.000 A 
ATOM      5  N   UNL     1      46.568   4.488  16.301  0.00  0.00    +0.000 NA
ATOM      6  C   UNL     1      47.061   3.740  15.306  0.00  0.00    +0.000 A 
ATOM      7  N   UNL     1      46.455   3.739  14.052  0.00  0.00    +0.000 N 
ATOM      8  N   UNL     1      48.122   2.937  15.435  0.00  0.00    +0.000 NA
ATOM      9  H   UNL     1      47.140   3.328  13.424  0.00  0.00    +0.000 HD
ENDROOT
BRANCH   7  10
ATOM     10  C   UNL     1      45.905   5.017  13.593  0.00  0.00    +0.000 C 
ATOM     11  C   UNL     1      46.329   5.345  12.167  0.00  0.00    +0.000 C 
ATOM     12  O   UNL     1      45.456   4.594  11.305  0.00  0.00    +0.000 OA
ATOM     13  C   UNL     1      44.193   4.422  11.982  0.00  0.00    +0.000 C 
ATOM     14  C   UNL     1      43.814   2.942  11.919  0.00  0.00    +0.000 C 
ATOM     15  C   UNL     1      43.135   5.239  11.234  0.00  0.00    +0.000 C 
ATOM     16  C   UNL     1      44.395   4.908  13.424  0.00  0.00    +0.000 C 
ENDBRANCH   7  10
BRANCH   4  17
ATOM     17  N   UNL     1      46.739   5.268  18.551  0.00  0.00    +0.000 N 
ATOM     18  H   UNL     1      46.309   6.114  18.194  0.00  0.00    +0.000 HD
BRANCH  17  19
ATOM     19  C   UNL     1      47.798   5.608  19.499  0.00  0.00    +0.000 C 
BRANCH  19  20
ATOM     20  C   UNL     1      47.684   7.070  19.874  0.00  0.00    +0.000 A 
ATOM     21  C   UNL     1      47.482   7.473  21.200  0.00  0.00    +0.000 A 
ATOM     22  C   UNL     1      47.339   8.826  21.514  0.00  0.00    +0.000 A 
ATOM     23  C   UNL     1      47.406   9.792  20.509  0.00  0.00    +0.000 A 
ATOM     24  C   UNL     1      47.627   9.414  19.178  0.00  0.00    +0.000 A 
ATOM     25  C   UNL     1      47.751   8.052  18.871  0.00  0.00    +0.000 A 
BRANCH  24  26
ATOM     26  C   UNL     1      47.707  10.445  18.087  0.00  0.00    +0.000 C 
ATOM     27 CL   UNL     1      46.979  11.975  18.611  0.00  0.00    +0.000 Cl
ENDBRANCH  24  26
ENDBRANCH  19  20
ENDBRANCH  17  19
ENDBRANCH   4  17
TORSDOF 5
ENDMDL
MODEL 5
REMARK VINA RESULT:    -6.440      3.420      7.427
REMARK INTER + INTRA:          -9.068
REMARK INTER:                  -8.285
REMARK INTRA:                  -0.783
REMARK UNBOUND:                -0.746
REMARK  Name = 
REMARK  8 active torsions:
REMARK  status: ('A' for Active; 'I' for Inactive)
REMARK    1  A    between atoms: C_1  and  C_2
REMARK    2  A    between atoms: C_4  and  N_5
REMARK    3  A    between atoms: N_5  and  C_6
REMARK    4  A    between atoms: C_6  and  C_7
REMARK    5  A    between atoms: C_11  and  C_12
REMARK    6  A    between atoms: N_17  and  C_18
REMARK    7  A    between atoms: C_21  and  C_22
REMARK    8  A    between atoms: C_21  and  C_23
REMARK                            x       y       z     vdW  Elec       q    Type
REMARK                         _______ _______ _______ _____ _____    ______ ____
ROOT
ATOM      1  C   UNL     1      49.137   9.908  11.436  0.00  0.00    +0.000 C 
ATOM      2  C   UNL     1      48.812   8.707  12.274  0.00  0.00    +0.000 A 
ATOM      3  C   UNL     1      49.479   8.474  13.457  0.00  0.00    +0.000 A 
ATOM      4  C   UNL     1      49.202   7.288  14.104  0.00  0.00    +0.000 A 
ATOM      5  N   UNL     1      48.268   6.438  13.640  0.00  0.00    +0.000 NA
ATOM      6  C   UNL     1      47.631   6.752  12.505  0.00  0.00    +0.000 A 
ATOM      7  N   UNL     1      46.663   5.903  11.976  0.00  0.00    +0.000 N 
ATOM      8  N   UNL     1      47.884   7.855  11.792  0.00  0.00    +0.000 NA
ATOM      9  H   UNL     1      46.158   6.464  11.296  0.00  0.00    +0.000 HD
ENDROOT
BRANCH   7  10
ATOM     10  C   UNL     1      45.806   5.211  12.943  0.00  0.00    +0.000 C 
ATOM     11  C   UNL     1      44.374   5.728  12.915  0.00  0.00    +0.000 C 
ATOM     12  O   UNL     1      43.736   5.082  11.799  0.00  0.00    +0.000 OA
ATOM     13  C   UNL     1      44.363   3.798  11.602  0.00  0.00    +0.000 C 
ATOM     14  C   UNL     1      44.733   3.667  10.124  0.00  0.00    +0.000 C 
ATOM     15  C   UNL     1      43.344   2.709  11.957  0.00  0.00    +0.000 C 
ATOM     16  C   UNL     1      45.597   3.763  12.514  0.00  0.00    +0.000 C 
ENDBRANCH   7  10
BRANCH   4  17
ATOM     17  N   UNL     1      49.849   7.028  15.329  0.00  0.00    +0.000 N 
ATOM     18  H   UNL     1      50.512   6.267  15.233  0.00  0.00    +0.000 HD
BRANCH  17  19
ATOM     19  C   UNL     1      48.917   6.746  16.420  0.00  0.00    +0.000 C 
BRANCH  19  20
ATOM     20  C   UNL     1      49.043   5.291  16.821  0.00  0.00    +0.000 A 
ATOM     21  C   UNL     1      47.927   4.446  16.867  0.00  0.00    +0.000 A 
ATOM     22  C   UNL     1      48.063   3.118  17.280  0.00  0.00    +0.000 A 
ATOM     23  C   UNL     1      49.315   2.619  17.642  0.00  0.00    +0.000 A 
ATOM     24  C   UNL     1      50.448   3.441  17.584  0.00  0.00    +0.000 A 
ATOM     25  C   UNL     1      50.297   4.777  17.186  0.00  0.00    +0.000 A 
BRANCH  24  26
ATOM     26  C   UNL     1      51.803   2.914  17.966  0.00  0.00    +0.000 C 
ATOM     27 CL   UNL     1      51.975   1.214  17.490  0.00  0.00    +0.000 Cl
ENDBRANCH  24  26
ENDBRANCH  19  20
ENDBRANCH  17  19
ENDBRANCH   4  17
TORSDOF 5
ENDMDL
MODEL 6
REMARK VINA RESULT:    -6.168      2.570      4.626
REMARK INTER + INTRA:          -8.717
REMARK INTER:                  -8.067
REMARK INTRA:                  -0.650
REMARK UNBOUND:                -0.746
REMARK  Name = 
REMARK  8 active torsions:
REMARK  status: ('A' for Active; 'I' for Inactive)
REMARK    1  A    between atoms: C_1  and  C_2
REMARK    2  A    between atoms: C_4  and  N_5
REMARK    3  A    between atoms: N_5  and  C_6
REMARK    4  A    between atoms: C_6  and  C_7
REMARK    5  A    between atoms: C_11  and  C_12
REMARK    6  A    between atoms: N_17  and  C_18
REMARK    7  A    between atoms: C_21  and  C_22
REMARK    8  A    between atoms: C_21  and  C_23
REMARK                            x       y       z     vdW  Elec       q    Type
REMARK                         _______ _______ _______ _____ _____    ______ ____
ROOT
ATOM      1  C   UNL     1      50.607   1.982  17.375  0.00  0.00    +0.000 C 
ATOM      2  C   UNL     1      49.514   3.006  17.455  0.00  0.00    +0.000 A 
ATOM      3  C   UNL     1      48.536   3.067  16.486  0.00  0.00    +0.000 A 
ATOM      4  C   UNL     1      47.638   4.111  16.573  0.00  0.00    +0.000 A 
ATOM      5  N   UNL     1      47.673   4.981  17.599  0.00  0.00    +0.000 NA
ATOM      6  C   UNL     1      48.629   4.834  18.525  0.00  0.00    +0.000 A 
ATOM      7  N   UNL     1      48.715   5.712  19.601  0.00  0.00    +0.000 N 
ATOM      8  N   UNL     1      49.567   3.882  18.480  0.00  0.00    +0.000 NA
ATOM      9  H   UNL     1      49.320   5.252  20.275  0.00  0.00    +0.000 HD
ENDROOT
BRANCH   7  10
ATOM     10  C   UNL     1      47.445   6.189  20.157  0.00  0.00    +0.000 C 
ATOM     11  C   UNL     1      47.361   5.975  21.662  0.00  0.00    +0.000 C 
ATOM     12  O   UNL     1      48.096   7.055  22.263  0.00  0.00    +0.000 OA
ATOM     13  C   UNL     1      48.014   8.199  21.387  0.00  0.00    +0.000 C 
ATOM     14  C   UNL     1      49.427   8.742  21.174  0.00  0.00    +0.000 C 
ATOM     15  C   UNL     1      47.169   9.273  22.081  0.00  0.00    +0.000 C 
ATOM     16  C   UNL     1      47.377   7.709  20.079  0.00  0.00    +0.000 C 
ENDBRANCH   7  10
BRANCH   4  17
ATOM     17  N   UNL     1      46.610   4.190  15.613  0.00  0.00    +0.000 N 
ATOM     18  H   UNL     1      45.762   3.751  15.954  0.00  0.00    +0.000 HD
BRANCH  17  19
ATOM     19  C   UNL     1      46.986   3.614  14.323  0.00  0.00    +0.000 C 
BRANCH  19  20
ATOM     20  C   UNL     1      46.487   4.511  13.210  0.00  0.00    +0.000 A 
ATOM     21  C   UNL     1      46.960   5.821  13.057  0.00  0.00    +0.000 A 
ATOM     22  C   UNL     1      46.454   6.642  12.047  0.00  0.00    +0.000 A 
ATOM     23  C   UNL     1      45.476   6.162  11.174  0.00  0.00    +0.000 A 
ATOM     24  C   UNL     1      45.002   4.849  11.296  0.00  0.00    +0.000 A 
ATOM     25  C   UNL     1      45.504   4.039  12.325  0.00  0.00    +0.000 A 
BRANCH  24  26
ATOM     26  C   UNL     1      43.954   4.317  10.359  0.00  0.00    +0.000 C 
ATOM     27 CL   UNL     1      44.351   2.668   9.841  0.00  0.00    +0.000 Cl
ENDBRANCH  24  26
ENDBRANCH  19  20
ENDBRANCH  17  19
ENDBRANCH   4  17
TORSDOF 5
ENDMDL
MODEL 7
REMARK VINA RESULT:    -6.100      3.428      5.490
REMARK INTER + INTRA:          -8.629
REMARK INTER:                  -7.931
REMARK INTRA:                  -0.698
REMARK UNBOUND:                -0.746
REMARK  Name = 
REMARK  8 active torsions:
REMARK  status: ('A' for Active; 'I' for Inactive)
REMARK    1  A    between atoms: C_1  and  C_2
REMARK    2  A    between atoms: C_4  and  N_5
REMARK    3  A    between atoms: N_5  and  C_6
REMARK    4  A    between atoms: C_6  and  C_7
REMARK    5  A    between atoms: C_11  and  C_12
REMARK    6  A    between atoms: N_17  and  C_18
REMARK    7  A    between atoms: C_21  and  C_22
REMARK    8  A    between atoms: C_21  and  C_23
REMARK                            x       y       z     vdW  Elec       q    Type
REMARK                         _______ _______ _______ _____ _____    ______ ____
ROOT
ATOM      1  C   UNL     1      44.218   3.149  11.334  0.00  0.00    +0.000 C 
ATOM      2  C   UNL     1      45.193   4.001  12.091  0.00  0.00    +0.000 A 
ATOM      3  C   UNL     1      45.564   5.239  11.614  0.00  0.00    +0.000 A 
ATOM      4  C   UNL     1      46.551   5.904  12.310  0.00  0.00    +0.000 A 
ATOM      5  N   UNL     1      47.071   5.400  13.444  0.00  0.00    +0.000 NA
ATOM      6  C   UNL     1      46.631   4.208  13.869  0.00  0.00    +0.000 A 
ATOM      7  N   UNL     1      47.141   3.636  15.031  0.00  0.00    +0.000 N 
ATOM      8  N   UNL     1      45.717   3.478  13.219  0.00  0.00    +0.000 NA
ATOM      9  H   UNL     1      46.486   2.900  15.277  0.00  0.00    +0.000 HD
ENDROOT
BRANCH   7  10
ATOM     10  C   UNL     1      47.454   4.557  16.127  0.00  0.00    +0.000 C 
ATOM     11  C   UNL     1      46.918   4.063  17.464  0.00  0.00    +0.000 C 
ATOM     12  O   UNL     1      47.860   3.086  17.938  0.00  0.00    +0.000 OA
ATOM     13  C   UNL     1      49.164   3.430  17.425  0.00  0.00    +0.000 C 
ATOM     14  C   UNL     1      49.775   2.180  16.791  0.00  0.00    +0.000 C 
ATOM     15  C   UNL     1      50.041   3.869  18.602  0.00  0.00    +0.000 C 
ATOM     16  C   UNL     1      48.954   4.554  16.402  0.00  0.00    +0.000 C 
ENDBRANCH   7  10
BRANCH   4  17
ATOM     17  N   UNL     1      46.938   7.184  11.863  0.00  0.00    +0.000 N 
ATOM     18  H   UNL     1      47.855   7.154  11.431  0.00  0.00    +0.000 HD
BRANCH  17  19
ATOM     19  C   UNL     1      46.917   8.190  12.923  0.00  0.00    +0.000 C 
BRANCH  19  20
ATOM     20  C   UNL     1      46.436   9.508  12.352  0.00  0.00    +0.000 A 
ATOM     21  C   UNL     1      47.316  10.576  12.137  0.00  0.00    +0.000 A 
ATOM     22  C   UNL     1      46.842  11.795  11.647  0.00  0.00    +0.000 A 
ATOM     23  C   UNL     1      45.485  11.957  11.359  0.00  0.00    +0.000 A 
ATOM     24  C   UNL     1      44.590  10.896  11.548  0.00  0.00    +0.000 A 
ATOM     25  C   UNL     1      45.075   9.683  12.058  0.00  0.00    +0.000 A 
BRANCH  24  26
ATOM     26  C   UNL     1      43.129  11.055  11.236  0.00  0.00    +0.000 C 
ATOM     27 CL   UNL     1      42.447   9.538  10.621  0.00  0.00    +0.000 Cl
ENDBRANCH  24  26
ENDBRANCH  19  20
ENDBRANCH  17  19
ENDBRANCH   4  17
TORSDOF 5
ENDMDL
MODEL 8
REMARK VINA RESULT:    -5.998      2.621      5.261
REMARK INTER + INTRA:          -8.497
REMARK INTER:                  -7.763
REMARK INTRA:                  -0.734
REMARK UNBOUND:                -0.746
REMARK  Name = 
REMARK  8 active torsions:
REMARK  status: ('A' for Active; 'I' for Inactive)
REMARK    1  A    between atoms: C_1  and  C_2
REMARK    2  A    between atoms: C_4  and  N_5
REMARK    3  A    between atoms: N_5  and  C_6
REMARK    4  A    between atoms: C_6  and  C_7
REMARK    5  A    between atoms: C_11  and  C_12
REMARK    6  A    between atoms: N_17  and  C_18
REMARK    7  A    between atoms: C_21  and  C_22
REMARK    8  A    between atoms: C_21  and  C_23
REMARK                            x       y       z     vdW  Elec       q    Type
REMARK                         _______ _______ _______ _____ _____    ______ ____
ROOT
ATOM      1  C   UNL     1      44.162   2.979  11.500  0.00  0.00    +0.000 C 
ATOM      2  C   UNL     1      45.141   3.881  12.191  0.00  0.00    +0.000 A 
ATOM      3  C   UNL     1      45.457   5.113  11.662  0.00  0.00    +0.000 A 
ATOM      4  C   UNL     1      46.451   5.828  12.296  0.00  0.00    +0.000 A 
ATOM      5  N   UNL     1      47.030   5.374  13.423  0.00  0.00    +0.000 NA
ATOM      6  C   UNL     1      46.643   4.184  13.901  0.00  0.00    +0.000 A 
ATOM      7  N   UNL     1      47.216   3.664  15.058  0.00  0.00    +0.000 N 
ATOM      8  N   UNL     1      45.725   3.410  13.312  0.00  0.00    +0.000 NA
ATOM      9  H   UNL     1      46.593   2.918  15.354  0.00  0.00    +0.000 HD
ENDROOT
BRANCH   7  10
ATOM     10  C   UNL     1      47.545   4.628  16.112  0.00  0.00    +0.000 C 
ATOM     11  C   UNL     1      46.999   4.203  17.469  0.00  0.00    +0.000 C 
ATOM     12  O   UNL     1      47.924   3.232  17.988  0.00  0.00    +0.000 OA
ATOM     13  C   UNL     1      49.234   3.529  17.461  0.00  0.00    +0.000 C 
ATOM     14  C   UNL     1      49.822   2.241  16.885  0.00  0.00    +0.000 C 
ATOM     15  C   UNL     1      50.118   4.005  18.618  0.00  0.00    +0.000 C 
ATOM     16  C   UNL     1      49.044   4.610  16.388  0.00  0.00    +0.000 C 
ENDBRANCH   7  10
BRANCH   4  17
ATOM     17  N   UNL     1      46.782   7.103  11.795  0.00  0.00    +0.000 N 
ATOM     18  H   UNL     1      47.375   7.027  10.976  0.00  0.00    +0.000 HD
BRANCH  17  19
ATOM     19  C   UNL     1      47.417   7.962  12.793  0.00  0.00    +0.000 C 
BRANCH  19  20
ATOM     20  C   UNL     1      48.584   8.689  12.157  0.00  0.00    +0.000 A 
ATOM     21  C   UNL     1      48.486  10.031  11.769  0.00  0.00    +0.000 A 
ATOM     22  C   UNL     1      49.563  10.667  11.148  0.00  0.00    +0.000 A 
ATOM     23  C   UNL     1      50.752   9.973  10.916  0.00  0.00    +0.000 A 
ATOM     24  C   UNL     1      50.879   8.635  11.314  0.00  0.00    +0.000 A 
ATOM     25  C   UNL     1      49.785   8.001  11.920  0.00  0.00    +0.000 A 
BRANCH  24  26
ATOM     26  C   UNL     1      52.154   7.877  11.076  0.00  0.00    +0.000 C 
ATOM     27 CL   UNL     1      52.220   7.261   9.414  0.00  0.00    +0.000 Cl
ENDBRANCH  24  26
ENDBRANCH  19  20
ENDBRANCH  17  19
ENDBRANCH   4  17
TORSDOF 5
ENDMDL
MODEL 9
REMARK VINA RESULT:    -5.886      1.494      2.159
REMARK INTER + INTRA:          -8.352
REMARK INTER:                  -7.702
REMARK INTRA:                  -0.650
REMARK UNBOUND:                -0.746
REMARK  Name = 
REMARK  8 active torsions:
REMARK  status: ('A' for Active; 'I' for Inactive)
REMARK    1  A    between atoms: C_1  and  C_2
REMARK    2  A    between atoms: C_4  and  N_5
REMARK    3  A    between atoms: N_5  and  C_6
REMARK    4  A    between atoms: C_6  and  C_7
REMARK    5  A    between atoms: C_11  and  C_12
REMARK    6  A    between atoms: N_17  and  C_18
REMARK    7  A    between atoms: C_21  and  C_22
REMARK    8  A    between atoms: C_21  and  C_23
REMARK                            x       y       z     vdW  Elec       q    Type
REMARK                         _______ _______ _______ _____ _____    ______ ____
ROOT
ATOM      1  C   UNL     1      51.386   8.960  12.752  0.00  0.00    +0.000 C 
ATOM      2  C   UNL     1      50.325   8.047  13.292  0.00  0.00    +0.000 A 
ATOM      3  C   UNL     1      49.352   7.533  12.463  0.00  0.00    +0.000 A 
ATOM      4  C   UNL     1      48.349   6.798  13.061  0.00  0.00    +0.000 A 
ATOM      5  N   UNL     1      48.366   6.534  14.380  0.00  0.00    +0.000 NA
ATOM      6  C   UNL     1      49.367   7.035  15.116  0.00  0.00    +0.000 A 
ATOM      7  N   UNL     1      49.426   6.799  16.487  0.00  0.00    +0.000 N 
ATOM      8  N   UNL     1      50.344   7.801  14.618  0.00  0.00    +0.000 NA
ATOM      9  H   UNL     1      50.375   7.040  16.759  0.00  0.00    +0.000 HD
ENDROOT
BRANCH   7  10
ATOM     10  C   UNL     1      48.985   5.478  16.941  0.00  0.00    +0.000 C 
ATOM     11  C   UNL     1      50.140   4.634  17.462  0.00  0.00    +0.000 C 
ATOM     12  O   UNL     1      50.387   5.078  18.808  0.00  0.00    +0.000 OA
ATOM     13  C   UNL     1      49.143   5.560  19.359  0.00  0.00    +0.000 C 
ATOM     14  C   UNL     1      49.393   6.939  19.970  0.00  0.00    +0.000 C 
ATOM     15  C   UNL     1      48.706   4.596  20.467  0.00  0.00    +0.000 C 
ATOM     16  C   UNL     1      48.137   5.613  18.200  0.00  0.00    +0.000 C 
ENDBRANCH   7  10
BRANCH   4  17
ATOM     17  N   UNL     1      47.351   6.237  12.240  0.00  0.00    +0.000 N 
ATOM     18  H   UNL     1      47.531   6.440  11.263  0.00  0.00    +0.000 HD
BRANCH  17  19
ATOM     19  C   UNL     1      46.002   6.671  12.600  0.00  0.00    +0.000 C 
BRANCH  19  20
ATOM     20  C   UNL     1      45.006   5.613  12.174  0.00  0.00    +0.000 A 
ATOM     21  C   UNL     1      43.791   5.439  12.848  0.00  0.00    +0.000 A 
ATOM     22  C   UNL     1      42.906   4.429  12.461  0.00  0.00    +0.000 A 
ATOM     23  C   UNL     1      43.222   3.590  11.392  0.00  0.00    +0.000 A 
ATOM     24  C   UNL     1      44.423   3.759  10.690  0.00  0.00    +0.000 A 
ATOM     25  C   UNL     1      45.312   4.763  11.099  0.00  0.00    +0.000 A 
BRANCH  24  26
ATOM     26  C   UNL     1      44.773   2.866   9.533  0.00  0.00    +0.000 C 
ATOM     27 CL   UNL     1      44.995   3.813   8.050  0.00  0.00    +0.000 Cl
ENDBRANCH  24  26
ENDBRANCH  19  20
ENDBRANCH  17  19
ENDBRANCH   4  17
TORSDOF 5
ENDMDL
