MODEL 1
REMARK VINA RESULT:    -7.324      0.000      0.000
REMARK INTER + INTRA:          -9.873
REMARK INTER:                  -9.036
REMARK INTRA:                  -0.836
REMARK UNBOUND:                -0.836
REMARK  Name = 
REMARK  4 active torsions:
REMARK  status: ('A' for Active; 'I' for Inactive)
REMARK    1  A    between atoms: C_7  and  N_8
REMARK    2  A    between atoms: N_8  and  C_9
REMARK    3  A    between atoms: C_9  and  C_10
REMARK    4  A    between atoms: C_14  and  C_15
REMARK                            x       y       z     vdW  Elec       q    Type
REMARK                         _______ _______ _______ _____ _____    ______ ____
ROOT
ATOM      1  C   UNL     1      44.007   4.739  11.280  0.00  0.00    +0.000 C 
ATOM      2  C   UNL     1      42.673   5.002  11.978  0.00  0.00    +0.000 C 
ATOM      3  C   UNL     1      43.228   6.013  11.032  0.00  0.00    +0.000 C 
ENDROOT
BRANCH   1   4
ATOM      4  C   UNL     1      45.279   4.809  12.120  0.00  0.00    +0.000 A 
ATOM      5  C   UNL     1      45.677   3.753  12.948  0.00  0.00    +0.000 A 
ATOM      6  C   UNL     1      46.864   3.848  13.656  0.00  0.00    +0.000 A 
ATOM      7  N   UNL     1      47.692   4.909  13.593  0.00  0.00    +0.000 NA
ATOM      8  C   UNL     1      47.324   5.944  12.788  0.00  0.00    +0.000 A 
ATOM      9  C   UNL     1      46.132   5.920  12.062  0.00  0.00    +0.000 A 
BRANCH   8  10
ATOM     10  C   UNL     1      48.231   7.161  12.654  0.00  0.00    +0.000 C 
ATOM     11  F   UNL     1      47.857   8.231  13.411  0.00  0.00    +0.000 F 
ATOM     12  F   UNL     1      49.523   6.892  13.013  0.00  0.00    +0.000 F 
ATOM     13  F   UNL     1      48.301   7.621  11.370  0.00  0.00    +0.000 F 
ENDBRANCH   8  10
ENDBRANCH   1   4
BRANCH   1  14
ATOM     14  N   UNL     1      43.981   3.599  10.346  0.00  0.00    +0.000 N 
ATOM     15  H   UNL     1      43.602   2.745  10.748  0.00  0.00    +0.000 HD
BRANCH  14  22
ATOM     16  F   UNL     1      45.491   5.567   8.787  0.00  0.00    +0.000 F 
ATOM     17  C   UNL     1      45.664   4.249   8.603  0.00  0.00    +0.000 A 
ATOM     18  C   UNL     1      46.569   3.860   7.614  0.00  0.00    +0.000 A 
ATOM     19  C   UNL     1      46.780   2.513   7.351  0.00  0.00    +0.000 A 
ATOM     20  C   UNL     1      46.081   1.553   8.075  0.00  0.00    +0.000 A 
ATOM     21  C   UNL     1      45.180   1.950   9.067  0.00  0.00    +0.000 A 
ATOM     22  C   UNL     1      44.970   3.309   9.375  0.00  0.00    +0.000 A 
ENDBRANCH  14  22
ENDBRANCH   1  14
TORSDOF 4
ENDMDL
MODEL 2
REMARK VINA RESULT:    -6.778      2.373      5.495
REMARK INTER + INTRA:          -9.199
REMARK INTER:                  -8.526
REMARK INTRA:                  -0.673
REMARK UNBOUND:                -0.836
REMARK  Name = 
REMARK  4 active torsions:
REMARK  status: ('A' for Active; 'I' for Inactive)
REMARK    1  A    between atoms: C_7  and  N_8
REMARK    2  A    between atoms: N_8  and  C_9
REMARK    3  A    between atoms: C_9  and  C_10
REMARK    4  A    between atoms: C_14  and  C_15
REMARK                            x       y       z     vdW  Elec       q    Type
REMARK                         _______ _______ _______ _____ _____    ______ ____
ROOT
ATOM      1  C   UNL     1      44.105   5.567  11.257  0.00  0.00    +0.000 C 
ATOM      2  C   UNL     1      42.621   5.895  11.413  0.00  0.00    +0.000 C 
ATOM      3  C   UNL     1      43.384   5.346  12.570  0.00  0.00    +0.000 C 
ENDROOT
BRANCH   1   4
ATOM      4  C   UNL     1      44.483   4.352  10.416  0.00  0.00    +0.000 A 
ATOM      5  C   UNL     1      43.919   3.091  10.642  0.00  0.00    +0.000 A 
ATOM      6  C   UNL     1      44.263   2.029   9.821  0.00  0.00    +0.000 A 
ATOM      7  N   UNL     1      45.115   2.129   8.782  0.00  0.00    +0.000 NA
ATOM      8  C   UNL     1      45.669   3.350   8.542  0.00  0.00    +0.000 A 
ATOM      9  C   UNL     1      45.380   4.457   9.343  0.00  0.00    +0.000 A 
BRANCH   8  10
ATOM     10  C   UNL     1      46.619   3.534   7.366  0.00  0.00    +0.000 C 
ATOM     11  F   UNL     1      46.021   3.471   6.141  0.00  0.00    +0.000 F 
ATOM     12  F   UNL     1      47.263   4.739   7.397  0.00  0.00    +0.000 F 
ATOM     13  F   UNL     1      47.610   2.594   7.342  0.00  0.00    +0.000 F 
ENDBRANCH   8  10
ENDBRANCH   1   4
BRANCH   1  14
ATOM     14  N   UNL     1      44.957   6.744  11.008  0.00  0.00    +0.000 N 
ATOM     15  H   UNL     1      45.217   6.866  10.032  0.00  0.00    +0.000 HD
BRANCH  14  22
ATOM     16  F   UNL     1      44.792   9.105  12.736  0.00  0.00    +0.000 F 
ATOM     17  C   UNL     1      45.911   8.367  12.666  0.00  0.00    +0.000 A 
ATOM     18  C   UNL     1      47.001   8.795  13.426  0.00  0.00    +0.000 A 
ATOM     19  C   UNL     1      48.200   8.095  13.385  0.00  0.00    +0.000 A 
ATOM     20  C   UNL     1      48.310   6.968  12.577  0.00  0.00    +0.000 A 
ATOM     21  C   UNL     1      47.213   6.543  11.822  0.00  0.00    +0.000 A 
ATOM     22  C   UNL     1      45.976   7.217  11.869  0.00  0.00    +0.000 A 
ENDBRANCH  14  22
ENDBRANCH   1  14
TORSDOF 4
ENDMDL
MODEL 3
REMARK VINA RESULT:    -6.617      3.069      6.124
REMARK INTER + INTRA:          -9.000
REMARK INTER:                  -8.099
REMARK INTRA:                  -0.901
REMARK UNBOUND:                -0.836
REMARK  Name = 
REMARK  4 active torsions:
REMARK  status: ('A' for Active; 'I' for Inactive)
REMARK    1  A    between atoms: C_7  and  N_8
REMARK    2  A    between atoms: N_8  and  C_9
REMARK    3  A    between atoms: C_9  and  C_10
REMARK    4  A    between atoms: C_14  and  C_15
REMARK                            x       y       z     vdW  Elec       q    Type
REMARK                         _______ _______ _______ _____ _____    ______ ____
ROOT
ATOM      1  C   UNL     1      45.897   7.074  12.215  0.00  0.00    +0.000 C 
ATOM      2  C   UNL     1      46.966   6.694  13.239  0.00  0.00    +0.000 C 
ATOM      3  C   UNL     1      47.371   7.199  11.895  0.00  0.00    +0.000 C 
ENDROOT
BRANCH   1   4
ATOM      4  C   UNL     1      45.098   5.950  11.564  0.00  0.00    +0.000 A 
ATOM      5  C   UNL     1      43.851   5.548  12.056  0.00  0.00    +0.000 A 
ATOM      6  C   UNL     1      43.145   4.551  11.402  0.00  0.00    +0.000 A 
ATOM      7  N   UNL     1      43.580   3.932  10.286  0.00  0.00    +0.000 NA
ATOM      8  C   UNL     1      44.789   4.315   9.789  0.00  0.00    +0.000 A 
ATOM      9  C   UNL     1      45.560   5.299  10.411  0.00  0.00    +0.000 A 
BRANCH   8  10
ATOM     10  C   UNL     1      45.324   3.672   8.515  0.00  0.00    +0.000 C 
ATOM     11  F   UNL     1      44.397   3.525   7.525  0.00  0.00    +0.000 F 
ATOM     12  F   UNL     1      46.346   4.388   7.958  0.00  0.00    +0.000 F 
ATOM     13  F   UNL     1      45.833   2.424   8.734  0.00  0.00    +0.000 F 
ENDBRANCH   8  10
ENDBRANCH   1   4
BRANCH   1  14
ATOM     14  N   UNL     1      45.071   8.230  12.612  0.00  0.00    +0.000 N 
ATOM     15  H   UNL     1      44.281   7.988  13.205  0.00  0.00    +0.000 HD
BRANCH  14  22
ATOM     16  F   UNL     1      42.802   8.448  10.771  0.00  0.00    +0.000 F 
ATOM     17  C   UNL     1      43.706   9.432  10.884  0.00  0.00    +0.000 A 
ATOM     18  C   UNL     1      43.536  10.548  10.062  0.00  0.00    +0.000 A 
ATOM     19  C   UNL     1      44.447  11.595  10.107  0.00  0.00    +0.000 A 
ATOM     20  C   UNL     1      45.534  11.524  10.973  0.00  0.00    +0.000 A 
ATOM     21  C   UNL     1      45.695  10.407  11.796  0.00  0.00    +0.000 A 
ATOM     22  C   UNL     1      44.769   9.344  11.792  0.00  0.00    +0.000 A 
ENDBRANCH  14  22
ENDBRANCH   1  14
TORSDOF 4
ENDMDL
MODEL 4
REMARK VINA RESULT:    -6.508      2.275      6.051
REMARK INTER + INTRA:          -8.866
REMARK INTER:                  -7.968
REMARK INTRA:                  -0.898
REMARK UNBOUND:                -0.836
REMARK  Name = 
REMARK  4 active torsions:
REMARK  status: ('A' for Active; 'I' for Inactive)
REMARK    1  A    between atoms: C_7  and  N_8
REMARK    2  A    between atoms: N_8  and  C_9
REMARK    3  A    between atoms: C_9  and  C_10
REMARK    4  A    between atoms: C_14  and  C_15
REMARK                            x       y       z     vdW  Elec       q    Type
REMARK                         _______ _______ _______ _____ _____    ______ ____
ROOT
ATOM      1  C   UNL     1      46.265   7.153  12.324  0.00  0.00    +0.000 C 
ATOM      2  C   UNL     1      46.494   8.571  11.802  0.00  0.00    +0.000 C 
ATOM      3  C   UNL     1      45.697   8.358  13.044  0.00  0.00    +0.000 C 
ENDROOT
BRANCH   1   4
ATOM      4  C   UNL     1      45.315   6.250  11.544  0.00  0.00    +0.000 A 
ATOM      5  C   UNL     1      43.946   6.193  11.832  0.00  0.00    +0.000 A 
ATOM      6  C   UNL     1      43.117   5.389  11.065  0.00  0.00    +0.000 A 
ATOM      7  N   UNL     1      43.545   4.649  10.024  0.00  0.00    +0.000 NA
ATOM      8  C   UNL     1      44.873   4.697   9.724  0.00  0.00    +0.000 A 
ATOM      9  C   UNL     1      45.765   5.471  10.469  0.00  0.00    +0.000 A 
BRANCH   8  10
ATOM     10  C   UNL     1      45.413   3.903   8.542  0.00  0.00    +0.000 C 
ATOM     11  F   UNL     1      46.496   4.464   7.932  0.00  0.00    +0.000 F 
ATOM     12  F   UNL     1      45.804   2.641   8.894  0.00  0.00    +0.000 F 
ATOM     13  F   UNL     1      44.482   3.732   7.557  0.00  0.00    +0.000 F 
ENDBRANCH   8  10
ENDBRANCH   1   4
BRANCH   1  14
ATOM     14  N   UNL     1      47.495   6.471  12.768  0.00  0.00    +0.000 N 
ATOM     15  H   UNL     1      47.947   5.922  12.041  0.00  0.00    +0.000 HD
BRANCH  14  22
ATOM     16  F   UNL     1      46.212   4.038  13.778  0.00  0.00    +0.000 F 
ATOM     17  C   UNL     1      47.056   4.752  14.540  0.00  0.00    +0.000 A 
ATOM     18  C   UNL     1      47.268   4.301  15.844  0.00  0.00    +0.000 A 
ATOM     19  C   UNL     1      48.109   5.002  16.698  0.00  0.00    +0.000 A 
ATOM     20  C   UNL     1      48.736   6.160  16.248  0.00  0.00    +0.000 A 
ATOM     21  C   UNL     1      48.523   6.602  14.940  0.00  0.00    +0.000 A 
ATOM     22  C   UNL     1      47.699   5.893  14.043  0.00  0.00    +0.000 A 
ENDBRANCH  14  22
ENDBRANCH   1  14
TORSDOF 4
ENDMDL
MODEL 5
REMARK VINA RESULT:    -6.263      2.387      3.073
REMARK INTER + INTRA:          -8.563
REMARK INTER:                  -8.456
REMARK INTRA:                  -0.107
REMARK UNBOUND:                -0.836
REMARK  Name = 
REMARK  4 active torsions:
REMARK  status: ('A' for Active; 'I' for Inactive)
REMARK    1  A    between atoms: C_7  and  N_8
REMARK    2  A    between atoms: N_8  and  C_9
REMARK    3  A    between atoms: C_9  and  C_10
REMARK    4  A    between atoms: C_14  and  C_15
REMARK                            x       y       z     vdW  Elec       q    Type
REMARK                         _______ _______ _______ _____ _____    ______ ____
ROOT
ATOM      1  C   UNL     1      44.203   4.895  11.507  0.00  0.00    +0.000 C 
ATOM      2  C   UNL     1      44.389   3.637  12.355  0.00  0.00    +0.000 C 
ATOM      3  C   UNL     1      43.228   4.538  12.609  0.00  0.00    +0.000 C 
ENDROOT
BRANCH   1   4
ATOM      4  C   UNL     1      45.167   6.056  11.730  0.00  0.00    +0.000 A 
ATOM      5  C   UNL     1      46.527   5.848  11.991  0.00  0.00    +0.000 A 
ATOM      6  C   UNL     1      47.370   6.937  12.142  0.00  0.00    +0.000 A 
ATOM      7  N   UNL     1      46.965   8.218  12.039  0.00  0.00    +0.000 NA
ATOM      8  C   UNL     1      45.647   8.440  11.779  0.00  0.00    +0.000 A 
ATOM      9  C   UNL     1      44.741   7.388  11.635  0.00  0.00    +0.000 A 
BRANCH   8  10
ATOM     10  C   UNL     1      45.134   9.866  11.625  0.00  0.00    +0.000 C 
ATOM     11  F   UNL     1      46.085  10.830  11.787  0.00  0.00    +0.000 F 
ATOM     12  F   UNL     1      44.588  10.095  10.393  0.00  0.00    +0.000 F 
ATOM     13  F   UNL     1      44.147  10.166  12.520  0.00  0.00    +0.000 F 
ENDBRANCH   8  10
ENDBRANCH   1   4
BRANCH   1  14
ATOM     14  N   UNL     1      43.925   4.624  10.085  0.00  0.00    +0.000 N 
ATOM     15  H   UNL     1      42.939   4.493   9.875  0.00  0.00    +0.000 HD
BRANCH  14  22
ATOM     16  F   UNL     1      43.942   1.699   9.910  0.00  0.00    +0.000 F 
ATOM     17  C   UNL     1      44.772   2.448   9.168  0.00  0.00    +0.000 A 
ATOM     18  C   UNL     1      45.665   1.770   8.336  0.00  0.00    +0.000 A 
ATOM     19  C   UNL     1      46.570   2.479   7.557  0.00  0.00    +0.000 A 
ATOM     20  C   UNL     1      46.586   3.869   7.615  0.00  0.00    +0.000 A 
ATOM     21  C   UNL     1      45.686   4.541   8.446  0.00  0.00    +0.000 A 
ATOM     22  C   UNL     1      44.737   3.847   9.223  0.00  0.00    +0.000 A 
ENDBRANCH  14  22
ENDBRANCH   1  14
TORSDOF 4
ENDMDL
MODEL 6
REMARK VINA RESULT:    -6.101      2.649      6.208
REMARK INTER + INTRA:          -8.363
REMARK INTER:                  -7.484
REMARK INTRA:                  -0.879
REMARK UNBOUND:                -0.836
REMARK  Name = 
REMARK  4 active torsions:
REMARK  status: ('A' for Active; 'I' for Inactive)
REMARK    1  A    between atoms: C_7  and  N_8
REMARK    2  A    between atoms: N_8  and  C_9
REMARK    3  A    between atoms: C_9  and  C_10
REMARK    4  A    between atoms: C_14  and  C_15
REMARK                            x       y       z     vdW  Elec       q    Type
REMARK                         _______ _______ _______ _____ _____    ______ ____
ROOT
ATOM      1  C   UNL     1      46.393   6.588  12.925  0.00  0.00    +0.000 C 
ATOM      2  C   UNL     1      47.320   5.886  13.917  0.00  0.00    +0.000 C 
ATOM      3  C   UNL     1      47.823   6.248  12.560  0.00  0.00    +0.000 C 
ENDROOT
BRANCH   1   4
ATOM      4  C   UNL     1      45.265   5.772  12.302  0.00  0.00    +0.000 A 
ATOM      5  C   UNL     1      43.994   5.701  12.886  0.00  0.00    +0.000 A 
ATOM      6  C   UNL     1      42.990   4.983  12.257  0.00  0.00    +0.000 A 
ATOM      7  N   UNL     1      43.150   4.341  11.082  0.00  0.00    +0.000 NA
ATOM      8  C   UNL     1      44.378   4.405  10.496  0.00  0.00    +0.000 A 
ATOM      9  C   UNL     1      45.438   5.095  11.087  0.00  0.00    +0.000 A 
BRANCH   8  10
ATOM     10  C   UNL     1      44.614   3.722   9.155  0.00  0.00    +0.000 C 
ATOM     11  F   UNL     1      43.972   4.307   8.103  0.00  0.00    +0.000 F 
ATOM     12  F   UNL     1      45.936   3.694   8.808  0.00  0.00    +0.000 F 
ATOM     13  F   UNL     1      44.212   2.417   9.154  0.00  0.00    +0.000 F 
ENDBRANCH   8  10
ENDBRANCH   1   4
BRANCH   1  14
ATOM     14  N   UNL     1      45.981   7.941  13.343  0.00  0.00    +0.000 N 
ATOM     15  H   UNL     1      45.165   7.954  13.949  0.00  0.00    +0.000 HD
BRANCH  14  22
ATOM     16  F   UNL     1      48.373   9.537  12.781  0.00  0.00    +0.000 F 
ATOM     17  C   UNL     1      47.171   9.886  12.298  0.00  0.00    +0.000 A 
ATOM     18  C   UNL     1      47.106  11.060  11.546  0.00  0.00    +0.000 A 
ATOM     19  C   UNL     1      45.891  11.497  11.034  0.00  0.00    +0.000 A 
ATOM     20  C   UNL     1      44.737  10.760  11.280  0.00  0.00    +0.000 A 
ATOM     21  C   UNL     1      44.810   9.583  12.030  0.00  0.00    +0.000 A 
ATOM     22  C   UNL     1      46.035   9.102  12.535  0.00  0.00    +0.000 A 
ENDBRANCH  14  22
ENDBRANCH   1  14
TORSDOF 4
ENDMDL
MODEL 7
REMARK VINA RESULT:    -6.088      1.890      2.682
REMARK INTER + INTRA:          -8.348
REMARK INTER:                  -7.649
REMARK INTRA:                  -0.699
REMARK UNBOUND:                -0.836
REMARK  Name = 
REMARK  4 active torsions:
REMARK  status: ('A' for Active; 'I' for Inactive)
REMARK    1  A    between atoms: C_7  and  N_8
REMARK    2  A    between atoms: N_8  and  C_9
REMARK    3  A    between atoms: C_9  and  C_10
REMARK    4  A    between atoms: C_14  and  C_15
REMARK                            x       y       z     vdW  Elec       q    Type
REMARK                         _______ _______ _______ _____ _____    ______ ____
ROOT
ATOM      1  C   UNL     1      44.061   5.452  11.904  0.00  0.00    +0.000 C 
ATOM      2  C   UNL     1      42.903   5.207  12.870  0.00  0.00    +0.000 C 
ATOM      3  C   UNL     1      42.637   5.811  11.533  0.00  0.00    +0.000 C 
ENDROOT
BRANCH   1   4
ATOM      4  C   UNL     1      45.039   6.576  12.231  0.00  0.00    +0.000 A 
ATOM      5  C   UNL     1      44.789   7.904  11.864  0.00  0.00    +0.000 A 
ATOM      6  C   UNL     1      45.688   8.895  12.224  0.00  0.00    +0.000 A 
ATOM      7  N   UNL     1      46.810   8.667  12.935  0.00  0.00    +0.000 NA
ATOM      8  C   UNL     1      47.066   7.382  13.307  0.00  0.00    +0.000 A 
ATOM      9  C   UNL     1      46.211   6.334  12.960  0.00  0.00    +0.000 A 
BRANCH   8  10
ATOM     10  C   UNL     1      48.305   7.065  14.136  0.00  0.00    +0.000 C 
ATOM     11  F   UNL     1      49.417   6.777  13.402  0.00  0.00    +0.000 F 
ATOM     12  F   UNL     1      48.664   8.098  14.956  0.00  0.00    +0.000 F 
ATOM     13  F   UNL     1      48.120   5.994  14.963  0.00  0.00    +0.000 F 
ENDBRANCH   8  10
ENDBRANCH   1   4
BRANCH   1  14
ATOM     14  N   UNL     1      44.717   4.220  11.429  0.00  0.00    +0.000 N 
ATOM     15  H   UNL     1      45.471   3.897  12.030  0.00  0.00    +0.000 HD
BRANCH  14  22
ATOM     16  F   UNL     1      43.999   1.708  10.102  0.00  0.00    +0.000 F 
ATOM     17  C   UNL     1      44.660   2.678   9.451  0.00  0.00    +0.000 A 
ATOM     18  C   UNL     1      45.019   2.422   8.127  0.00  0.00    +0.000 A 
ATOM     19  C   UNL     1      45.727   3.369   7.399  0.00  0.00    +0.000 A 
ATOM     20  C   UNL     1      46.081   4.573   7.999  0.00  0.00    +0.000 A 
ATOM     21  C   UNL     1      45.714   4.825   9.323  0.00  0.00    +0.000 A 
ATOM     22  C   UNL     1      44.969   3.893  10.075  0.00  0.00    +0.000 A 
ENDBRANCH  14  22
ENDBRANCH   1  14
TORSDOF 4
ENDMDL
MODEL 8
REMARK VINA RESULT:    -5.902      1.994      5.659
REMARK INTER + INTRA:          -8.118
REMARK INTER:                  -7.117
REMARK INTRA:                  -1.001
REMARK UNBOUND:                -0.836
REMARK  Name = 
REMARK  4 active torsions:
REMARK  status: ('A' for Active; 'I' for Inactive)
REMARK    1  A    between atoms: C_7  and  N_8
REMARK    2  A    between atoms: N_8  and  C_9
REMARK    3  A    between atoms: C_9  and  C_10
REMARK    4  A    between atoms: C_14  and  C_15
REMARK                            x       y       z     vdW  Elec       q    Type
REMARK                         _______ _______ _______ _____ _____    ______ ____
ROOT
ATOM      1  C   UNL     1      46.548   5.055  13.820  0.00  0.00    +0.000 C 
ATOM      2  C   UNL     1      46.377   4.069  14.975  0.00  0.00    +0.000 C 
ATOM      3  C   UNL     1      47.405   3.811  13.926  0.00  0.00    +0.000 C 
ENDROOT
BRANCH   1   4
ATOM      4  C   UNL     1      45.457   5.106  12.756  0.00  0.00    +0.000 A 
ATOM      5  C   UNL     1      44.201   5.669  13.010  0.00  0.00    +0.000 A 
ATOM      6  C   UNL     1      43.260   5.731  11.995  0.00  0.00    +0.000 A 
ATOM      7  N   UNL     1      43.478   5.286  10.742  0.00  0.00    +0.000 NA
ATOM      8  C   UNL     1      44.697   4.741  10.474  0.00  0.00    +0.000 A 
ATOM      9  C   UNL     1      45.683   4.631  11.456  0.00  0.00    +0.000 A 
BRANCH   8  10
ATOM     10  C   UNL     1      45.014   4.245   9.069  0.00  0.00    +0.000 C 
ATOM     11  F   UNL     1      45.995   4.945   8.431  0.00  0.00    +0.000 F 
ATOM     12  F   UNL     1      45.424   2.942   9.054  0.00  0.00    +0.000 F 
ATOM     13  F   UNL     1      43.928   4.292   8.241  0.00  0.00    +0.000 F 
ENDBRANCH   8  10
ENDBRANCH   1   4
BRANCH   1  14
ATOM     14  N   UNL     1      47.029   6.386  14.235  0.00  0.00    +0.000 N 
ATOM     15  H   UNL     1      46.476   6.812  14.974  0.00  0.00    +0.000 HD
BRANCH  14  22
ATOM     16  F   UNL     1      45.734   8.900  13.468  0.00  0.00    +0.000 F 
ATOM     17  C   UNL     1      46.933   8.553  12.975  0.00  0.00    +0.000 A 
ATOM     18  C   UNL     1      47.519   9.427  12.057  0.00  0.00    +0.000 A 
ATOM     19  C   UNL     1      48.748   9.121  11.487  0.00  0.00    +0.000 A 
ATOM     20  C   UNL     1      49.390   7.937  11.832  0.00  0.00    +0.000 A 
ATOM     21  C   UNL     1      48.801   7.070  12.756  0.00  0.00    +0.000 A 
ATOM     22  C   UNL     1      47.569   7.370  13.372  0.00  0.00    +0.000 A 
ENDBRANCH  14  22
ENDBRANCH   1  14
TORSDOF 4
ENDMDL
MODEL 9
REMARK VINA RESULT:    -5.695      3.441      5.119
REMARK INTER + INTRA:          -7.863
REMARK INTER:                  -7.407
REMARK INTRA:                  -0.456
REMARK UNBOUND:                -0.836
REMARK  Name = 
REMARK  4 active torsions:
REMARK  status: ('A' for Active; 'I' for Inactive)
REMARK    1  A    between atoms: C_7  and  N_8
REMARK    2  A    between atoms: N_8  and  C_9
REMARK    3  A    between atoms: C_9  and  C_10
REMARK    4  A    between atoms: C_14  and  C_15
REMARK                            x       y       z     vdW  Elec       q    Type
REMARK                         _______ _______ _______ _____ _____    ______ ____
ROOT
ATOM      1  C   UNL     1      47.145   6.398  13.635  0.00  0.00    +0.000 C 
ATOM      2  C   UNL     1      47.355   7.814  13.101  0.00  0.00    +0.000 C 
ATOM      3  C   UNL     1      47.877   6.647  12.333  0.00  0.00    +0.000 C 
ENDROOT
BRANCH   1   4
ATOM      4  C   UNL     1      47.950   5.968  14.857  0.00  0.00    +0.000 A 
ATOM      5  C   UNL     1      48.964   6.770  15.394  0.00  0.00    +0.000 A 
ATOM      6  C   UNL     1      49.636   6.355  16.532  0.00  0.00    +0.000 A 
ATOM      7  N   UNL     1      49.367   5.207  17.185  0.00  0.00    +0.000 NA
ATOM      8  C   UNL     1      48.379   4.416  16.681  0.00  0.00    +0.000 A 
ATOM      9  C   UNL     1      47.676   4.767  15.527  0.00  0.00    +0.000 A 
BRANCH   8  10
ATOM     10  C   UNL     1      48.009   3.119  17.390  0.00  0.00    +0.000 C 
ATOM     11  F   UNL     1      48.469   3.024  18.670  0.00  0.00    +0.000 F 
ATOM     12  F   UNL     1      46.657   2.935  17.471  0.00  0.00    +0.000 F 
ATOM     13  F   UNL     1      48.486   2.015  16.742  0.00  0.00    +0.000 F 
ENDBRANCH   8  10
ENDBRANCH   1   4
BRANCH   1  14
ATOM     14  N   UNL     1      45.732   5.978  13.683  0.00  0.00    +0.000 N 
ATOM     15  H   UNL     1      45.394   5.777  14.620  0.00  0.00    +0.000 HD
BRANCH  14  22
ATOM     16  F   UNL     1      46.362   3.178  13.091  0.00  0.00    +0.000 F 
ATOM     17  C   UNL     1      45.411   3.839  12.413  0.00  0.00    +0.000 A 
ATOM     18  C   UNL     1      44.760   3.144  11.392  0.00  0.00    +0.000 A 
ATOM     19  C   UNL     1      43.781   3.771  10.632  0.00  0.00    +0.000 A 
ATOM     20  C   UNL     1      43.457   5.099  10.889  0.00  0.00    +0.000 A 
ATOM     21  C   UNL     1      44.109   5.788  11.916  0.00  0.00    +0.000 A 
ATOM     22  C   UNL     1      45.084   5.166  12.722  0.00  0.00    +0.000 A 
ENDBRANCH  14  22
ENDBRANCH   1  14
TORSDOF 4
ENDMDL
