MODEL 1
REMARK VINA RESULT:    -8.492      0.000      0.000
REMARK INTER + INTRA:         -14.230
REMARK INTER:                 -12.960
REMARK INTRA:                  -1.270
REMARK UNBOUND:                -1.270
REMARK  Name = 
REMARK  9 active torsions:
REMARK  status: ('A' for Active; 'I' for Inactive)
REMARK    1  A    between atoms: C_2  and  C_3
REMARK    2  A    between atoms: C_3  and  C_4
REMARK    3  A    between atoms: C_4  and  N_5
REMARK    4  A    between atoms: C_4  and  C_13
REMARK    5  A    between atoms: N_5  and  C_6
REMARK    6  A    between atoms: C_6  and  C_7
REMARK    7  A    between atoms: C_16  and  C_17
REMARK    8  A    between atoms: C_17  and  N_18
REMARK    9  A    between atoms: C_19  and  C_21
REMARK                            x       y       z     vdW  Elec       q    Type
REMARK                         _______ _______ _______ _____ _____    ______ ____
ROOT
ATOM      1  C   UNL     1      45.462   4.844  11.613  0.00  0.00    +0.000 A 
ATOM      2  C   UNL     1      45.929   4.500  12.891  0.00  0.00    +0.000 A 
ATOM      3  C   UNL     1      46.873   5.302  13.542  0.00  0.00    +0.000 A 
ATOM      4  C   UNL     1      47.363   6.464  12.932  0.00  0.00    +0.000 A 
ATOM      5  C   UNL     1      46.938   6.782  11.642  0.00  0.00    +0.000 A 
ATOM      6  C   UNL     1      45.983   5.998  11.002  0.00  0.00    +0.000 A 
ENDROOT
BRANCH   1   7
ATOM      7  C   UNL     1      44.452   3.941  10.906  0.00  0.00    +0.000 C 
BRANCH   7   8
ATOM      8  N   UNL     1      45.063   2.630  10.623  0.00  0.00    +0.000 NA
ATOM      9  H   UNL     1      46.077   2.748  10.598  0.00  0.00    +0.000 HD
BRANCH   8  10
ATOM     10  C   UNL     1      44.646   2.053   9.343  0.00  0.00    +0.000 C 
BRANCH  10  11
ATOM     11  C   UNL     1      45.695   2.238   8.270  0.00  0.00    +0.000 A 
ATOM     12  C   UNL     1      46.552   1.182   7.926  0.00  0.00    +0.000 A 
ATOM     13  C   UNL     1      47.474   1.324   6.888  0.00  0.00    +0.000 A 
ATOM     14  C   UNL     1      47.546   2.520   6.178  0.00  0.00    +0.000 A 
ATOM     15  C   UNL     1      46.702   3.578   6.511  0.00  0.00    +0.000 A 
ATOM     16  C   UNL     1      45.781   3.439   7.552  0.00  0.00    +0.000 A 
ENDBRANCH  10  11
ENDBRANCH   8  10
ENDBRANCH   7   8
BRANCH   7  17
ATOM     17  C   UNL     1      43.160   3.838  11.728  0.00  0.00    +0.000 C 
BRANCH  17  19
ATOM     18  N   UNL     1      41.951   6.338  11.864  0.00  0.00    +0.000 NA
ATOM     19  C   UNL     1      42.499   5.205  11.803  0.00  0.00    +0.000 C 
ENDBRANCH  17  19
ENDBRANCH   7  17
ENDBRANCH   1   7
BRANCH   4  20
ATOM     20  C   UNL     1      48.333   7.374  13.633  0.00  0.00    +0.000 C 
BRANCH  20  21
ATOM     21  N   UNL     1      48.142   7.361  15.058  0.00  0.00    +0.000 N 
ATOM     22  C   UNL     1      49.154   6.939  15.880  0.00  0.00    +0.000 C 
ATOM     23  O   UNL     1      50.252   6.604  15.442  0.00  0.00    +0.000 OA
ATOM     24  H   UNL     1      47.187   7.376  15.405  0.00  0.00    +0.000 HD
BRANCH  22  25
ATOM     25  C   UNL     1      48.883   6.967  17.319  0.00  0.00    +0.000 A 
ATOM     26  C   UNL     1      48.603   8.180  17.936  0.00  0.00    +0.000 A 
ATOM     27  S   UNL     1      48.292   8.039  19.607  0.00  0.00    +0.000 S 
ATOM     28  C   UNL     1      48.563   6.358  19.570  0.00  0.00    +0.000 A 
ATOM     29  N   UNL     1      48.495   5.618  20.705  0.00  0.00    +0.000 NA
ATOM     30  C   UNL     1      48.743   4.359  20.538  0.00  0.00    +0.000 A 
ATOM     31  N   UNL     1      49.044   3.778  19.334  0.00  0.00    +0.000 N 
ATOM     32  C   UNL     1      49.113   4.486  18.155  0.00  0.00    +0.000 A 
ATOM     33  O   UNL     1      49.350   3.938  17.087  0.00  0.00    +0.000 OA
ATOM     34  C   UNL     1      48.854   5.907  18.298  0.00  0.00    +0.000 A 
ATOM     35  H   UNL     1      49.211   2.784  19.265  0.00  0.00    +0.000 HD
ENDBRANCH  22  25
ENDBRANCH  20  21
ENDBRANCH   4  20
TORSDOF 9
ENDMDL
MODEL 2
REMARK VINA RESULT:    -8.355      1.517      1.972
REMARK INTER + INTRA:         -14.021
REMARK INTER:                 -12.463
REMARK INTRA:                  -1.557
REMARK UNBOUND:                -1.270
REMARK  Name = 
REMARK  9 active torsions:
REMARK  status: ('A' for Active; 'I' for Inactive)
REMARK    1  A    between atoms: C_2  and  C_3
REMARK    2  A    between atoms: C_3  and  C_4
REMARK    3  A    between atoms: C_4  and  N_5
REMARK    4  A    between atoms: C_4  and  C_13
REMARK    5  A    between atoms: N_5  and  C_6
REMARK    6  A    between atoms: C_6  and  C_7
REMARK    7  A    between atoms: C_16  and  C_17
REMARK    8  A    between atoms: C_17  and  N_18
REMARK    9  A    between atoms: C_19  and  C_21
REMARK                            x       y       z     vdW  Elec       q    Type
REMARK                         _______ _______ _______ _____ _____    ______ ____
ROOT
ATOM      1  C   UNL     1      45.041   6.213  11.428  0.00  0.00    +0.000 A 
ATOM      2  C   UNL     1      46.284   5.702  11.827  0.00  0.00    +0.000 A 
ATOM      3  C   UNL     1      47.170   6.487  12.573  0.00  0.00    +0.000 A 
ATOM      4  C   UNL     1      46.826   7.794  12.941  0.00  0.00    +0.000 A 
ATOM      5  C   UNL     1      45.611   8.323  12.505  0.00  0.00    +0.000 A 
ATOM      6  C   UNL     1      44.721   7.536  11.781  0.00  0.00    +0.000 A 
ENDROOT
BRANCH   1   7
ATOM      7  C   UNL     1      44.098   5.351  10.589  0.00  0.00    +0.000 C 
BRANCH   7   8
ATOM      8  N   UNL     1      44.849   4.243   9.972  0.00  0.00    +0.000 NA
ATOM      9  H   UNL     1      45.832   4.335  10.236  0.00  0.00    +0.000 HD
BRANCH   8  10
ATOM     10  C   UNL     1      44.777   4.230   8.509  0.00  0.00    +0.000 C 
BRANCH  10  11
ATOM     11  C   UNL     1      45.684   3.180   7.907  0.00  0.00    +0.000 A 
ATOM     12  C   UNL     1      46.574   3.518   6.876  0.00  0.00    +0.000 A 
ATOM     13  C   UNL     1      47.463   2.572   6.366  0.00  0.00    +0.000 A 
ATOM     14  C   UNL     1      47.479   1.279   6.884  0.00  0.00    +0.000 A 
ATOM     15  C   UNL     1      46.599   0.929   7.906  0.00  0.00    +0.000 A 
ATOM     16  C   UNL     1      45.705   1.874   8.416  0.00  0.00    +0.000 A 
ENDBRANCH  10  11
ENDBRANCH   8  10
ENDBRANCH   7   8
BRANCH   7  17
ATOM     17  C   UNL     1      42.912   4.874  11.438  0.00  0.00    +0.000 C 
BRANCH  17  19
ATOM     18  N   UNL     1      43.510   2.397  12.551  0.00  0.00    +0.000 NA
ATOM     19  C   UNL     1      43.239   3.519  12.046  0.00  0.00    +0.000 C 
ENDBRANCH  17  19
ENDBRANCH   7  17
ENDBRANCH   1   7
BRANCH   4  20
ATOM     20  C   UNL     1      47.733   8.638  13.793  0.00  0.00    +0.000 C 
BRANCH  20  21
ATOM     21  N   UNL     1      48.063   7.986  15.030  0.00  0.00    +0.000 N 
ATOM     22  C   UNL     1      49.333   7.518  15.240  0.00  0.00    +0.000 C 
ATOM     23  O   UNL     1      50.228   7.672  14.414  0.00  0.00    +0.000 OA
ATOM     24  H   UNL     1      47.295   7.624  15.590  0.00  0.00    +0.000 HD
BRANCH  22  25
ATOM     25  C   UNL     1      49.589   6.876  16.532  0.00  0.00    +0.000 A 
ATOM     26  C   UNL     1      50.448   7.486  17.438  0.00  0.00    +0.000 A 
ATOM     27  S   UNL     1      50.624   6.623  18.898  0.00  0.00    +0.000 S 
ATOM     28  C   UNL     1      49.592   5.384  18.352  0.00  0.00    +0.000 A 
ATOM     29  N   UNL     1      49.344   4.295  19.123  0.00  0.00    +0.000 NA
ATOM     30  C   UNL     1      48.560   3.421  18.579  0.00  0.00    +0.000 A 
ATOM     31  N   UNL     1      47.997   3.548  17.337  0.00  0.00    +0.000 N 
ATOM     32  C   UNL     1      48.209   4.640  16.524  0.00  0.00    +0.000 A 
ATOM     33  O   UNL     1      47.667   4.745  15.432  0.00  0.00    +0.000 OA
ATOM     34  C   UNL     1      49.095   5.640  17.090  0.00  0.00    +0.000 A 
ATOM     35  H   UNL     1      47.377   2.839  16.973  0.00  0.00    +0.000 HD
ENDBRANCH  22  25
ENDBRANCH  20  21
ENDBRANCH   4  20
TORSDOF 9
ENDMDL
MODEL 3
REMARK VINA RESULT:    -7.743      1.566      2.383
REMARK INTER + INTRA:         -13.087
REMARK INTER:                 -12.210
REMARK INTRA:                  -0.877
REMARK UNBOUND:                -1.270
REMARK  Name = 
REMARK  9 active torsions:
REMARK  status: ('A' for Active; 'I' for Inactive)
REMARK    1  A    between atoms: C_2  and  C_3
REMARK    2  A    between atoms: C_3  and  C_4
REMARK    3  A    between atoms: C_4  and  N_5
REMARK    4  A    between atoms: C_4  and  C_13
REMARK    5  A    between atoms: N_5  and  C_6
REMARK    6  A    between atoms: C_6  and  C_7
REMARK    7  A    between atoms: C_16  and  C_17
REMARK    8  A    between atoms: C_17  and  N_18
REMARK    9  A    between atoms: C_19  and  C_21
REMARK                            x       y       z     vdW  Elec       q    Type
REMARK                         _______ _______ _______ _____ _____    ______ ____
ROOT
ATOM      1  C   UNL     1      45.993   5.779  11.675  0.00  0.00    +0.000 A 
ATOM      2  C   UNL     1      46.704   6.971  11.473  0.00  0.00    +0.000 A 
ATOM      3  C   UNL     1      47.680   7.381  12.389  0.00  0.00    +0.000 A 
ATOM      4  C   UNL     1      47.967   6.604  13.518  0.00  0.00    +0.000 A 
ATOM      5  C   UNL     1      47.227   5.444  13.749  0.00  0.00    +0.000 A 
ATOM      6  C   UNL     1      46.272   5.024  12.827  0.00  0.00    +0.000 A 
ENDROOT
BRANCH   1   7
ATOM      7  C   UNL     1      44.912   5.361  10.678  0.00  0.00    +0.000 C 
BRANCH   7   8
ATOM      8  N   UNL     1      45.510   5.156   9.347  0.00  0.00    +0.000 NA
ATOM      9  H   UNL     1      45.476   6.042   8.840  0.00  0.00    +0.000 HD
BRANCH   8  10
ATOM     10  C   UNL     1      44.814   4.150   8.541  0.00  0.00    +0.000 C 
BRANCH  10  11
ATOM     11  C   UNL     1      45.774   3.167   7.911  0.00  0.00    +0.000 A 
ATOM     12  C   UNL     1      45.874   1.857   8.404  0.00  0.00    +0.000 A 
ATOM     13  C   UNL     1      46.705   0.924   7.783  0.00  0.00    +0.000 A 
ATOM     14  C   UNL     1      47.441   1.287   6.657  0.00  0.00    +0.000 A 
ATOM     15  C   UNL     1      47.353   2.585   6.158  0.00  0.00    +0.000 A 
ATOM     16  C   UNL     1      46.524   3.521   6.781  0.00  0.00    +0.000 A 
ENDBRANCH  10  11
ENDBRANCH   8  10
ENDBRANCH   7   8
BRANCH   7  17
ATOM     17  C   UNL     1      44.156   4.129  11.195  0.00  0.00    +0.000 C 
BRANCH  17  19
ATOM     18  N   UNL     1      42.641   4.841  13.415  0.00  0.00    +0.000 NA
ATOM     19  C   UNL     1      43.328   4.518  12.409  0.00  0.00    +0.000 C 
ENDBRANCH  17  19
ENDBRANCH   7  17
ENDBRANCH   1   7
BRANCH   4  20
ATOM     20  C   UNL     1      49.050   6.991  14.487  0.00  0.00    +0.000 C 
BRANCH  20  21
ATOM     21  N   UNL     1      48.675   6.709  15.846  0.00  0.00    +0.000 N 
ATOM     22  C   UNL     1      49.587   6.158  16.708  0.00  0.00    +0.000 C 
ATOM     23  O   UNL     1      50.745   5.929  16.370  0.00  0.00    +0.000 OA
ATOM     24  H   UNL     1      47.683   6.644  16.056  0.00  0.00    +0.000 HD
BRANCH  22  25
ATOM     25  C   UNL     1      49.129   5.914  18.077  0.00  0.00    +0.000 A 
ATOM     26  C   UNL     1      49.239   4.638  18.615  0.00  0.00    +0.000 A 
ATOM     27  S   UNL     1      48.681   4.525  20.222  0.00  0.00    +0.000 S 
ATOM     28  C   UNL     1      48.232   6.168  20.239  0.00  0.00    +0.000 A 
ATOM     29  N   UNL     1      47.640   6.716  21.330  0.00  0.00    +0.000 NA
ATOM     30  C   UNL     1      47.333   7.966  21.200  0.00  0.00    +0.000 A 
ATOM     31  N   UNL     1      47.576   8.715  20.078  0.00  0.00    +0.000 N 
ATOM     32  C   UNL     1      48.184   8.206  18.952  0.00  0.00    +0.000 A 
ATOM     33  O   UNL     1      48.420   8.903  17.975  0.00  0.00    +0.000 OA
ATOM     34  C   UNL     1      48.534   6.799  19.049  0.00  0.00    +0.000 A 
ATOM     35  H   UNL     1      47.328   9.693  20.044  0.00  0.00    +0.000 HD
ENDBRANCH  22  25
ENDBRANCH  20  21
ENDBRANCH   4  20
TORSDOF 9
ENDMDL
MODEL 4
REMARK VINA RESULT:    -7.281      1.734      2.370
REMARK INTER + INTRA:         -12.383
REMARK INTER:                 -11.128
REMARK INTRA:                  -1.255
REMARK UNBOUND:                -1.270
REMARK  Name = 
REMARK  9 active torsions:
REMARK  status: ('A' for Active; 'I' for Inactive)
REMARK    1  A    between atoms: C_2  and  C_3
REMARK    2  A    between atoms: C_3  and  C_4
REMARK    3  A    between atoms: C_4  and  N_5
REMARK    4  A    between atoms: C_4  and  C_13
REMARK    5  A    between atoms: N_5  and  C_6
REMARK    6  A    between atoms: C_6  and  C_7
REMARK    7  A    between atoms: C_16  and  C_17
REMARK    8  A    between atoms: C_17  and  N_18
REMARK    9  A    between atoms: C_19  and  C_21
REMARK                            x       y       z     vdW  Elec       q    Type
REMARK                         _______ _______ _______ _____ _____    ______ ____
ROOT
ATOM      1  C   UNL     1      45.879   5.618  11.886  0.00  0.00    +0.000 A 
ATOM      2  C   UNL     1      46.640   6.706  11.435  0.00  0.00    +0.000 A 
ATOM      3  C   UNL     1      47.684   7.216  12.215  0.00  0.00    +0.000 A 
ATOM      4  C   UNL     1      47.990   6.644  13.456  0.00  0.00    +0.000 A 
ATOM      5  C   UNL     1      47.204   5.593  13.930  0.00  0.00    +0.000 A 
ATOM      6  C   UNL     1      46.180   5.071  13.146  0.00  0.00    +0.000 A 
ENDROOT
BRANCH   1   7
ATOM      7  C   UNL     1      44.725   5.092  11.033  0.00  0.00    +0.000 C 
BRANCH   7   8
ATOM      8  N   UNL     1      45.183   3.952  10.218  0.00  0.00    +0.000 NA
ATOM      9  H   UNL     1      46.175   3.801  10.408  0.00  0.00    +0.000 HD
BRANCH   8  10
ATOM     10  C   UNL     1      45.028   4.163   8.777  0.00  0.00    +0.000 C 
BRANCH  10  11
ATOM     11  C   UNL     1      45.820   3.159   7.970  0.00  0.00    +0.000 A 
ATOM     12  C   UNL     1      46.496   3.557   6.806  0.00  0.00    +0.000 A 
ATOM     13  C   UNL     1      47.286   2.652   6.098  0.00  0.00    +0.000 A 
ATOM     14  C   UNL     1      47.416   1.339   6.546  0.00  0.00    +0.000 A 
ATOM     15  C   UNL     1      46.749   0.930   7.699  0.00  0.00    +0.000 A 
ATOM     16  C   UNL     1      45.954   1.833   8.408  0.00  0.00    +0.000 A 
ENDBRANCH  10  11
ENDBRANCH   8  10
ENDBRANCH   7   8
BRANCH   7  17
ATOM     17  C   UNL     1      43.518   4.752  11.917  0.00  0.00    +0.000 C 
BRANCH  17  19
ATOM     18  N   UNL     1      42.987   2.028  11.748  0.00  0.00    +0.000 NA
ATOM     19  C   UNL     1      43.228   3.263  11.826  0.00  0.00    +0.000 C 
ENDBRANCH  17  19
ENDBRANCH   7  17
ENDBRANCH   1   7
BRANCH   4  20
ATOM     20  C   UNL     1      49.143   7.134  14.288  0.00  0.00    +0.000 C 
BRANCH  20  21
ATOM     21  N   UNL     1      49.085   6.626  15.631  0.00  0.00    +0.000 N 
ATOM     22  C   UNL     1      49.201   7.483  16.693  0.00  0.00    +0.000 C 
ATOM     23  O   UNL     1      49.314   8.697  16.541  0.00  0.00    +0.000 OA
ATOM     24  H   UNL     1      49.258   5.633  15.766  0.00  0.00    +0.000 HD
BRANCH  22  25
ATOM     25  C   UNL     1      49.120   6.887  18.028  0.00  0.00    +0.000 A 
ATOM     26  C   UNL     1      47.903   6.394  18.482  0.00  0.00    +0.000 A 
ATOM     27  S   UNL     1      47.982   5.716  20.045  0.00  0.00    +0.000 S 
ATOM     28  C   UNL     1      49.635   6.096  20.185  0.00  0.00    +0.000 A 
ATOM     29  N   UNL     1      50.319   5.816  21.323  0.00  0.00    +0.000 NA
ATOM     30  C   UNL     1      51.562   6.177  21.303  0.00  0.00    +0.000 A 
ATOM     31  N   UNL     1      52.179   6.784  20.240  0.00  0.00    +0.000 N 
ATOM     32  C   UNL     1      51.529   7.077  19.062  0.00  0.00    +0.000 A 
ATOM     33  O   UNL     1      52.111   7.589  18.115  0.00  0.00    +0.000 OA
ATOM     34  C   UNL     1      50.127   6.701  19.045  0.00  0.00    +0.000 A 
ATOM     35  H   UNL     1      53.158   7.026  20.279  0.00  0.00    +0.000 HD
ENDBRANCH  22  25
ENDBRANCH  20  21
ENDBRANCH   4  20
TORSDOF 9
ENDMDL
MODEL 5
REMARK VINA RESULT:    -7.237      3.957      5.755
REMARK INTER + INTRA:         -12.314
REMARK INTER:                 -11.025
REMARK INTRA:                  -1.289
REMARK UNBOUND:                -1.270
REMARK  Name = 
REMARK  9 active torsions:
REMARK  status: ('A' for Active; 'I' for Inactive)
REMARK    1  A    between atoms: C_2  and  C_3
REMARK    2  A    between atoms: C_3  and  C_4
REMARK    3  A    between atoms: C_4  and  N_5
REMARK    4  A    between atoms: C_4  and  C_13
REMARK    5  A    between atoms: N_5  and  C_6
REMARK    6  A    between atoms: C_6  and  C_7
REMARK    7  A    between atoms: C_16  and  C_17
REMARK    8  A    between atoms: C_17  and  N_18
REMARK    9  A    between atoms: C_19  and  C_21
REMARK                            x       y       z     vdW  Elec       q    Type
REMARK                         _______ _______ _______ _____ _____    ______ ____
ROOT
ATOM      1  C   UNL     1      46.209   5.969  11.792  0.00  0.00    +0.000 A 
ATOM      2  C   UNL     1      46.766   7.231  11.537  0.00  0.00    +0.000 A 
ATOM      3  C   UNL     1      47.762   7.751  12.371  0.00  0.00    +0.000 A 
ATOM      4  C   UNL     1      48.225   7.016  13.470  0.00  0.00    +0.000 A 
ATOM      5  C   UNL     1      47.639   5.782  13.755  0.00  0.00    +0.000 A 
ATOM      6  C   UNL     1      46.664   5.255  12.914  0.00  0.00    +0.000 A 
ENDROOT
BRANCH   1   7
ATOM      7  C   UNL     1      45.102   5.430  10.886  0.00  0.00    +0.000 C 
BRANCH   7   8
ATOM      8  N   UNL     1      45.615   5.261   9.515  0.00  0.00    +0.000 NA
ATOM      9  H   UNL     1      45.602   6.172   9.053  0.00  0.00    +0.000 HD
BRANCH   8  10
ATOM     10  C   UNL     1      44.822   4.334   8.703  0.00  0.00    +0.000 C 
BRANCH  10  11
ATOM     11  C   UNL     1      45.682   3.272   8.054  0.00  0.00    +0.000 A 
ATOM     12  C   UNL     1      46.561   3.609   7.015  0.00  0.00    +0.000 A 
ATOM     13  C   UNL     1      47.408   2.649   6.460  0.00  0.00    +0.000 A 
ATOM     14  C   UNL     1      47.391   1.342   6.943  0.00  0.00    +0.000 A 
ATOM     15  C   UNL     1      46.521   0.993   7.974  0.00  0.00    +0.000 A 
ATOM     16  C   UNL     1      45.670   1.952   8.528  0.00  0.00    +0.000 A 
ENDBRANCH  10  11
ENDBRANCH   8  10
ENDBRANCH   7   8
BRANCH   7  17
ATOM     17  C   UNL     1      44.513   4.140  11.472  0.00  0.00    +0.000 C 
BRANCH  17  19
ATOM     18  N   UNL     1      42.686   4.782  13.467  0.00  0.00    +0.000 NA
ATOM     19  C   UNL     1      43.514   4.490  12.563  0.00  0.00    +0.000 C 
ENDBRANCH  17  19
ENDBRANCH   7  17
ENDBRANCH   1   7
BRANCH   4  20
ATOM     20  C   UNL     1      49.335   7.524  14.347  0.00  0.00    +0.000 C 
BRANCH  20  21
ATOM     21  N   UNL     1      50.595   7.546  13.655  0.00  0.00    +0.000 N 
ATOM     22  C   UNL     1      51.268   8.729  13.496  0.00  0.00    +0.000 C 
ATOM     23  O   UNL     1      50.850   9.784  13.965  0.00  0.00    +0.000 OA
ATOM     24  H   UNL     1      50.812   6.759  13.050  0.00  0.00    +0.000 HD
BRANCH  22  25
ATOM     25  C   UNL     1      52.549   8.662  12.789  0.00  0.00    +0.000 A 
ATOM     26  C   UNL     1      53.690   9.170  13.398  0.00  0.00    +0.000 A 
ATOM     27  S   UNL     1      55.100   8.999  12.454  0.00  0.00    +0.000 S 
ATOM     28  C   UNL     1      54.226   8.279  11.182  0.00  0.00    +0.000 A 
ATOM     29  N   UNL     1      54.845   7.920  10.029  0.00  0.00    +0.000 NA
ATOM     30  C   UNL     1      54.060   7.404   9.139  0.00  0.00    +0.000 A 
ATOM     31  N   UNL     1      52.714   7.209   9.308  0.00  0.00    +0.000 N 
ATOM     32  C   UNL     1      52.045   7.545  10.464  0.00  0.00    +0.000 A 
ATOM     33  O   UNL     1      50.849   7.330  10.603  0.00  0.00    +0.000 OA
ATOM     34  C   UNL     1      52.886   8.142  11.486  0.00  0.00    +0.000 A 
ATOM     35  H   UNL     1      52.157   6.784   8.581  0.00  0.00    +0.000 HD
ENDBRANCH  22  25
ENDBRANCH  20  21
ENDBRANCH   4  20
TORSDOF 9
ENDMDL
MODEL 6
REMARK VINA RESULT:    -7.057      3.977     10.469
REMARK INTER + INTRA:         -12.040
REMARK INTER:                 -10.102
REMARK INTRA:                  -1.938
REMARK UNBOUND:                -1.270
REMARK  Name = 
REMARK  9 active torsions:
REMARK  status: ('A' for Active; 'I' for Inactive)
REMARK    1  A    between atoms: C_2  and  C_3
REMARK    2  A    between atoms: C_3  and  C_4
REMARK    3  A    between atoms: C_4  and  N_5
REMARK    4  A    between atoms: C_4  and  C_13
REMARK    5  A    between atoms: N_5  and  C_6
REMARK    6  A    between atoms: C_6  and  C_7
REMARK    7  A    between atoms: C_16  and  C_17
REMARK    8  A    between atoms: C_17  and  N_18
REMARK    9  A    between atoms: C_19  and  C_21
REMARK                            x       y       z     vdW  Elec       q    Type
REMARK                         _______ _______ _______ _____ _____    ______ ____
ROOT
ATOM      1  C   UNL     1      51.455   3.126  17.824  0.00  0.00    +0.000 A 
ATOM      2  C   UNL     1      50.797   4.362  17.913  0.00  0.00    +0.000 A 
ATOM      3  C   UNL     1      49.443   4.472  17.578  0.00  0.00    +0.000 A 
ATOM      4  C   UNL     1      48.720   3.349  17.155  0.00  0.00    +0.000 A 
ATOM      5  C   UNL     1      49.383   2.129  17.018  0.00  0.00    +0.000 A 
ATOM      6  C   UNL     1      50.724   2.014  17.372  0.00  0.00    +0.000 A 
ENDROOT
BRANCH   1   7
ATOM      7  C   UNL     1      52.941   3.031  18.168  0.00  0.00    +0.000 C 
BRANCH   7   8
ATOM      8  N   UNL     1      53.111   2.907  19.627  0.00  0.00    +0.000 NA
ATOM      9  H   UNL     1      52.187   2.798  20.049  0.00  0.00    +0.000 HD
BRANCH   8  10
ATOM     10  C   UNL     1      53.752   4.071  20.243  0.00  0.00    +0.000 C 
BRANCH  10  11
ATOM     11  C   UNL     1      52.742   5.095  20.707  0.00  0.00    +0.000 A 
ATOM     12  C   UNL     1      52.785   6.408  20.216  0.00  0.00    +0.000 A 
ATOM     13  C   UNL     1      51.813   7.338  20.585  0.00  0.00    +0.000 A 
ATOM     14  C   UNL     1      50.782   6.965  21.445  0.00  0.00    +0.000 A 
ATOM     15  C   UNL     1      50.727   5.664  21.942  0.00  0.00    +0.000 A 
ATOM     16  C   UNL     1      51.702   4.733  21.576  0.00  0.00    +0.000 A 
ENDBRANCH  10  11
ENDBRANCH   8  10
ENDBRANCH   7   8
BRANCH   7  17
ATOM     17  C   UNL     1      53.598   1.885  17.387  0.00  0.00    +0.000 C 
BRANCH  17  19
ATOM     18  N   UNL     1      54.503  -0.049  19.168  0.00  0.00    +0.000 NA
ATOM     19  C   UNL     1      54.092   0.828  18.361  0.00  0.00    +0.000 C 
ENDBRANCH  17  19
ENDBRANCH   7  17
ENDBRANCH   1   7
BRANCH   4  20
ATOM     20  C   UNL     1      47.251   3.426  16.845  0.00  0.00    +0.000 C 
BRANCH  20  21
ATOM     21  N   UNL     1      46.967   4.428  15.854  0.00  0.00    +0.000 N 
ATOM     22  C   UNL     1      47.039   4.114  14.522  0.00  0.00    +0.000 C 
ATOM     23  O   UNL     1      47.302   2.978  14.135  0.00  0.00    +0.000 OA
ATOM     24  H   UNL     1      47.012   5.402  16.143  0.00  0.00    +0.000 HD
BRANCH  22  25
ATOM     25  C   UNL     1      46.724   5.188  13.578  0.00  0.00    +0.000 A 
ATOM     26  C   UNL     1      47.686   6.148  13.291  0.00  0.00    +0.000 A 
ATOM     27  S   UNL     1      47.169   7.316  12.161  0.00  0.00    +0.000 S 
ATOM     28  C   UNL     1      45.627   6.603  12.049  0.00  0.00    +0.000 A 
ATOM     29  N   UNL     1      44.664   7.148  11.264  0.00  0.00    +0.000 NA
ATOM     30  C   UNL     1      43.534   6.518  11.288  0.00  0.00    +0.000 A 
ATOM     31  N   UNL     1      43.289   5.387  12.021  0.00  0.00    +0.000 N 
ATOM     32  C   UNL     1      44.238   4.790  12.822  0.00  0.00    +0.000 A 
ATOM     33  O   UNL     1      44.005   3.761  13.441  0.00  0.00    +0.000 OA
ATOM     34  C   UNL     1      45.519   5.474  12.836  0.00  0.00    +0.000 A 
ATOM     35  H   UNL     1      42.390   4.929  11.984  0.00  0.00    +0.000 HD
ENDBRANCH  22  25
ENDBRANCH  20  21
ENDBRANCH   4  20
TORSDOF 9
ENDMDL
MODEL 7
REMARK VINA RESULT:    -6.983      3.492      9.029
REMARK INTER + INTRA:         -11.927
REMARK INTER:                  -9.283
REMARK INTRA:                  -2.645
REMARK UNBOUND:                -1.270
REMARK  Name = 
REMARK  9 active torsions:
REMARK  status: ('A' for Active; 'I' for Inactive)
REMARK    1  A    between atoms: C_2  and  C_3
REMARK    2  A    between atoms: C_3  and  C_4
REMARK    3  A    between atoms: C_4  and  N_5
REMARK    4  A    between atoms: C_4  and  C_13
REMARK    5  A    between atoms: N_5  and  C_6
REMARK    6  A    between atoms: C_6  and  C_7
REMARK    7  A    between atoms: C_16  and  C_17
REMARK    8  A    between atoms: C_17  and  N_18
REMARK    9  A    between atoms: C_19  and  C_21
REMARK                            x       y       z     vdW  Elec       q    Type
REMARK                         _______ _______ _______ _____ _____    ______ ____
ROOT
ATOM      1  C   UNL     1      50.041   6.653  18.626  0.00  0.00    +0.000 A 
ATOM      2  C   UNL     1      49.000   7.591  18.554  0.00  0.00    +0.000 A 
ATOM      3  C   UNL     1      48.564   8.076  17.316  0.00  0.00    +0.000 A 
ATOM      4  C   UNL     1      49.156   7.628  16.128  0.00  0.00    +0.000 A 
ATOM      5  C   UNL     1      50.225   6.734  16.198  0.00  0.00    +0.000 A 
ATOM      6  C   UNL     1      50.644   6.235  17.427  0.00  0.00    +0.000 A 
ENDROOT
BRANCH   1   7
ATOM      7  C   UNL     1      50.522   6.156  19.989  0.00  0.00    +0.000 C 
BRANCH   7   8
ATOM      8  N   UNL     1      50.250   4.713  20.120  0.00  0.00    +0.000 NA
ATOM      9  H   UNL     1      50.745   4.224  19.373  0.00  0.00    +0.000 HD
BRANCH   8  10
ATOM     10  C   UNL     1      48.828   4.374  20.014  0.00  0.00    +0.000 C 
BRANCH  10  11
ATOM     11  C   UNL     1      48.472   3.853  18.640  0.00  0.00    +0.000 A 
ATOM     12  C   UNL     1      47.380   4.387  17.939  0.00  0.00    +0.000 A 
ATOM     13  C   UNL     1      47.090   3.962  16.643  0.00  0.00    +0.000 A 
ATOM     14  C   UNL     1      47.891   3.001  16.028  0.00  0.00    +0.000 A 
ATOM     15  C   UNL     1      48.977   2.461  16.713  0.00  0.00    +0.000 A 
ATOM     16  C   UNL     1      49.267   2.883  18.013  0.00  0.00    +0.000 A 
ENDBRANCH  10  11
ENDBRANCH   8  10
ENDBRANCH   7   8
BRANCH   7  17
ATOM     17  C   UNL     1      52.001   6.510  20.195  0.00  0.00    +0.000 C 
BRANCH  17  19
ATOM     18  N   UNL     1      53.474   4.172  20.510  0.00  0.00    +0.000 NA
ATOM     19  C   UNL     1      52.807   5.232  20.367  0.00  0.00    +0.000 C 
ENDBRANCH  17  19
ENDBRANCH   7  17
ENDBRANCH   1   7
BRANCH   4  20
ATOM     20  C   UNL     1      48.669   8.088  14.782  0.00  0.00    +0.000 C 
BRANCH  20  21
ATOM     21  N   UNL     1      47.576   7.284  14.307  0.00  0.00    +0.000 N 
ATOM     22  C   UNL     1      47.786   6.354  13.324  0.00  0.00    +0.000 C 
ATOM     23  O   UNL     1      48.901   6.148  12.851  0.00  0.00    +0.000 OA
ATOM     24  H   UNL     1      46.633   7.618  14.489  0.00  0.00    +0.000 HD
BRANCH  22  25
ATOM     25  C   UNL     1      46.623   5.569  12.905  0.00  0.00    +0.000 A 
ATOM     26  C   UNL     1      46.654   4.185  13.029  0.00  0.00    +0.000 A 
ATOM     27  S   UNL     1      45.218   3.423  12.517  0.00  0.00    +0.000 S 
ATOM     28  C   UNL     1      44.522   4.912  12.072  0.00  0.00    +0.000 A 
ATOM     29  N   UNL     1      43.287   4.963  11.513  0.00  0.00    +0.000 NA
ATOM     30  C   UNL     1      42.888   6.155  11.204  0.00  0.00    +0.000 A 
ATOM     31  N   UNL     1      43.614   7.297  11.415  0.00  0.00    +0.000 N 
ATOM     32  C   UNL     1      44.866   7.297  11.990  0.00  0.00    +0.000 A 
ATOM     33  O   UNL     1      45.480   8.334  12.199  0.00  0.00    +0.000 OA
ATOM     34  C   UNL     1      45.359   5.976  12.340  0.00  0.00    +0.000 A 
ATOM     35  H   UNL     1      43.241   8.202  11.168  0.00  0.00    +0.000 HD
ENDBRANCH  22  25
ENDBRANCH  20  21
ENDBRANCH   4  20
TORSDOF 9
ENDMDL
MODEL 8
REMARK VINA RESULT:    -6.900      3.341      9.084
REMARK INTER + INTRA:         -11.801
REMARK INTER:                  -9.698
REMARK INTRA:                  -2.102
REMARK UNBOUND:                -1.270
REMARK  Name = 
REMARK  9 active torsions:
REMARK  status: ('A' for Active; 'I' for Inactive)
REMARK    1  A    between atoms: C_2  and  C_3
REMARK    2  A    between atoms: C_3  and  C_4
REMARK    3  A    between atoms: C_4  and  N_5
REMARK    4  A    between atoms: C_4  and  C_13
REMARK    5  A    between atoms: N_5  and  C_6
REMARK    6  A    between atoms: C_6  and  C_7
REMARK    7  A    between atoms: C_16  and  C_17
REMARK    8  A    between atoms: C_17  and  N_18
REMARK    9  A    between atoms: C_19  and  C_21
REMARK                            x       y       z     vdW  Elec       q    Type
REMARK                         _______ _______ _______ _____ _____    ______ ____
ROOT
ATOM      1  C   UNL     1      49.464   8.287  15.791  0.00  0.00    +0.000 A 
ATOM      2  C   UNL     1      50.124   7.502  14.834  0.00  0.00    +0.000 A 
ATOM      3  C   UNL     1      49.571   7.318  13.562  0.00  0.00    +0.000 A 
ATOM      4  C   UNL     1      48.353   7.921  13.221  0.00  0.00    +0.000 A 
ATOM      5  C   UNL     1      47.670   8.662  14.186  0.00  0.00    +0.000 A 
ATOM      6  C   UNL     1      48.230   8.863  15.444  0.00  0.00    +0.000 A 
ENDROOT
BRANCH   1   7
ATOM      7  C   UNL     1      50.070   8.453  17.185  0.00  0.00    +0.000 C 
BRANCH   7   8
ATOM      8  N   UNL     1      50.249   7.132  17.814  0.00  0.00    +0.000 NA
ATOM      9  H   UNL     1      50.765   6.535  17.165  0.00  0.00    +0.000 HD
BRANCH   8  10
ATOM     10  C   UNL     1      48.988   6.461  18.136  0.00  0.00    +0.000 C 
BRANCH  10  11
ATOM     11  C   UNL     1      48.929   5.062  17.566  0.00  0.00    +0.000 A 
ATOM     12  C   UNL     1      49.933   4.130  17.868  0.00  0.00    +0.000 A 
ATOM     13  C   UNL     1      49.848   2.817  17.403  0.00  0.00    +0.000 A 
ATOM     14  C   UNL     1      48.755   2.418  16.636  0.00  0.00    +0.000 A 
ATOM     15  C   UNL     1      47.752   3.335  16.327  0.00  0.00    +0.000 A 
ATOM     16  C   UNL     1      47.837   4.650  16.788  0.00  0.00    +0.000 A 
ENDBRANCH  10  11
ENDBRANCH   8  10
ENDBRANCH   7   8
BRANCH   7  17
ATOM     17  C   UNL     1      51.370   9.265  17.109  0.00  0.00    +0.000 C 
BRANCH  17  19
ATOM     18  N   UNL     1      53.469   7.742  18.113  0.00  0.00    +0.000 NA
ATOM     19  C   UNL     1      52.518   8.432  17.659  0.00  0.00    +0.000 C 
ENDBRANCH  17  19
ENDBRANCH   7  17
ENDBRANCH   1   7
BRANCH   4  20
ATOM     20  C   UNL     1      47.766   7.789  11.843  0.00  0.00    +0.000 C 
BRANCH  20  21
ATOM     21  N   UNL     1      47.047   6.554  11.686  0.00  0.00    +0.000 N 
ATOM     22  C   UNL     1      45.677   6.550  11.722  0.00  0.00    +0.000 C 
ATOM     23  O   UNL     1      45.026   7.584  11.845  0.00  0.00    +0.000 OA
ATOM     24  H   UNL     1      47.556   5.689  11.849  0.00  0.00    +0.000 HD
BRANCH  22  25
ATOM     25  C   UNL     1      45.022   5.252  11.542  0.00  0.00    +0.000 A 
ATOM     26  C   UNL     1      44.326   4.687  12.604  0.00  0.00    +0.000 A 
ATOM     27  S   UNL     1      43.606   3.188  12.226  0.00  0.00    +0.000 S 
ATOM     28  C   UNL     1      44.235   3.223  10.644  0.00  0.00    +0.000 A 
ATOM     29  N   UNL     1      44.020   2.193   9.788  0.00  0.00    +0.000 NA
ATOM     30  C   UNL     1      44.572   2.340   8.626  0.00  0.00    +0.000 A 
ATOM     31  N   UNL     1      45.311   3.430   8.248  0.00  0.00    +0.000 N 
ATOM     32  C   UNL     1      45.546   4.503   9.078  0.00  0.00    +0.000 A 
ATOM     33  O   UNL     1      46.181   5.480   8.705  0.00  0.00    +0.000 OA
ATOM     34  C   UNL     1      44.956   4.375  10.398  0.00  0.00    +0.000 A 
ATOM     35  H   UNL     1      45.702   3.494   7.319  0.00  0.00    +0.000 HD
ENDBRANCH  22  25
ENDBRANCH  20  21
ENDBRANCH   4  20
TORSDOF 9
ENDMDL
MODEL 9
REMARK VINA RESULT:    -6.883      3.462      8.678
REMARK INTER + INTRA:         -11.775
REMARK INTER:                  -9.728
REMARK INTRA:                  -2.048
REMARK UNBOUND:                -1.270
REMARK  Name = 
REMARK  9 active torsions:
REMARK  status: ('A' for Active; 'I' for Inactive)
REMARK    1  A    between atoms: C_2  and  C_3
REMARK    2  A    between atoms: C_3  and  C_4
REMARK    3  A    between atoms: C_4  and  N_5
REMARK    4  A    between atoms: C_4  and  C_13
REMARK    5  A    between atoms: N_5  and  C_6
REMARK    6  A    between atoms: C_6  and  C_7
REMARK    7  A    between atoms: C_16  and  C_17
REMARK    8  A    between atoms: C_17  and  N_18
REMARK    9  A    between atoms: C_19  and  C_21
REMARK                            x       y       z     vdW  Elec       q    Type
REMARK                         _______ _______ _______ _____ _____    ______ ____
ROOT
ATOM      1  C   UNL     1      48.644   7.966  16.500  0.00  0.00    +0.000 A 
ATOM      2  C   UNL     1      49.119   6.876  15.756  0.00  0.00    +0.000 A 
ATOM      3  C   UNL     1      49.037   6.878  14.359  0.00  0.00    +0.000 A 
ATOM      4  C   UNL     1      48.486   7.972  13.680  0.00  0.00    +0.000 A 
ATOM      5  C   UNL     1      47.968   9.037  14.418  0.00  0.00    +0.000 A 
ATOM      6  C   UNL     1      48.068   9.045  15.806  0.00  0.00    +0.000 A 
ENDROOT
BRANCH   1   7
ATOM      7  C   UNL     1      48.717   7.934  18.026  0.00  0.00    +0.000 C 
BRANCH   7   8
ATOM      8  N   UNL     1      47.750   6.954  18.553  0.00  0.00    +0.000 NA
ATOM      9  H   UNL     1      47.132   7.434  19.210  0.00  0.00    +0.000 HD
BRANCH   8  10
ATOM     10  C   UNL     1      48.377   5.835  19.261  0.00  0.00    +0.000 C 
BRANCH  10  11
ATOM     11  C   UNL     1      48.495   4.607  18.387  0.00  0.00    +0.000 A 
ATOM     12  C   UNL     1      47.411   4.186  17.604  0.00  0.00    +0.000 A 
ATOM     13  C   UNL     1      47.536   3.096  16.742  0.00  0.00    +0.000 A 
ATOM     14  C   UNL     1      48.749   2.418  16.648  0.00  0.00    +0.000 A 
ATOM     15  C   UNL     1      49.834   2.824  17.422  0.00  0.00    +0.000 A 
ATOM     16  C   UNL     1      49.710   3.912  18.288  0.00  0.00    +0.000 A 
ENDBRANCH  10  11
ENDBRANCH   8  10
ENDBRANCH   7   8
BRANCH   7  17
ATOM     17  C   UNL     1      50.156   7.667  18.487  0.00  0.00    +0.000 C 
BRANCH  17  19
ATOM     18  N   UNL     1      51.702   9.936  18.049  0.00  0.00    +0.000 NA
ATOM     19  C   UNL     1      51.001   8.907  18.247  0.00  0.00    +0.000 C 
ENDBRANCH  17  19
ENDBRANCH   7  17
ENDBRANCH   1   7
BRANCH   4  20
ATOM     20  C   UNL     1      48.439   8.027  12.178  0.00  0.00    +0.000 C 
BRANCH  20  21
ATOM     21  N   UNL     1      47.730   6.905  11.626  0.00  0.00    +0.000 N 
ATOM     22  C   UNL     1      46.375   6.977  11.438  0.00  0.00    +0.000 C 
ATOM     23  O   UNL     1      45.736   7.996  11.689  0.00  0.00    +0.000 OA
ATOM     24  H   UNL     1      48.184   5.996  11.665  0.00  0.00    +0.000 HD
BRANCH  22  25
ATOM     25  C   UNL     1      45.730   5.796  10.859  0.00  0.00    +0.000 A 
ATOM     26  C   UNL     1      45.831   5.565   9.493  0.00  0.00    +0.000 A 
ATOM     27  S   UNL     1      45.043   4.141   8.983  0.00  0.00    +0.000 S 
ATOM     28  C   UNL     1      44.505   3.808  10.564  0.00  0.00    +0.000 A 
ATOM     29  N   UNL     1      43.725   2.728  10.820  0.00  0.00    +0.000 NA
ATOM     30  C   UNL     1      43.369   2.606  12.059  0.00  0.00    +0.000 A 
ATOM     31  N   UNL     1      43.735   3.465  13.061  0.00  0.00    +0.000 N 
ATOM     32  C   UNL     1      44.535   4.567  12.852  0.00  0.00    +0.000 A 
ATOM     33  O   UNL     1      44.875   5.300  13.770  0.00  0.00    +0.000 OA
ATOM     34  C   UNL     1      44.946   4.751  11.471  0.00  0.00    +0.000 A 
ATOM     35  H   UNL     1      43.440   3.306  14.014  0.00  0.00    +0.000 HD
ENDBRANCH  22  25
ENDBRANCH  20  21
ENDBRANCH   4  20
TORSDOF 9
ENDMDL
