MODEL 1
REMARK VINA RESULT:    -8.102      0.000      0.000
REMARK INTER + INTRA:         -12.376
REMARK INTER:                 -11.417
REMARK INTRA:                  -0.959
REMARK UNBOUND:                -0.959
REMARK  Name = 
REMARK  7 active torsions:
REMARK  status: ('A' for Active; 'I' for Inactive)
REMARK    1  A    between atoms: C_2  and  C_4
REMARK    2  A    between atoms: C_7  and  O_8
REMARK    3  A    between atoms: O_8  and  C_9
REMARK    4  A    between atoms: C_9  and  C_10
REMARK    5  A    between atoms: C_10  and  C_11
REMARK    6  A    between atoms: C_15  and  O_16
REMARK    7  A    between atoms: O_16  and  C_17
REMARK                            x       y       z     vdW  Elec       q    Type
REMARK                         _______ _______ _______ _____ _____    ______ ____
ROOT
ATOM      1  C   UNL     1      43.461   4.680  10.979  0.00  0.00    +0.000 C 
ENDROOT
BRANCH   1   2
ATOM      2  O   UNL     1      43.422   3.322  10.510  0.00  0.00    +0.000 OA
BRANCH   2   6
ATOM      3  C   UNL     1      46.336   2.661   7.668  0.00  0.00    +0.000 A 
ATOM      4  C   UNL     1      45.848   3.959   7.860  0.00  0.00    +0.000 A 
ATOM      5  C   UNL     1      44.857   4.178   8.823  0.00  0.00    +0.000 A 
ATOM      6  C   UNL     1      44.397   3.093   9.555  0.00  0.00    +0.000 A 
ATOM      7  N   UNL     1      44.850   1.833   9.377  0.00  0.00    +0.000 NA
ATOM      8  C   UNL     1      45.799   1.642   8.434  0.00  0.00    +0.000 A 
BRANCH   3  10
ATOM      9  N   UNL     1      47.471   3.101   5.568  0.00  0.00    +0.000 N 
ATOM     10  C   UNL     1      47.381   2.313   6.684  0.00  0.00    +0.000 C 
ATOM     11  O   UNL     1      48.162   1.392   6.875  0.00  0.00    +0.000 OA
ATOM     12  H   UNL     1      48.269   2.927   4.971  0.00  0.00    +0.000 HD
ATOM     13  H   UNL     1      47.039   4.011   5.517  0.00  0.00    +0.000 HD
ENDBRANCH   3  10
ENDBRANCH   2   6
ENDBRANCH   1   2
BRANCH   1  14
ATOM     14  C   UNL     1      43.871   4.721  12.449  0.00  0.00    +0.000 C 
BRANCH  14  15
ATOM     15  C   UNL     1      45.280   5.241  12.603  0.00  0.00    +0.000 A 
ATOM     16  C   UNL     1      45.817   6.128  11.665  0.00  0.00    +0.000 A 
ATOM     17  C   UNL     1      47.092   6.669  11.858  0.00  0.00    +0.000 A 
ATOM     18  C   UNL     1      47.846   6.331  12.989  0.00  0.00    +0.000 A 
ATOM     19  C   UNL     1      47.326   5.437  13.922  0.00  0.00    +0.000 A 
ATOM     20  C   UNL     1      46.046   4.907  13.730  0.00  0.00    +0.000 A 
BRANCH  19  21
ATOM     21  O   UNL     1      47.945   5.043  15.083  0.00  0.00    +0.000 OA
BRANCH  21  22
ATOM     22  C   UNL     1      47.244   4.184  16.011  0.00  0.00    +0.000 C 
ATOM     23  C   UNL     1      47.261   4.552  17.501  0.00  0.00    +0.000 C 
ATOM     24  O   UNL     1      47.851   3.285  17.869  0.00  0.00    +0.000 OA
ATOM     25  C   UNL     1      48.025   2.940  16.475  0.00  0.00    +0.000 C 
ENDBRANCH  21  22
ENDBRANCH  19  21
ENDBRANCH  14  15
ENDBRANCH   1  14
TORSDOF 7
ENDMDL
MODEL 2
REMARK VINA RESULT:    -7.277      1.613      1.924
REMARK INTER + INTRA:         -11.214
REMARK INTER:                 -10.326
REMARK INTRA:                  -0.888
REMARK UNBOUND:                -0.959
REMARK  Name = 
REMARK  7 active torsions:
REMARK  status: ('A' for Active; 'I' for Inactive)
REMARK    1  A    between atoms: C_2  and  C_4
REMARK    2  A    between atoms: C_7  and  O_8
REMARK    3  A    between atoms: O_8  and  C_9
REMARK    4  A    between atoms: C_9  and  C_10
REMARK    5  A    between atoms: C_10  and  C_11
REMARK    6  A    between atoms: C_15  and  O_16
REMARK    7  A    between atoms: O_16  and  C_17
REMARK                            x       y       z     vdW  Elec       q    Type
REMARK                         _______ _______ _______ _____ _____    ______ ____
ROOT
ATOM      1  C   UNL     1      43.834   4.596  11.232  0.00  0.00    +0.000 C 
ENDROOT
BRANCH   1   2
ATOM      2  O   UNL     1      43.476   3.447  10.448  0.00  0.00    +0.000 OA
BRANCH   2   6
ATOM      3  C   UNL     1      46.378   2.615   7.639  0.00  0.00    +0.000 A 
ATOM      4  C   UNL     1      45.880   3.919   7.743  0.00  0.00    +0.000 A 
ATOM      5  C   UNL     1      44.893   4.196   8.696  0.00  0.00    +0.000 A 
ATOM      6  C   UNL     1      44.447   3.161   9.505  0.00  0.00    +0.000 A 
ATOM      7  N   UNL     1      44.911   1.895   9.411  0.00  0.00    +0.000 NA
ATOM      8  C   UNL     1      45.855   1.647   8.477  0.00  0.00    +0.000 A 
BRANCH   3  10
ATOM      9  N   UNL     1      47.527   2.948   5.527  0.00  0.00    +0.000 N 
ATOM     10  C   UNL     1      47.420   2.209   6.674  0.00  0.00    +0.000 C 
ATOM     11  O   UNL     1      48.185   1.284   6.907  0.00  0.00    +0.000 OA
ATOM     12  H   UNL     1      48.323   2.735   4.941  0.00  0.00    +0.000 HD
ATOM     13  H   UNL     1      47.110   3.862   5.435  0.00  0.00    +0.000 HD
ENDBRANCH   3  10
ENDBRANCH   2   6
ENDBRANCH   1   2
BRANCH   1  14
ATOM     14  C   UNL     1      44.818   4.201  12.331  0.00  0.00    +0.000 C 
BRANCH  14  15
ATOM     15  C   UNL     1      45.945   5.201  12.432  0.00  0.00    +0.000 A 
ATOM     16  C   UNL     1      46.067   6.233  11.497  0.00  0.00    +0.000 A 
ATOM     17  C   UNL     1      47.064   7.202  11.645  0.00  0.00    +0.000 A 
ATOM     18  C   UNL     1      47.953   7.152  12.726  0.00  0.00    +0.000 A 
ATOM     19  C   UNL     1      47.849   6.119  13.655  0.00  0.00    +0.000 A 
ATOM     20  C   UNL     1      46.843   5.158  13.510  0.00  0.00    +0.000 A 
BRANCH  19  21
ATOM     21  O   UNL     1      48.635   5.968  14.772  0.00  0.00    +0.000 OA
BRANCH  21  22
ATOM     22  C   UNL     1      49.359   7.105  15.294  0.00  0.00    +0.000 C 
ATOM     23  C   UNL     1      50.679   6.850  16.036  0.00  0.00    +0.000 C 
ATOM     24  O   UNL     1      50.199   7.499  17.236  0.00  0.00    +0.000 OA
ATOM     25  C   UNL     1      48.877   7.621  16.664  0.00  0.00    +0.000 C 
ENDBRANCH  21  22
ENDBRANCH  19  21
ENDBRANCH  14  15
ENDBRANCH   1  14
TORSDOF 7
ENDMDL
MODEL 3
REMARK VINA RESULT:    -7.222      2.448      4.099
REMARK INTER + INTRA:         -11.136
REMARK INTER:                 -10.390
REMARK INTRA:                  -0.746
REMARK UNBOUND:                -0.959
REMARK  Name = 
REMARK  7 active torsions:
REMARK  status: ('A' for Active; 'I' for Inactive)
REMARK    1  A    between atoms: C_2  and  C_4
REMARK    2  A    between atoms: C_7  and  O_8
REMARK    3  A    between atoms: O_8  and  C_9
REMARK    4  A    between atoms: C_9  and  C_10
REMARK    5  A    between atoms: C_10  and  C_11
REMARK    6  A    between atoms: C_15  and  O_16
REMARK    7  A    between atoms: O_16  and  C_17
REMARK                            x       y       z     vdW  Elec       q    Type
REMARK                         _______ _______ _______ _____ _____    ______ ____
ROOT
ATOM      1  C   UNL     1      43.483   4.458  11.029  0.00  0.00    +0.000 C 
ENDROOT
BRANCH   1   2
ATOM      2  O   UNL     1      43.486   3.125  10.490  0.00  0.00    +0.000 OA
BRANCH   2   6
ATOM      3  C   UNL     1      46.421   2.697   7.626  0.00  0.00    +0.000 A 
ATOM      4  C   UNL     1      45.975   3.980   7.964  0.00  0.00    +0.000 A 
ATOM      5  C   UNL     1      44.976   4.120   8.934  0.00  0.00    +0.000 A 
ATOM      6  C   UNL     1      44.467   2.975   9.527  0.00  0.00    +0.000 A 
ATOM      7  N   UNL     1      44.880   1.729   9.208  0.00  0.00    +0.000 NA
ATOM      8  C   UNL     1      45.836   1.615   8.260  0.00  0.00    +0.000 A 
BRANCH   3  10
ATOM      9  N   UNL     1      47.383   3.111   5.437  0.00  0.00    +0.000 N 
ATOM     10  C   UNL     1      47.469   2.430   6.621  0.00  0.00    +0.000 C 
ATOM     11  O   UNL     1      48.398   1.670   6.849  0.00  0.00    +0.000 OA
ATOM     12  H   UNL     1      48.174   3.012   4.815  0.00  0.00    +0.000 HD
ATOM     13  H   UNL     1      46.804   3.931   5.329  0.00  0.00    +0.000 HD
ENDBRANCH   3  10
ENDBRANCH   2   6
ENDBRANCH   1   2
BRANCH   1  14
ATOM     14  C   UNL     1      43.791   4.424  12.524  0.00  0.00    +0.000 C 
BRANCH  14  15
ATOM     15  C   UNL     1      45.000   5.268  12.846  0.00  0.00    +0.000 A 
ATOM     16  C   UNL     1      46.030   4.762  13.644  0.00  0.00    +0.000 A 
ATOM     17  C   UNL     1      47.184   5.519  13.869  0.00  0.00    +0.000 A 
ATOM     18  C   UNL     1      47.323   6.791  13.301  0.00  0.00    +0.000 A 
ATOM     19  C   UNL     1      46.297   7.312  12.516  0.00  0.00    +0.000 A 
ATOM     20  C   UNL     1      45.149   6.546  12.284  0.00  0.00    +0.000 A 
BRANCH  19  21
ATOM     21  O   UNL     1      46.316   8.529  11.879  0.00  0.00    +0.000 OA
BRANCH  21  22
ATOM     22  C   UNL     1      45.254   9.479  12.123  0.00  0.00    +0.000 C 
ATOM     23  C   UNL     1      44.185   9.671  11.038  0.00  0.00    +0.000 C 
ATOM     24  O   UNL     1      44.467  11.085  10.927  0.00  0.00    +0.000 OA
ATOM     25  C   UNL     1      45.601  10.948  11.814  0.00  0.00    +0.000 C 
ENDBRANCH  21  22
ENDBRANCH  19  21
ENDBRANCH  14  15
ENDBRANCH   1  14
TORSDOF 7
ENDMDL
MODEL 4
REMARK VINA RESULT:    -6.750      3.569      5.507
REMARK INTER + INTRA:         -10.472
REMARK INTER:                  -9.889
REMARK INTRA:                  -0.583
REMARK UNBOUND:                -0.959
REMARK  Name = 
REMARK  7 active torsions:
REMARK  status: ('A' for Active; 'I' for Inactive)
REMARK    1  A    between atoms: C_2  and  C_4
REMARK    2  A    between atoms: C_7  and  O_8
REMARK    3  A    between atoms: O_8  and  C_9
REMARK    4  A    between atoms: C_9  and  C_10
REMARK    5  A    between atoms: C_10  and  C_11
REMARK    6  A    between atoms: C_15  and  O_16
REMARK    7  A    between atoms: O_16  and  C_17
REMARK                            x       y       z     vdW  Elec       q    Type
REMARK                         _______ _______ _______ _____ _____    ______ ____
ROOT
ATOM      1  C   UNL     1      43.641   5.137  10.537  0.00  0.00    +0.000 C 
ENDROOT
BRANCH   1   2
ATOM      2  O   UNL     1      43.561   3.736  10.227  0.00  0.00    +0.000 OA
BRANCH   2   6
ATOM      3  C   UNL     1      46.416   2.626   7.467  0.00  0.00    +0.000 A 
ATOM      4  C   UNL     1      45.993   1.699   8.425  0.00  0.00    +0.000 A 
ATOM      5  C   UNL     1      45.026   2.081   9.362  0.00  0.00    +0.000 A 
ATOM      6  C   UNL     1      44.522   3.371   9.301  0.00  0.00    +0.000 A 
ATOM      7  N   UNL     1      44.925   4.282   8.388  0.00  0.00    +0.000 NA
ATOM      8  C   UNL     1      45.868   3.896   7.500  0.00  0.00    +0.000 A 
BRANCH   3  10
ATOM      9  N   UNL     1      47.367   3.071   5.278  0.00  0.00    +0.000 N 
ATOM     10  C   UNL     1      47.427   2.334   6.430  0.00  0.00    +0.000 C 
ATOM     11  O   UNL     1      48.308   1.505   6.608  0.00  0.00    +0.000 OA
ATOM     12  H   UNL     1      48.139   2.946   4.637  0.00  0.00    +0.000 HD
ATOM     13  H   UNL     1      46.842   3.930   5.217  0.00  0.00    +0.000 HD
ENDBRANCH   3  10
ENDBRANCH   2   6
ENDBRANCH   1   2
BRANCH   1  14
ATOM     14  C   UNL     1      44.686   5.380  11.623  0.00  0.00    +0.000 C 
BRANCH  14  15
ATOM     15  C   UNL     1      44.865   6.857  11.880  0.00  0.00    +0.000 A 
ATOM     16  C   UNL     1      45.719   7.305  12.892  0.00  0.00    +0.000 A 
ATOM     17  C   UNL     1      45.943   8.673  13.070  0.00  0.00    +0.000 A 
ATOM     18  C   UNL     1      45.315   9.612  12.241  0.00  0.00    +0.000 A 
ATOM     19  C   UNL     1      44.451   9.176  11.239  0.00  0.00    +0.000 A 
ATOM     20  C   UNL     1      44.239   7.806  11.057  0.00  0.00    +0.000 A 
BRANCH  19  21
ATOM     21  O   UNL     1      43.795   9.985  10.342  0.00  0.00    +0.000 OA
BRANCH  21  22
ATOM     22  C   UNL     1      42.370  10.185  10.470  0.00  0.00    +0.000 C 
ATOM     23  C   UNL     1      41.693  11.219   9.559  0.00  0.00    +0.000 C 
ATOM     24  O   UNL     1      41.188  11.970  10.686  0.00  0.00    +0.000 OA
ATOM     25  C   UNL     1      41.938  11.139  11.601  0.00  0.00    +0.000 C 
ENDBRANCH  21  22
ENDBRANCH  19  21
ENDBRANCH  14  15
ENDBRANCH   1  14
TORSDOF 7
ENDMDL
MODEL 5
REMARK VINA RESULT:    -6.747      2.217      3.394
REMARK INTER + INTRA:         -10.467
REMARK INTER:                  -9.743
REMARK INTRA:                  -0.724
REMARK UNBOUND:                -0.959
REMARK  Name = 
REMARK  7 active torsions:
REMARK  status: ('A' for Active; 'I' for Inactive)
REMARK    1  A    between atoms: C_2  and  C_4
REMARK    2  A    between atoms: C_7  and  O_8
REMARK    3  A    between atoms: O_8  and  C_9
REMARK    4  A    between atoms: C_9  and  C_10
REMARK    5  A    between atoms: C_10  and  C_11
REMARK    6  A    between atoms: C_15  and  O_16
REMARK    7  A    between atoms: O_16  and  C_17
REMARK                            x       y       z     vdW  Elec       q    Type
REMARK                         _______ _______ _______ _____ _____    ______ ____
ROOT
ATOM      1  C   UNL     1      43.397   5.035  10.419  0.00  0.00    +0.000 C 
ENDROOT
BRANCH   1   2
ATOM      2  O   UNL     1      43.879   3.688  10.550  0.00  0.00    +0.000 OA
BRANCH   2   6
ATOM      3  C   UNL     1      46.487   2.713   7.509  0.00  0.00    +0.000 A 
ATOM      4  C   UNL     1      45.939   1.692   8.295  0.00  0.00    +0.000 A 
ATOM      5  C   UNL     1      45.057   2.028   9.328  0.00  0.00    +0.000 A 
ATOM      6  C   UNL     1      44.758   3.367   9.531  0.00  0.00    +0.000 A 
ATOM      7  N   UNL     1      45.284   4.365   8.787  0.00  0.00    +0.000 NA
ATOM      8  C   UNL     1      46.143   4.020   7.803  0.00  0.00    +0.000 A 
BRANCH   3  10
ATOM      9  N   UNL     1      47.289   3.272   5.287  0.00  0.00    +0.000 N 
ATOM     10  C   UNL     1      47.425   2.476   6.393  0.00  0.00    +0.000 C 
ATOM     11  O   UNL     1      48.314   1.641   6.467  0.00  0.00    +0.000 OA
ATOM     12  H   UNL     1      48.015   3.183   4.590  0.00  0.00    +0.000 HD
ATOM     13  H   UNL     1      46.763   4.133   5.306  0.00  0.00    +0.000 HD
ENDBRANCH   3  10
ENDBRANCH   2   6
ENDBRANCH   1   2
BRANCH   1  14
ATOM     14  C   UNL     1      43.405   5.734  11.776  0.00  0.00    +0.000 C 
BRANCH  14  15
ATOM     15  C   UNL     1      44.781   5.693  12.396  0.00  0.00    +0.000 A 
ATOM     16  C   UNL     1      45.061   4.822  13.454  0.00  0.00    +0.000 A 
ATOM     17  C   UNL     1      46.357   4.731  13.967  0.00  0.00    +0.000 A 
ATOM     18  C   UNL     1      47.392   5.510  13.433  0.00  0.00    +0.000 A 
ATOM     19  C   UNL     1      47.121   6.392  12.389  0.00  0.00    +0.000 A 
ATOM     20  C   UNL     1      45.825   6.471  11.871  0.00  0.00    +0.000 A 
BRANCH  19  21
ATOM     21  O   UNL     1      48.045   7.190  11.758  0.00  0.00    +0.000 OA
BRANCH  21  22
ATOM     22  C   UNL     1      48.114   8.597  12.082  0.00  0.00    +0.000 C 
ATOM     23  C   UNL     1      49.495   9.263  12.148  0.00  0.00    +0.000 C 
ATOM     24  O   UNL     1      49.295   9.679  13.518  0.00  0.00    +0.000 OA
ATOM     25  C   UNL     1      48.060   8.929  13.586  0.00  0.00    +0.000 C 
ENDBRANCH  21  22
ENDBRANCH  19  21
ENDBRANCH  14  15
ENDBRANCH   1  14
TORSDOF 7
ENDMDL
MODEL 6
REMARK VINA RESULT:    -6.493      2.805      8.014
REMARK INTER + INTRA:         -10.109
REMARK INTER:                  -9.667
REMARK INTRA:                  -0.442
REMARK UNBOUND:                -0.959
REMARK  Name = 
REMARK  7 active torsions:
REMARK  status: ('A' for Active; 'I' for Inactive)
REMARK    1  A    between atoms: C_2  and  C_4
REMARK    2  A    between atoms: C_7  and  O_8
REMARK    3  A    between atoms: O_8  and  C_9
REMARK    4  A    between atoms: C_9  and  C_10
REMARK    5  A    between atoms: C_10  and  C_11
REMARK    6  A    between atoms: C_15  and  O_16
REMARK    7  A    between atoms: O_16  and  C_17
REMARK                            x       y       z     vdW  Elec       q    Type
REMARK                         _______ _______ _______ _____ _____    ______ ____
ROOT
ATOM      1  C   UNL     1      46.546   6.744  12.100  0.00  0.00    +0.000 C 
ENDROOT
BRANCH   1   2
ATOM      2  O   UNL     1      47.015   5.421  12.408  0.00  0.00    +0.000 OA
BRANCH   2   6
ATOM      3  C   UNL     1      47.894   5.063  16.420  0.00  0.00    +0.000 A 
ATOM      4  C   UNL     1      48.436   6.129  15.693  0.00  0.00    +0.000 A 
ATOM      5  C   UNL     1      48.137   6.245  14.331  0.00  0.00    +0.000 A 
ATOM      6  C   UNL     1      47.310   5.293  13.753  0.00  0.00    +0.000 A 
ATOM      7  N   UNL     1      46.786   4.253  14.438  0.00  0.00    +0.000 NA
ATOM      8  C   UNL     1      47.096   4.153  15.750  0.00  0.00    +0.000 A 
BRANCH   3  10
ATOM      9  N   UNL     1      47.067   4.986  18.701  0.00  0.00    +0.000 N 
ATOM     10  C   UNL     1      48.138   4.842  17.860  0.00  0.00    +0.000 C 
ATOM     11  O   UNL     1      49.234   4.501  18.281  0.00  0.00    +0.000 OA
ATOM     12  H   UNL     1      47.223   4.708  19.661  0.00  0.00    +0.000 HD
ATOM     13  H   UNL     1      46.116   4.990  18.364  0.00  0.00    +0.000 HD
ENDBRANCH   3  10
ENDBRANCH   2   6
ENDBRANCH   1   2
BRANCH   1  14
ATOM     14  C   UNL     1      45.198   6.674  11.387  0.00  0.00    +0.000 C 
BRANCH  14  15
ATOM     15  C   UNL     1      45.061   5.384  10.616  0.00  0.00    +0.000 A 
ATOM     16  C   UNL     1      44.235   4.358  11.085  0.00  0.00    +0.000 A 
ATOM     17  C   UNL     1      44.049   3.200  10.324  0.00  0.00    +0.000 A 
ATOM     18  C   UNL     1      44.687   3.050   9.086  0.00  0.00    +0.000 A 
ATOM     19  C   UNL     1      45.524   4.060   8.616  0.00  0.00    +0.000 A 
ATOM     20  C   UNL     1      45.698   5.222   9.375  0.00  0.00    +0.000 A 
BRANCH  19  21
ATOM     21  O   UNL     1      46.186   4.053   7.412  0.00  0.00    +0.000 OA
BRANCH  21  22
ATOM     22  C   UNL     1      46.351   2.808   6.696  0.00  0.00    +0.000 C 
ATOM     23  C   UNL     1      47.403   1.811   7.201  0.00  0.00    +0.000 C 
ATOM     24  O   UNL     1      48.102   1.816   5.935  0.00  0.00    +0.000 OA
ATOM     25  C   UNL     1      47.254   2.881   5.449  0.00  0.00    +0.000 C 
ENDBRANCH  21  22
ENDBRANCH  19  21
ENDBRANCH  14  15
ENDBRANCH   1  14
TORSDOF 7
ENDMDL
MODEL 7
REMARK VINA RESULT:    -6.423      2.319      3.046
REMARK INTER + INTRA:         -10.011
REMARK INTER:                  -9.464
REMARK INTRA:                  -0.547
REMARK UNBOUND:                -0.959
REMARK  Name = 
REMARK  7 active torsions:
REMARK  status: ('A' for Active; 'I' for Inactive)
REMARK    1  A    between atoms: C_2  and  C_4
REMARK    2  A    between atoms: C_7  and  O_8
REMARK    3  A    between atoms: O_8  and  C_9
REMARK    4  A    between atoms: C_9  and  C_10
REMARK    5  A    between atoms: C_10  and  C_11
REMARK    6  A    between atoms: C_15  and  O_16
REMARK    7  A    between atoms: O_16  and  C_17
REMARK                            x       y       z     vdW  Elec       q    Type
REMARK                         _______ _______ _______ _____ _____    ______ ____
ROOT
ATOM      1  C   UNL     1      44.149   5.023  11.055  0.00  0.00    +0.000 C 
ENDROOT
BRANCH   1   2
ATOM      2  O   UNL     1      43.759   3.805  10.400  0.00  0.00    +0.000 OA
BRANCH   2   6
ATOM      3  C   UNL     1      46.513   2.728   7.526  0.00  0.00    +0.000 A 
ATOM      4  C   UNL     1      46.114   4.066   7.625  0.00  0.00    +0.000 A 
ATOM      5  C   UNL     1      45.177   4.426   8.600  0.00  0.00    +0.000 A 
ATOM      6  C   UNL     1      44.679   3.437   9.435  0.00  0.00    +0.000 A 
ATOM      7  N   UNL     1      45.046   2.139   9.347  0.00  0.00    +0.000 NA
ATOM      8  C   UNL     1      45.943   1.811   8.392  0.00  0.00    +0.000 A 
BRANCH   3  10
ATOM      9  N   UNL     1      47.514   2.853   5.319  0.00  0.00    +0.000 N 
ATOM     10  C   UNL     1      47.495   2.234   6.540  0.00  0.00    +0.000 C 
ATOM     11  O   UNL     1      48.287   1.345   6.813  0.00  0.00    +0.000 OA
ATOM     12  H   UNL     1      48.273   2.589   4.705  0.00  0.00    +0.000 HD
ATOM     13  H   UNL     1      47.078   3.750   5.163  0.00  0.00    +0.000 HD
ENDBRANCH   3  10
ENDBRANCH   2   6
ENDBRANCH   1   2
BRANCH   1  14
ATOM     14  C   UNL     1      45.381   4.784  11.925  0.00  0.00    +0.000 C 
BRANCH  14  15
ATOM     15  C   UNL     1      45.998   6.092  12.359  0.00  0.00    +0.000 A 
ATOM     16  C   UNL     1      45.210   7.238  12.503  0.00  0.00    +0.000 A 
ATOM     17  C   UNL     1      45.773   8.423  12.984  0.00  0.00    +0.000 A 
ATOM     18  C   UNL     1      47.131   8.480  13.325  0.00  0.00    +0.000 A 
ATOM     19  C   UNL     1      47.928   7.348  13.171  0.00  0.00    +0.000 A 
ATOM     20  C   UNL     1      47.357   6.161  12.701  0.00  0.00    +0.000 A 
BRANCH  19  21
ATOM     21  O   UNL     1      49.261   7.260  13.493  0.00  0.00    +0.000 OA
BRANCH  21  22
ATOM     22  C   UNL     1      50.021   8.468  13.722  0.00  0.00    +0.000 C 
ATOM     23  C   UNL     1      51.548   8.407  13.578  0.00  0.00    +0.000 C 
ATOM     24  O   UNL     1      51.754   8.861  14.935  0.00  0.00    +0.000 OA
ATOM     25  C   UNL     1      50.335   8.779  15.198  0.00  0.00    +0.000 C 
ENDBRANCH  21  22
ENDBRANCH  19  21
ENDBRANCH  14  15
ENDBRANCH   1  14
TORSDOF 7
ENDMDL
MODEL 8
REMARK VINA RESULT:    -6.181      3.702      8.363
REMARK INTER + INTRA:          -9.669
REMARK INTER:                  -9.219
REMARK INTRA:                  -0.450
REMARK UNBOUND:                -0.959
REMARK  Name = 
REMARK  7 active torsions:
REMARK  status: ('A' for Active; 'I' for Inactive)
REMARK    1  A    between atoms: C_2  and  C_4
REMARK    2  A    between atoms: C_7  and  O_8
REMARK    3  A    between atoms: O_8  and  C_9
REMARK    4  A    between atoms: C_9  and  C_10
REMARK    5  A    between atoms: C_10  and  C_11
REMARK    6  A    between atoms: C_15  and  O_16
REMARK    7  A    between atoms: O_16  and  C_17
REMARK                            x       y       z     vdW  Elec       q    Type
REMARK                         _______ _______ _______ _____ _____    ______ ____
ROOT
ATOM      1  C   UNL     1      46.987   3.874  14.498  0.00  0.00    +0.000 C 
ENDROOT
BRANCH   1   2
ATOM      2  O   UNL     1      46.929   3.861  15.933  0.00  0.00    +0.000 OA
BRANCH   2   6
ATOM      3  C   UNL     1      50.682   3.368  17.568  0.00  0.00    +0.000 A 
ATOM      4  C   UNL     1      49.914   2.239  17.262  0.00  0.00    +0.000 A 
ATOM      5  C   UNL     1      48.640   2.411  16.710  0.00  0.00    +0.000 A 
ATOM      6  C   UNL     1      48.187   3.703  16.486  0.00  0.00    +0.000 A 
ATOM      7  N   UNL     1      48.911   4.804  16.783  0.00  0.00    +0.000 NA
ATOM      8  C   UNL     1      50.134   4.615  17.325  0.00  0.00    +0.000 A 
BRANCH   3  10
ATOM      9  N   UNL     1      52.544   2.064  18.418  0.00  0.00    +0.000 N 
ATOM     10  C   UNL     1      52.038   3.307  18.149  0.00  0.00    +0.000 C 
ATOM     11  O   UNL     1      52.701   4.316  18.340  0.00  0.00    +0.000 OA
ATOM     12  H   UNL     1      53.516   2.036  18.695  0.00  0.00    +0.000 HD
ATOM     13  H   UNL     1      52.147   1.225  18.023  0.00  0.00    +0.000 HD
ENDBRANCH   3  10
ENDBRANCH   2   6
ENDBRANCH   1   2
BRANCH   1  14
ATOM     14  C   UNL     1      46.286   5.115  13.951  0.00  0.00    +0.000 C 
BRANCH  14  15
ATOM     15  C   UNL     1      45.193   4.735  12.981  0.00  0.00    +0.000 A 
ATOM     16  C   UNL     1      43.898   5.239  13.135  0.00  0.00    +0.000 A 
ATOM     17  C   UNL     1      42.912   4.949  12.187  0.00  0.00    +0.000 A 
ATOM     18  C   UNL     1      43.206   4.149  11.075  0.00  0.00    +0.000 A 
ATOM     19  C   UNL     1      44.490   3.630  10.920  0.00  0.00    +0.000 A 
ATOM     20  C   UNL     1      45.476   3.933  11.865  0.00  0.00    +0.000 A 
BRANCH  19  21
ATOM     21  O   UNL     1      44.918   2.858   9.866  0.00  0.00    +0.000 OA
BRANCH  21  22
ATOM     22  C   UNL     1      45.004   3.440   8.546  0.00  0.00    +0.000 C 
ATOM     23  C   UNL     1      46.063   2.896   7.577  0.00  0.00    +0.000 C 
ATOM     24  O   UNL     1      46.675   4.196   7.421  0.00  0.00    +0.000 OA
ATOM     25  C   UNL     1      45.821   4.743   8.452  0.00  0.00    +0.000 C 
ENDBRANCH  21  22
ENDBRANCH  19  21
ENDBRANCH  14  15
ENDBRANCH   1  14
TORSDOF 7
ENDMDL
MODEL 9
REMARK VINA RESULT:    -6.053      3.704      7.374
REMARK INTER + INTRA:          -9.490
REMARK INTER:                  -8.680
REMARK INTRA:                  -0.810
REMARK UNBOUND:                -0.959
REMARK  Name = 
REMARK  7 active torsions:
REMARK  status: ('A' for Active; 'I' for Inactive)
REMARK    1  A    between atoms: C_2  and  C_4
REMARK    2  A    between atoms: C_7  and  O_8
REMARK    3  A    between atoms: O_8  and  C_9
REMARK    4  A    between atoms: C_9  and  C_10
REMARK    5  A    between atoms: C_10  and  C_11
REMARK    6  A    between atoms: C_15  and  O_16
REMARK    7  A    between atoms: O_16  and  C_17
REMARK                            x       y       z     vdW  Elec       q    Type
REMARK                         _______ _______ _______ _____ _____    ______ ____
ROOT
ATOM      1  C   UNL     1      49.509   7.188  13.158  0.00  0.00    +0.000 C 
ENDROOT
BRANCH   1   2
ATOM      2  O   UNL     1      48.984   7.671  14.406  0.00  0.00    +0.000 OA
BRANCH   2   6
ATOM      3  C   UNL     1      48.003   4.571  16.941  0.00  0.00    +0.000 A 
ATOM      4  C   UNL     1      48.818   5.608  17.410  0.00  0.00    +0.000 A 
ATOM      5  C   UNL     1      49.151   6.656  16.545  0.00  0.00    +0.000 A 
ATOM      6  C   UNL     1      48.655   6.626  15.250  0.00  0.00    +0.000 A 
ATOM      7  N   UNL     1      47.874   5.630  14.779  0.00  0.00    +0.000 NA
ATOM      8  C   UNL     1      47.574   4.621  15.627  0.00  0.00    +0.000 A 
BRANCH   3  10
ATOM      9  N   UNL     1      48.343   3.136  18.869  0.00  0.00    +0.000 N 
ATOM     10  C   UNL     1      47.586   3.418  17.764  0.00  0.00    +0.000 C 
ATOM     11  O   UNL     1      46.583   2.770  17.500  0.00  0.00    +0.000 OA
ATOM     12  H   UNL     1      47.971   2.426  19.486  0.00  0.00    +0.000 HD
ATOM     13  H   UNL     1      48.992   3.802  19.260  0.00  0.00    +0.000 HD
ENDBRANCH   3  10
ENDBRANCH   2   6
ENDBRANCH   1   2
BRANCH   1  14
ATOM     14  C   UNL     1      48.921   7.983  11.994  0.00  0.00    +0.000 C 
BRANCH  14  15
ATOM     15  C   UNL     1      47.429   7.776  11.898  0.00  0.00    +0.000 A 
ATOM     16  C   UNL     1      46.545   8.815  12.206  0.00  0.00    +0.000 A 
ATOM     17  C   UNL     1      45.168   8.641  12.035  0.00  0.00    +0.000 A 
ATOM     18  C   UNL     1      44.657   7.428  11.557  0.00  0.00    +0.000 A 
ATOM     19  C   UNL     1      45.528   6.382  11.262  0.00  0.00    +0.000 A 
ATOM     20  C   UNL     1      46.905   6.564  11.423  0.00  0.00    +0.000 A 
BRANCH  19  21
ATOM     21  O   UNL     1      45.162   5.155  10.761  0.00  0.00    +0.000 OA
BRANCH  21  22
ATOM     22  C   UNL     1      45.027   4.030  11.658  0.00  0.00    +0.000 C 
ATOM     23  C   UNL     1      43.672   3.312  11.729  0.00  0.00    +0.000 C 
ATOM     24  O   UNL     1      43.550   3.556  13.149  0.00  0.00    +0.000 OA
ATOM     25  C   UNL     1      44.731   4.390  13.126  0.00  0.00    +0.000 C 
ENDBRANCH  21  22
ENDBRANCH  19  21
ENDBRANCH  14  15
ENDBRANCH   1  14
TORSDOF 7
ENDMDL
