MODEL 1
REMARK VINA RESULT:    -8.134      0.000      0.000
REMARK INTER + INTRA:         -11.969
REMARK INTER:                 -10.988
REMARK INTRA:                  -0.981
REMARK UNBOUND:                -0.981
REMARK  Name = 
REMARK  6 active torsions:
REMARK  status: ('A' for Active; 'I' for Inactive)
REMARK    1  A    between atoms: C_2  and  C_3
REMARK    2  A    between atoms: C_7  and  C_8
REMARK    3  A    between atoms: C_8  and  C_9
REMARK    4  A    between atoms: C_12  and  C_13
REMARK    5  A    between atoms: C_13  and  N_14
REMARK    6  A    between atoms: C_15  and  C_17
REMARK                            x       y       z     vdW  Elec       q    Type
REMARK                         _______ _______ _______ _____ _____    ______ ____
ROOT
ATOM      1  C   UNL     1      46.966   7.873  13.422  0.00  0.00    +0.000 C 
ENDROOT
BRANCH   1   5
ATOM      2  C   UNL     1      44.935   4.945  10.962  0.00  0.00    +0.000 A 
ATOM      3  C   UNL     1      44.566   6.296  10.912  0.00  0.00    +0.000 A 
ATOM      4  C   UNL     1      45.202   7.239  11.724  0.00  0.00    +0.000 A 
ATOM      5  C   UNL     1      46.231   6.853  12.591  0.00  0.00    +0.000 A 
ATOM      6  C   UNL     1      46.560   5.495  12.684  0.00  0.00    +0.000 A 
ATOM      7  C   UNL     1      45.925   4.551  11.871  0.00  0.00    +0.000 A 
BRANCH   2   8
ATOM      8  C   UNL     1      44.294   3.938  10.034  0.00  0.00    +0.000 C 
BRANCH   8  13
ATOM      9  C   UNL     1      46.347   1.559   7.853  0.00  0.00    +0.000 A 
ATOM     10  C   UNL     1      46.893   2.439   6.915  0.00  0.00    +0.000 A 
ATOM     11  C   UNL     1      46.620   3.805   7.002  0.00  0.00    +0.000 A 
ATOM     12  C   UNL     1      45.792   4.291   8.018  0.00  0.00    +0.000 A 
ATOM     13  C   UNL     1      45.218   3.418   8.954  0.00  0.00    +0.000 A 
ATOM     14  C   UNL     1      45.516   2.047   8.869  0.00  0.00    +0.000 A 
BRANCH   9  16
ATOM     15  N   UNL     1      46.856  -0.982   7.706  0.00  0.00    +0.000 NA
ATOM     16  C   UNL     1      46.630   0.157   7.772  0.00  0.00    +0.000 C 
ENDBRANCH   9  16
ENDBRANCH   8  13
ENDBRANCH   2   8
ENDBRANCH   1   5
BRANCH   1  17
ATOM     17  N   UNL     1      47.453   7.302  14.650  0.00  0.00    +0.000 N 
ATOM     18  C   UNL     1      48.749   6.871  14.766  0.00  0.00    +0.000 C 
ATOM     19  O   UNL     1      49.562   6.988  13.851  0.00  0.00    +0.000 OA
ATOM     20  H   UNL     1      46.757   6.980  15.315  0.00  0.00    +0.000 HD
BRANCH  18  21
ATOM     21  C   UNL     1      49.139   6.326  16.071  0.00  0.00    +0.000 A 
ATOM     22  C   UNL     1      50.124   6.958  16.817  0.00  0.00    +0.000 A 
ATOM     23  S   UNL     1      50.389   6.243  18.343  0.00  0.00    +0.000 S 
ATOM     24  C   UNL     1      49.239   5.027  18.034  0.00  0.00    +0.000 A 
ATOM     25  N   UNL     1      48.979   4.058  18.952  0.00  0.00    +0.000 NA
ATOM     26  C   UNL     1      48.112   3.180  18.571  0.00  0.00    +0.000 A 
ATOM     27  N   UNL     1      47.479   3.185  17.354  0.00  0.00    +0.000 N 
ATOM     28  C   UNL     1      47.683   4.160  16.409  0.00  0.00    +0.000 A 
ATOM     29  O   UNL     1      47.070   4.159  15.347  0.00  0.00    +0.000 OA
ATOM     30  C   UNL     1      48.656   5.170  16.788  0.00  0.00    +0.000 A 
ATOM     31  H   UNL     1      46.809   2.469  17.116  0.00  0.00    +0.000 HD
ENDBRANCH  18  21
ENDBRANCH   1  17
TORSDOF 6
ENDMDL
MODEL 2
REMARK VINA RESULT:    -8.045      1.914      2.312
REMARK INTER + INTRA:         -11.848
REMARK INTER:                 -10.898
REMARK INTRA:                  -0.950
REMARK UNBOUND:                -0.981
REMARK  Name = 
REMARK  6 active torsions:
REMARK  status: ('A' for Active; 'I' for Inactive)
REMARK    1  A    between atoms: C_2  and  C_3
REMARK    2  A    between atoms: C_7  and  C_8
REMARK    3  A    between atoms: C_8  and  C_9
REMARK    4  A    between atoms: C_12  and  C_13
REMARK    5  A    between atoms: C_13  and  N_14
REMARK    6  A    between atoms: C_15  and  C_17
REMARK                            x       y       z     vdW  Elec       q    Type
REMARK                         _______ _______ _______ _____ _____    ______ ____
ROOT
ATOM      1  C   UNL     1      47.963   7.010  13.905  0.00  0.00    +0.000 C 
ENDROOT
BRANCH   1   5
ATOM      2  C   UNL     1      45.371   4.827  11.208  0.00  0.00    +0.000 A 
ATOM      3  C   UNL     1      45.828   6.109  10.875  0.00  0.00    +0.000 A 
ATOM      4  C   UNL     1      46.644   6.827  11.755  0.00  0.00    +0.000 A 
ATOM      5  C   UNL     1      47.031   6.270  12.980  0.00  0.00    +0.000 A 
ATOM      6  C   UNL     1      46.528   5.014  13.339  0.00  0.00    +0.000 A 
ATOM      7  C   UNL     1      45.713   4.295  12.459  0.00  0.00    +0.000 A 
BRANCH   2   8
ATOM      8  C   UNL     1      44.546   4.025  10.228  0.00  0.00    +0.000 C 
BRANCH   8  13
ATOM      9  C   UNL     1      46.337   1.606   7.867  0.00  0.00    +0.000 A 
ATOM     10  C   UNL     1      46.755   2.466   6.849  0.00  0.00    +0.000 A 
ATOM     11  C   UNL     1      46.482   3.832   6.935  0.00  0.00    +0.000 A 
ATOM     12  C   UNL     1      45.780   4.338   8.035  0.00  0.00    +0.000 A 
ATOM     13  C   UNL     1      45.335   3.484   9.055  0.00  0.00    +0.000 A 
ATOM     14  C   UNL     1      45.633   2.114   8.966  0.00  0.00    +0.000 A 
BRANCH   9  16
ATOM     15  N   UNL     1      46.857  -0.933   7.722  0.00  0.00    +0.000 NA
ATOM     16  C   UNL     1      46.622   0.204   7.786  0.00  0.00    +0.000 C 
ENDBRANCH   9  16
ENDBRANCH   8  13
ENDBRANCH   2   8
ENDBRANCH   1   5
BRANCH   1  17
ATOM     17  N   UNL     1      47.859   6.526  15.256  0.00  0.00    +0.000 N 
ATOM     18  C   UNL     1      48.978   6.270  16.006  0.00  0.00    +0.000 C 
ATOM     19  O   UNL     1      50.112   6.479  15.580  0.00  0.00    +0.000 OA
ATOM     20  H   UNL     1      46.968   6.126  15.533  0.00  0.00    +0.000 HD
BRANCH  18  21
ATOM     21  C   UNL     1      48.749   5.801  17.376  0.00  0.00    +0.000 A 
ATOM     22  C   UNL     1      48.976   4.471  17.699  0.00  0.00    +0.000 A 
ATOM     23  S   UNL     1      48.743   4.119  19.352  0.00  0.00    +0.000 S 
ATOM     24  C   UNL     1      48.272   5.721  19.682  0.00  0.00    +0.000 A 
ATOM     25  N   UNL     1      47.918   6.102  20.938  0.00  0.00    +0.000 NA
ATOM     26  C   UNL     1      47.547   7.335  21.038  0.00  0.00    +0.000 A 
ATOM     27  N   UNL     1      47.500   8.222  19.993  0.00  0.00    +0.000 N 
ATOM     28  C   UNL     1      47.878   7.893  18.715  0.00  0.00    +0.000 A 
ATOM     29  O   UNL     1      47.863   8.721  17.811  0.00  0.00    +0.000 OA
ATOM     30  C   UNL     1      48.299   6.513  18.549  0.00  0.00    +0.000 A 
ATOM     31  H   UNL     1      47.200   9.175  20.137  0.00  0.00    +0.000 HD
ENDBRANCH  18  21
ENDBRANCH   1  17
TORSDOF 6
ENDMDL
MODEL 3
REMARK VINA RESULT:    -7.829      2.255      3.924
REMARK INTER + INTRA:         -11.556
REMARK INTER:                 -10.299
REMARK INTRA:                  -1.257
REMARK UNBOUND:                -0.981
REMARK  Name = 
REMARK  6 active torsions:
REMARK  status: ('A' for Active; 'I' for Inactive)
REMARK    1  A    between atoms: C_2  and  C_3
REMARK    2  A    between atoms: C_7  and  C_8
REMARK    3  A    between atoms: C_8  and  C_9
REMARK    4  A    between atoms: C_12  and  C_13
REMARK    5  A    between atoms: C_13  and  N_14
REMARK    6  A    between atoms: C_15  and  C_17
REMARK                            x       y       z     vdW  Elec       q    Type
REMARK                         _______ _______ _______ _____ _____    ______ ____
ROOT
ATOM      1  C   UNL     1      46.937   5.069  14.458  0.00  0.00    +0.000 C 
ENDROOT
BRANCH   1   5
ATOM      2  C   UNL     1      45.018   4.228  10.668  0.00  0.00    +0.000 A 
ATOM      3  C   UNL     1      45.568   5.491  10.923  0.00  0.00    +0.000 A 
ATOM      4  C   UNL     1      46.165   5.774  12.156  0.00  0.00    +0.000 A 
ATOM      5  C   UNL     1      46.238   4.794  13.152  0.00  0.00    +0.000 A 
ATOM      6  C   UNL     1      45.637   3.550  12.920  0.00  0.00    +0.000 A 
ATOM      7  C   UNL     1      45.041   3.266  11.687  0.00  0.00    +0.000 A 
BRANCH   2   8
ATOM      8  C   UNL     1      44.435   3.902   9.312  0.00  0.00    +0.000 C 
BRANCH   8  13
ATOM      9  C   UNL     1      46.558   1.235   7.576  0.00  0.00    +0.000 A 
ATOM     10  C   UNL     1      47.178   1.982   6.572  0.00  0.00    +0.000 A 
ATOM     11  C   UNL     1      46.933   3.351   6.469  0.00  0.00    +0.000 A 
ATOM     12  C   UNL     1      46.057   3.975   7.364  0.00  0.00    +0.000 A 
ATOM     13  C   UNL     1      45.409   3.236   8.365  0.00  0.00    +0.000 A 
ATOM     14  C   UNL     1      45.680   1.861   8.470  0.00  0.00    +0.000 A 
BRANCH   9  16
ATOM     15  N   UNL     1      47.019  -1.311   7.786  0.00  0.00    +0.000 NA
ATOM     16  C   UNL     1      46.813  -0.170   7.690  0.00  0.00    +0.000 C 
ENDBRANCH   9  16
ENDBRANCH   8  13
ENDBRANCH   2   8
ENDBRANCH   1   5
BRANCH   1  17
ATOM     17  N   UNL     1      47.537   6.377  14.471  0.00  0.00    +0.000 N 
ATOM     18  C   UNL     1      48.657   6.636  15.218  0.00  0.00    +0.000 C 
ATOM     19  O   UNL     1      49.222   5.763  15.873  0.00  0.00    +0.000 OA
ATOM     20  H   UNL     1      46.964   7.148  14.144  0.00  0.00    +0.000 HD
BRANCH  18  21
ATOM     21  C   UNL     1      49.192   7.999  15.136  0.00  0.00    +0.000 A 
ATOM     22  C   UNL     1      49.200   8.807  16.265  0.00  0.00    +0.000 A 
ATOM     23  S   UNL     1      49.935  10.325  16.012  0.00  0.00    +0.000 S 
ATOM     24  C   UNL     1      50.212   9.979  14.369  0.00  0.00    +0.000 A 
ATOM     25  N   UNL     1      50.812  10.886  13.553  0.00  0.00    +0.000 NA
ATOM     26  C   UNL     1      50.925  10.506  12.324  0.00  0.00    +0.000 A 
ATOM     27  N   UNL     1      50.493   9.299  11.837  0.00  0.00    +0.000 N 
ATOM     28  C   UNL     1      49.913   8.339  12.628  0.00  0.00    +0.000 A 
ATOM     29  O   UNL     1      49.575   7.253  12.170  0.00  0.00    +0.000 OA
ATOM     30  C   UNL     1      49.757   8.720  14.020  0.00  0.00    +0.000 A 
ATOM     31  H   UNL     1      50.612   9.061  10.864  0.00  0.00    +0.000 HD
ENDBRANCH  18  21
ENDBRANCH   1  17
TORSDOF 6
ENDMDL
MODEL 4
REMARK VINA RESULT:    -7.646      2.709      3.931
REMARK INTER + INTRA:         -11.309
REMARK INTER:                 -10.214
REMARK INTRA:                  -1.095
REMARK UNBOUND:                -0.981
REMARK  Name = 
REMARK  6 active torsions:
REMARK  status: ('A' for Active; 'I' for Inactive)
REMARK    1  A    between atoms: C_2  and  C_3
REMARK    2  A    between atoms: C_7  and  C_8
REMARK    3  A    between atoms: C_8  and  C_9
REMARK    4  A    between atoms: C_12  and  C_13
REMARK    5  A    between atoms: C_13  and  N_14
REMARK    6  A    between atoms: C_15  and  C_17
REMARK                            x       y       z     vdW  Elec       q    Type
REMARK                         _______ _______ _______ _____ _____    ______ ____
ROOT
ATOM      1  C   UNL     1      47.422   5.561  14.628  0.00  0.00    +0.000 C 
ENDROOT
BRANCH   1   5
ATOM      2  C   UNL     1      45.115   4.399  11.154  0.00  0.00    +0.000 A 
ATOM      3  C   UNL     1      45.637   5.694  11.260  0.00  0.00    +0.000 A 
ATOM      4  C   UNL     1      46.360   6.081  12.393  0.00  0.00    +0.000 A 
ATOM      5  C   UNL     1      46.589   5.174  13.435  0.00  0.00    +0.000 A 
ATOM      6  C   UNL     1      46.018   3.898  13.355  0.00  0.00    +0.000 A 
ATOM      7  C   UNL     1      45.295   3.510  12.222  0.00  0.00    +0.000 A 
BRANCH   2   8
ATOM      8  C   UNL     1      44.392   3.961   9.900  0.00  0.00    +0.000 C 
BRANCH   8  13
ATOM      9  C   UNL     1      46.398   1.494   7.774  0.00  0.00    +0.000 A 
ATOM     10  C   UNL     1      46.946   2.339   6.806  0.00  0.00    +0.000 A 
ATOM     11  C   UNL     1      46.690   3.710   6.853  0.00  0.00    +0.000 A 
ATOM     12  C   UNL     1      45.876   4.236   7.862  0.00  0.00    +0.000 A 
ATOM     13  C   UNL     1      45.300   3.398   8.828  0.00  0.00    +0.000 A 
ATOM     14  C   UNL     1      45.582   2.022   8.782  0.00  0.00    +0.000 A 
BRANCH   9  16
ATOM     15  N   UNL     1      46.887  -1.055   7.702  0.00  0.00    +0.000 NA
ATOM     16  C   UNL     1      46.665   0.087   7.734  0.00  0.00    +0.000 C 
ENDBRANCH   9  16
ENDBRANCH   8  13
ENDBRANCH   2   8
ENDBRANCH   1   5
BRANCH   1  17
ATOM     17  N   UNL     1      47.806   6.947  14.578  0.00  0.00    +0.000 N 
ATOM     18  C   UNL     1      49.081   7.342  14.889  0.00  0.00    +0.000 C 
ATOM     19  O   UNL     1      49.961   6.536  15.183  0.00  0.00    +0.000 OA
ATOM     20  H   UNL     1      47.055   7.631  14.578  0.00  0.00    +0.000 HD
BRANCH  18  21
ATOM     21  C   UNL     1      49.361   8.778  14.782  0.00  0.00    +0.000 A 
ATOM     22  C   UNL     1      50.132   9.255  13.731  0.00  0.00    +0.000 A 
ATOM     23  S   UNL     1      50.284  10.954  13.712  0.00  0.00    +0.000 S 
ATOM     24  C   UNL     1      49.376  11.106  15.143  0.00  0.00    +0.000 A 
ATOM     25  N   UNL     1      49.136  12.325  15.694  0.00  0.00    +0.000 NA
ATOM     26  C   UNL     1      48.466  12.290  16.798  0.00  0.00    +0.000 A 
ATOM     27  N   UNL     1      48.013  11.144  17.399  0.00  0.00    +0.000 N 
ATOM     28  C   UNL     1      48.202   9.894  16.864  0.00  0.00    +0.000 A 
ATOM     29  O   UNL     1      47.748   8.892  17.406  0.00  0.00    +0.000 OA
ATOM     30  C   UNL     1      48.956   9.879  15.624  0.00  0.00    +0.000 A 
ATOM     31  H   UNL     1      47.493  11.184  18.263  0.00  0.00    +0.000 HD
ENDBRANCH  18  21
ENDBRANCH   1  17
TORSDOF 6
ENDMDL
MODEL 5
REMARK VINA RESULT:    -7.608      1.688      2.383
REMARK INTER + INTRA:         -11.258
REMARK INTER:                 -10.344
REMARK INTRA:                  -0.914
REMARK UNBOUND:                -0.981
REMARK  Name = 
REMARK  6 active torsions:
REMARK  status: ('A' for Active; 'I' for Inactive)
REMARK    1  A    between atoms: C_2  and  C_3
REMARK    2  A    between atoms: C_7  and  C_8
REMARK    3  A    between atoms: C_8  and  C_9
REMARK    4  A    between atoms: C_12  and  C_13
REMARK    5  A    between atoms: C_13  and  N_14
REMARK    6  A    between atoms: C_15  and  C_17
REMARK                            x       y       z     vdW  Elec       q    Type
REMARK                         _______ _______ _______ _____ _____    ______ ____
ROOT
ATOM      1  C   UNL     1      47.264   7.187  13.614  0.00  0.00    +0.000 C 
ENDROOT
BRANCH   1   5
ATOM      2  C   UNL     1      45.047   4.692  10.855  0.00  0.00    +0.000 A 
ATOM      3  C   UNL     1      45.222   6.057  10.596  0.00  0.00    +0.000 A 
ATOM      4  C   UNL     1      45.916   6.871  11.498  0.00  0.00    +0.000 A 
ATOM      5  C   UNL     1      46.460   6.331  12.669  0.00  0.00    +0.000 A 
ATOM      6  C   UNL     1      46.235   4.979  12.956  0.00  0.00    +0.000 A 
ATOM      7  C   UNL     1      45.543   4.165  12.054  0.00  0.00    +0.000 A 
BRANCH   2   8
ATOM      8  C   UNL     1      44.358   3.800   9.847  0.00  0.00    +0.000 C 
BRANCH   8  13
ATOM      9  C   UNL     1      46.430   1.355   7.760  0.00  0.00    +0.000 A 
ATOM     10  C   UNL     1      46.947   2.198   6.772  0.00  0.00    +0.000 A 
ATOM     11  C   UNL     1      46.649   3.561   6.795  0.00  0.00    +0.000 A 
ATOM     12  C   UNL     1      45.824   4.081   7.797  0.00  0.00    +0.000 A 
ATOM     13  C   UNL     1      45.278   3.245   8.782  0.00  0.00    +0.000 A 
ATOM     14  C   UNL     1      45.602   1.878   8.761  0.00  0.00    +0.000 A 
BRANCH   9  16
ATOM     15  N   UNL     1      46.987  -1.180   7.735  0.00  0.00    +0.000 NA
ATOM     16  C   UNL     1      46.740  -0.043   7.745  0.00  0.00    +0.000 C 
ENDBRANCH   9  16
ENDBRANCH   8  13
ENDBRANCH   2   8
ENDBRANCH   1   5
BRANCH   1  17
ATOM     17  N   UNL     1      47.969   6.387  14.580  0.00  0.00    +0.000 N 
ATOM     18  C   UNL     1      48.582   6.961  15.664  0.00  0.00    +0.000 C 
ATOM     19  O   UNL     1      48.525   8.169  15.883  0.00  0.00    +0.000 OA
ATOM     20  H   UNL     1      48.229   5.447  14.297  0.00  0.00    +0.000 HD
BRANCH  18  21
ATOM     21  C   UNL     1      49.251   6.044  16.593  0.00  0.00    +0.000 A 
ATOM     22  C   UNL     1      48.495   5.211  17.407  0.00  0.00    +0.000 A 
ATOM     23  S   UNL     1      49.434   4.153  18.359  0.00  0.00    +0.000 S 
ATOM     24  C   UNL     1      50.884   4.813  17.762  0.00  0.00    +0.000 A 
ATOM     25  N   UNL     1      52.091   4.355  18.189  0.00  0.00    +0.000 NA
ATOM     26  C   UNL     1      53.106   4.971  17.681  0.00  0.00    +0.000 A 
ATOM     27  N   UNL     1      53.023   6.003  16.783  0.00  0.00    +0.000 N 
ATOM     28  C   UNL     1      51.830   6.479  16.299  0.00  0.00    +0.000 A 
ATOM     29  O   UNL     1      51.791   7.377  15.464  0.00  0.00    +0.000 OA
ATOM     30  C   UNL     1      50.655   5.822  16.843  0.00  0.00    +0.000 A 
ATOM     31  H   UNL     1      53.856   6.444  16.422  0.00  0.00    +0.000 HD
ENDBRANCH  18  21
ENDBRANCH   1  17
TORSDOF 6
ENDMDL
MODEL 6
REMARK VINA RESULT:    -7.439      1.262      2.017
REMARK INTER + INTRA:         -11.029
REMARK INTER:                  -9.844
REMARK INTRA:                  -1.185
REMARK UNBOUND:                -0.981
REMARK  Name = 
REMARK  6 active torsions:
REMARK  status: ('A' for Active; 'I' for Inactive)
REMARK    1  A    between atoms: C_2  and  C_3
REMARK    2  A    between atoms: C_7  and  C_8
REMARK    3  A    between atoms: C_8  and  C_9
REMARK    4  A    between atoms: C_12  and  C_13
REMARK    5  A    between atoms: C_13  and  N_14
REMARK    6  A    between atoms: C_15  and  C_17
REMARK                            x       y       z     vdW  Elec       q    Type
REMARK                         _______ _______ _______ _____ _____    ______ ____
ROOT
ATOM      1  C   UNL     1      47.703   8.372  13.748  0.00  0.00    +0.000 C 
ENDROOT
BRANCH   1   5
ATOM      2  C   UNL     1      44.819   6.137  11.416  0.00  0.00    +0.000 A 
ATOM      3  C   UNL     1      45.906   5.488  12.014  0.00  0.00    +0.000 A 
ATOM      4  C   UNL     1      46.854   6.211  12.746  0.00  0.00    +0.000 A 
ATOM      5  C   UNL     1      46.723   7.595  12.907  0.00  0.00    +0.000 A 
ATOM      6  C   UNL     1      45.669   8.253  12.261  0.00  0.00    +0.000 A 
ATOM      7  C   UNL     1      44.720   7.530  11.530  0.00  0.00    +0.000 A 
BRANCH   2   8
ATOM      8  C   UNL     1      43.759   5.347  10.684  0.00  0.00    +0.000 C 
BRANCH   8  13
ATOM      9  C   UNL     1      45.567   3.315   7.994  0.00  0.00    +0.000 A 
ATOM     10  C   UNL     1      45.350   2.008   8.437  0.00  0.00    +0.000 A 
ATOM     11  C   UNL     1      44.599   1.779   9.591  0.00  0.00    +0.000 A 
ATOM     12  C   UNL     1      44.072   2.858  10.309  0.00  0.00    +0.000 A 
ATOM     13  C   UNL     1      44.299   4.177   9.889  0.00  0.00    +0.000 A 
ATOM     14  C   UNL     1      45.040   4.394   8.715  0.00  0.00    +0.000 A 
BRANCH   9  16
ATOM     15  N   UNL     1      46.953   3.752   5.843  0.00  0.00    +0.000 NA
ATOM     16  C   UNL     1      46.331   3.553   6.806  0.00  0.00    +0.000 C 
ENDBRANCH   9  16
ENDBRANCH   8  13
ENDBRANCH   2   8
ENDBRANCH   1   5
BRANCH   1  17
ATOM     17  N   UNL     1      48.019   7.677  14.968  0.00  0.00    +0.000 N 
ATOM     18  C   UNL     1      49.283   7.202  15.206  0.00  0.00    +0.000 C 
ATOM     19  O   UNL     1      50.208   7.382  14.417  0.00  0.00    +0.000 OA
ATOM     20  H   UNL     1      47.238   7.313  15.505  0.00  0.00    +0.000 HD
BRANCH  18  21
ATOM     21  C   UNL     1      49.492   6.529  16.492  0.00  0.00    +0.000 A 
ATOM     22  C   UNL     1      50.334   7.095  17.440  0.00  0.00    +0.000 A 
ATOM     23  S   UNL     1      50.393   6.226  18.906  0.00  0.00    +0.000 S 
ATOM     24  C   UNL     1      49.344   5.030  18.303  0.00  0.00    +0.000 A 
ATOM     25  N   UNL     1      48.985   3.963  19.066  0.00  0.00    +0.000 NA
ATOM     26  C   UNL     1      48.215   3.115  18.471  0.00  0.00    +0.000 A 
ATOM     27  N   UNL     1      47.770   3.238  17.179  0.00  0.00    +0.000 N 
ATOM     28  C   UNL     1      48.078   4.312  16.382  0.00  0.00    +0.000 A 
ATOM     29  O   UNL     1      47.630   4.413  15.244  0.00  0.00    +0.000 OA
ATOM     30  C   UNL     1      48.948   5.294  17.004  0.00  0.00    +0.000 A 
ATOM     31  H   UNL     1      47.168   2.540  16.770  0.00  0.00    +0.000 HD
ENDBRANCH  18  21
ENDBRANCH   1  17
TORSDOF 6
ENDMDL
MODEL 7
REMARK VINA RESULT:    -7.076      2.992      8.590
REMARK INTER + INTRA:         -10.539
REMARK INTER:                  -9.322
REMARK INTRA:                  -1.218
REMARK UNBOUND:                -0.981
REMARK  Name = 
REMARK  6 active torsions:
REMARK  status: ('A' for Active; 'I' for Inactive)
REMARK    1  A    between atoms: C_2  and  C_3
REMARK    2  A    between atoms: C_7  and  C_8
REMARK    3  A    between atoms: C_8  and  C_9
REMARK    4  A    between atoms: C_12  and  C_13
REMARK    5  A    between atoms: C_13  and  N_14
REMARK    6  A    between atoms: C_15  and  C_17
REMARK                            x       y       z     vdW  Elec       q    Type
REMARK                         _______ _______ _______ _____ _____    ______ ____
ROOT
ATOM      1  C   UNL     1      47.572   7.957  11.947  0.00  0.00    +0.000 C 
ENDROOT
BRANCH   1   5
ATOM      2  C   UNL     1      49.517   8.058  15.814  0.00  0.00    +0.000 A 
ATOM      3  C   UNL     1      48.337   8.779  15.592  0.00  0.00    +0.000 A 
ATOM      4  C   UNL     1      47.721   8.769  14.337  0.00  0.00    +0.000 A 
ATOM      5  C   UNL     1      48.265   8.025  13.283  0.00  0.00    +0.000 A 
ATOM      6  C   UNL     1      49.475   7.352  13.488  0.00  0.00    +0.000 A 
ATOM      7  C   UNL     1      50.091   7.360  14.743  0.00  0.00    +0.000 A 
BRANCH   2   8
ATOM      8  C   UNL     1      50.145   8.013  17.189  0.00  0.00    +0.000 C 
BRANCH   8  13
ATOM      9  C   UNL     1      48.384   4.804  18.299  0.00  0.00    +0.000 A 
ATOM     10  C   UNL     1      48.914   4.622  19.579  0.00  0.00    +0.000 A 
ATOM     11  C   UNL     1      49.820   5.549  20.095  0.00  0.00    +0.000 A 
ATOM     12  C   UNL     1      50.207   6.653  19.328  0.00  0.00    +0.000 A 
ATOM     13  C   UNL     1      49.701   6.838  18.033  0.00  0.00    +0.000 A 
ATOM     14  C   UNL     1      48.774   5.909  17.532  0.00  0.00    +0.000 A 
BRANCH   9  16
ATOM     15  N   UNL     1      46.689   3.092  17.333  0.00  0.00    +0.000 NA
ATOM     16  C   UNL     1      47.447   3.859  17.768  0.00  0.00    +0.000 C 
ENDBRANCH   9  16
ENDBRANCH   8  13
ENDBRANCH   2   8
ENDBRANCH   1   5
BRANCH   1  17
ATOM     17  N   UNL     1      46.898   6.698  11.765  0.00  0.00    +0.000 N 
ATOM     18  C   UNL     1      45.530   6.616  11.791  0.00  0.00    +0.000 C 
ATOM     19  O   UNL     1      44.819   7.609  11.926  0.00  0.00    +0.000 OA
ATOM     20  H   UNL     1      47.453   5.858  11.895  0.00  0.00    +0.000 HD
BRANCH  18  21
ATOM     21  C   UNL     1      44.955   5.285  11.573  0.00  0.00    +0.000 A 
ATOM     22  C   UNL     1      44.268   4.653  12.600  0.00  0.00    +0.000 A 
ATOM     23  S   UNL     1      43.592   3.153  12.148  0.00  0.00    +0.000 S 
ATOM     24  C   UNL     1      44.246   3.269  10.581  0.00  0.00    +0.000 A 
ATOM     25  N   UNL     1      44.049   2.284   9.665  0.00  0.00    +0.000 NA
ATOM     26  C   UNL     1      44.633   2.485   8.531  0.00  0.00    +0.000 A 
ATOM     27  N   UNL     1      45.395   3.584   8.229  0.00  0.00    +0.000 N 
ATOM     28  C   UNL     1      45.596   4.619   9.109  0.00  0.00    +0.000 A 
ATOM     29  O   UNL     1      46.249   5.607   8.795  0.00  0.00    +0.000 OA
ATOM     30  C   UNL     1      44.963   4.438  10.404  0.00  0.00    +0.000 A 
ATOM     31  H   UNL     1      45.826   3.683   7.322  0.00  0.00    +0.000 HD
ENDBRANCH  18  21
ENDBRANCH   1  17
TORSDOF 6
ENDMDL
MODEL 8
REMARK VINA RESULT:    -7.065      4.677     10.088
REMARK INTER + INTRA:         -10.525
REMARK INTER:                  -9.305
REMARK INTRA:                  -1.219
REMARK UNBOUND:                -0.981
REMARK  Name = 
REMARK  6 active torsions:
REMARK  status: ('A' for Active; 'I' for Inactive)
REMARK    1  A    between atoms: C_2  and  C_3
REMARK    2  A    between atoms: C_7  and  C_8
REMARK    3  A    between atoms: C_8  and  C_9
REMARK    4  A    between atoms: C_12  and  C_13
REMARK    5  A    between atoms: C_13  and  N_14
REMARK    6  A    between atoms: C_15  and  C_17
REMARK                            x       y       z     vdW  Elec       q    Type
REMARK                         _______ _______ _______ _____ _____    ______ ____
ROOT
ATOM      1  C   UNL     1      48.088   4.772  16.267  0.00  0.00    +0.000 C 
ENDROOT
BRANCH   1   5
ATOM      2  C   UNL     1      48.139   7.797  19.365  0.00  0.00    +0.000 A 
ATOM      3  C   UNL     1      47.363   6.641  19.512  0.00  0.00    +0.000 A 
ATOM      4  C   UNL     1      47.323   5.674  18.502  0.00  0.00    +0.000 A 
ATOM      5  C   UNL     1      48.073   5.838  17.331  0.00  0.00    +0.000 A 
ATOM      6  C   UNL     1      48.803   7.021  17.159  0.00  0.00    +0.000 A 
ATOM      7  C   UNL     1      48.844   7.987  18.169  0.00  0.00    +0.000 A 
BRANCH   2   8
ATOM      8  C   UNL     1      48.235   8.807  20.485  0.00  0.00    +0.000 C 
BRANCH   8  13
ATOM      9  C   UNL     1      45.286  11.244  20.445  0.00  0.00    +0.000 A 
ATOM     10  C   UNL     1      45.876  12.389  19.904  0.00  0.00    +0.000 A 
ATOM     11  C   UNL     1      47.219  12.368  19.527  0.00  0.00    +0.000 A 
ATOM     12  C   UNL     1      47.978  11.206  19.702  0.00  0.00    +0.000 A 
ATOM     13  C   UNL     1      47.406  10.055  20.264  0.00  0.00    +0.000 A 
ATOM     14  C   UNL     1      46.048  10.082  20.621  0.00  0.00    +0.000 A 
BRANCH   9  16
ATOM     15  N   UNL     1      42.783  11.273  21.132  0.00  0.00    +0.000 NA
ATOM     16  C   UNL     1      43.905  11.259  20.826  0.00  0.00    +0.000 C 
ENDBRANCH   9  16
ENDBRANCH   8  13
ENDBRANCH   2   8
ENDBRANCH   1   5
BRANCH   1  17
ATOM     17  N   UNL     1      47.100   5.025  15.251  0.00  0.00    +0.000 N 
ATOM     18  C   UNL     1      47.434   5.654  14.080  0.00  0.00    +0.000 C 
ATOM     19  O   UNL     1      48.588   5.991  13.824  0.00  0.00    +0.000 OA
ATOM     20  H   UNL     1      46.127   4.979  15.536  0.00  0.00    +0.000 HD
BRANCH  18  21
ATOM     21  C   UNL     1      46.349   5.839  13.110  0.00  0.00    +0.000 A 
ATOM     22  C   UNL     1      45.976   7.120  12.727  0.00  0.00    +0.000 A 
ATOM     23  S   UNL     1      44.761   7.148  11.530  0.00  0.00    +0.000 S 
ATOM     24  C   UNL     1      44.649   5.450  11.527  0.00  0.00    +0.000 A 
ATOM     25  N   UNL     1      43.766   4.807  10.716  0.00  0.00    +0.000 NA
ATOM     26  C   UNL     1      43.762   3.522  10.843  0.00  0.00    +0.000 A 
ATOM     27  N   UNL     1      44.562   2.821  11.708  0.00  0.00    +0.000 N 
ATOM     28  C   UNL     1      45.490   3.422  12.522  0.00  0.00    +0.000 A 
ATOM     29  O   UNL     1      46.220   2.763  13.255  0.00  0.00    +0.000 OA
ATOM     30  C   UNL     1      45.531   4.870  12.420  0.00  0.00    +0.000 A 
ATOM     31  H   UNL     1      44.511   1.815  11.761  0.00  0.00    +0.000 HD
ENDBRANCH  18  21
ENDBRANCH   1  17
TORSDOF 6
ENDMDL
MODEL 9
REMARK VINA RESULT:    -7.000      5.234      7.549
REMARK INTER + INTRA:         -10.437
REMARK INTER:                  -9.375
REMARK INTRA:                  -1.061
REMARK UNBOUND:                -0.981
REMARK  Name = 
REMARK  6 active torsions:
REMARK  status: ('A' for Active; 'I' for Inactive)
REMARK    1  A    between atoms: C_2  and  C_3
REMARK    2  A    between atoms: C_7  and  C_8
REMARK    3  A    between atoms: C_8  and  C_9
REMARK    4  A    between atoms: C_12  and  C_13
REMARK    5  A    between atoms: C_13  and  N_14
REMARK    6  A    between atoms: C_15  and  C_17
REMARK                            x       y       z     vdW  Elec       q    Type
REMARK                         _______ _______ _______ _____ _____    ______ ____
ROOT
ATOM      1  C   UNL     1      46.686   8.443  12.507  0.00  0.00    +0.000 C 
ENDROOT
BRANCH   1   5
ATOM      2  C   UNL     1      50.807   8.842  11.238  0.00  0.00    +0.000 A 
ATOM      3  C   UNL     1      49.991   9.972  11.371  0.00  0.00    +0.000 A 
ATOM      4  C   UNL     1      48.653   9.844  11.756  0.00  0.00    +0.000 A 
ATOM      5  C   UNL     1      48.108   8.584  12.029  0.00  0.00    +0.000 A 
ATOM      6  C   UNL     1      48.907   7.449  11.840  0.00  0.00    +0.000 A 
ATOM      7  C   UNL     1      50.246   7.576  11.457  0.00  0.00    +0.000 A 
BRANCH   2   8
ATOM      8  C   UNL     1      52.271   8.986  10.890  0.00  0.00    +0.000 C 
BRANCH   8  13
ATOM      9  C   UNL     1      52.928   7.180   7.582  0.00  0.00    +0.000 A 
ATOM     10  C   UNL     1      53.122   8.255   6.710  0.00  0.00    +0.000 A 
ATOM     11  C   UNL     1      53.066   9.563   7.194  0.00  0.00    +0.000 A 
ATOM     12  C   UNL     1      52.805   9.799   8.548  0.00  0.00    +0.000 A 
ATOM     13  C   UNL     1      52.587   8.732   9.431  0.00  0.00    +0.000 A 
ATOM     14  C   UNL     1      52.665   7.419   8.937  0.00  0.00    +0.000 A 
BRANCH   9  16
ATOM     15  N   UNL     1      53.041   4.743   6.696  0.00  0.00    +0.000 NA
ATOM     16  C   UNL     1      52.992   5.836   7.091  0.00  0.00    +0.000 C 
ENDBRANCH   9  16
ENDBRANCH   8  13
ENDBRANCH   2   8
ENDBRANCH   1   5
BRANCH   1  17
ATOM     17  N   UNL     1      46.203   7.098  12.337  0.00  0.00    +0.000 N 
ATOM     18  C   UNL     1      45.001   6.848  11.726  0.00  0.00    +0.000 C 
ATOM     19  O   UNL     1      44.305   7.749  11.262  0.00  0.00    +0.000 OA
ATOM     20  H   UNL     1      46.631   6.380  12.913  0.00  0.00    +0.000 HD
BRANCH  18  21
ATOM     21  C   UNL     1      44.622   5.438  11.589  0.00  0.00    +0.000 A 
ATOM     22  C   UNL     1      43.944   4.802  12.620  0.00  0.00    +0.000 A 
ATOM     23  S   UNL     1      43.506   3.194  12.258  0.00  0.00    +0.000 S 
ATOM     24  C   UNL     1      44.261   3.273  10.735  0.00  0.00    +0.000 A 
ATOM     25  N   UNL     1      44.266   2.201   9.899  0.00  0.00    +0.000 NA
ATOM     26  C   UNL     1      44.906   2.388   8.793  0.00  0.00    +0.000 A 
ATOM     27  N   UNL     1      45.541   3.554   8.448  0.00  0.00    +0.000 N 
ATOM     28  C   UNL     1      45.536   4.672   9.244  0.00  0.00    +0.000 A 
ATOM     29  O   UNL     1      46.078   5.713   8.887  0.00  0.00    +0.000 OA
ATOM     30  C   UNL     1      44.832   4.511  10.503  0.00  0.00    +0.000 A 
ATOM     31  H   UNL     1      46.025   3.638   7.566  0.00  0.00    +0.000 HD
ENDBRANCH  18  21
ENDBRANCH   1  17
TORSDOF 6
ENDMDL
