MODEL 1
REMARK VINA RESULT:    -7.845      0.000      0.000
REMARK INTER + INTRA:         -10.227
REMARK INTER:                  -9.679
REMARK INTRA:                  -0.547
REMARK UNBOUND:                -0.547
REMARK  Name = 
REMARK  4 active torsions:
REMARK  status: ('A' for Active; 'I' for Inactive)
REMARK    1  A    between atoms: C_2  and  C_4
REMARK    2  A    between atoms: C_8  and  O_9
REMARK    3  A    between atoms: O_9  and  C_10
REMARK    4  A    between atoms: C_10  and  C_11
REMARK                            x       y       z     vdW  Elec       q    Type
REMARK                         _______ _______ _______ _____ _____    ______ ____
ROOT
ATOM      1  C   UNL     1      43.702   4.064  11.273  0.00  0.00    +0.000 C 
ENDROOT
BRANCH   1   2
ATOM      2  C   UNL     1      44.950   4.248  12.093  0.00  0.00    +0.000 A 
ATOM      3  C   UNL     1      45.500   3.197  12.820  0.00  0.00    +0.000 A 
ATOM      4  C   UNL     1      46.699   3.418  13.469  0.00  0.00    +0.000 A 
ATOM      5  N   UNL     1      47.368   4.594  13.448  0.00  0.00    +0.000 NA
ATOM      6  C   UNL     1      46.818   5.639  12.794  0.00  0.00    +0.000 A 
ATOM      7  N   UNL     1      47.492   6.842  12.772  0.00  0.00    +0.000 N 
ATOM      8  C   UNL     1      48.950   6.852  12.833  0.00  0.00    +0.000 C 
ATOM      9  C   UNL     1      49.440   7.656  14.034  0.00  0.00    +0.000 C 
ATOM     10  C   UNL     1      48.789   9.036  14.086  0.00  0.00    +0.000 C 
ATOM     11  C   UNL     1      47.269   8.914  14.054  0.00  0.00    +0.000 C 
ATOM     12  C   UNL     1      46.796   8.119  12.837  0.00  0.00    +0.000 C 
ATOM     13  C   UNL     1      45.607   5.485  12.117  0.00  0.00    +0.000 A 
ENDBRANCH   1   2
BRANCH   1  14
ATOM     14  O   UNL     1      43.898   3.003  10.343  0.00  0.00    +0.000 OA
BRANCH  14  19
ATOM     15  C   UNL     1      46.392   2.191   7.832  0.00  0.00    +0.000 A 
ATOM     16  C   UNL     1      46.701   3.440   7.287  0.00  0.00    +0.000 A 
ATOM     17  C   UNL     1      46.053   4.581   7.756  0.00  0.00    +0.000 A 
ATOM     18  C   UNL     1      45.102   4.480   8.775  0.00  0.00    +0.000 A 
ATOM     19  C   UNL     1      44.801   3.237   9.338  0.00  0.00    +0.000 A 
ATOM     20  C   UNL     1      45.453   2.095   8.868  0.00  0.00    +0.000 A 
BRANCH  15  22
ATOM     21  N   UNL     1      46.615  -0.226   7.701  0.00  0.00    +0.000 N 
ATOM     22  C   UNL     1      47.087   0.992   7.300  0.00  0.00    +0.000 C 
ATOM     23  O   UNL     1      48.012   1.084   6.505  0.00  0.00    +0.000 OA
ATOM     24  H   UNL     1      47.025  -1.038   7.257  0.00  0.00    +0.000 HD
ATOM     25  H   UNL     1      45.723  -0.341   8.161  0.00  0.00    +0.000 HD
ENDBRANCH  15  22
ENDBRANCH  14  19
ENDBRANCH   1  14
TORSDOF 4
ENDMDL
MODEL 2
REMARK VINA RESULT:    -7.605      2.265      3.414
REMARK INTER + INTRA:          -9.931
REMARK INTER:                  -9.289
REMARK INTRA:                  -0.642
REMARK UNBOUND:                -0.547
REMARK  Name = 
REMARK  4 active torsions:
REMARK  status: ('A' for Active; 'I' for Inactive)
REMARK    1  A    between atoms: C_2  and  C_4
REMARK    2  A    between atoms: C_8  and  O_9
REMARK    3  A    between atoms: O_9  and  C_10
REMARK    4  A    between atoms: C_10  and  C_11
REMARK                            x       y       z     vdW  Elec       q    Type
REMARK                         _______ _______ _______ _____ _____    ______ ____
ROOT
ATOM      1  C   UNL     1      44.857   5.659  11.615  0.00  0.00    +0.000 C 
ENDROOT
BRANCH   1   2
ATOM      2  C   UNL     1      46.158   5.843  12.347  0.00  0.00    +0.000 A 
ATOM      3  C   UNL     1      47.190   6.604  11.808  0.00  0.00    +0.000 A 
ATOM      4  C   UNL     1      48.317   6.806  12.582  0.00  0.00    +0.000 A 
ATOM      5  N   UNL     1      48.481   6.306  13.828  0.00  0.00    +0.000 NA
ATOM      6  C   UNL     1      47.513   5.519  14.341  0.00  0.00    +0.000 A 
ATOM      7  N   UNL     1      47.676   5.000  15.609  0.00  0.00    +0.000 N 
ATOM      8  C   UNL     1      48.454   5.742  16.595  0.00  0.00    +0.000 C 
ATOM      9  C   UNL     1      49.625   4.907  17.106  0.00  0.00    +0.000 C 
ATOM     10  C   UNL     1      49.168   3.523  17.563  0.00  0.00    +0.000 C 
ATOM     11  C   UNL     1      48.397   2.819  16.451  0.00  0.00    +0.000 C 
ATOM     12  C   UNL     1      47.220   3.663  15.962  0.00  0.00    +0.000 C 
ATOM     13  C   UNL     1      46.348   5.272  13.612  0.00  0.00    +0.000 A 
ENDBRANCH   1   2
BRANCH   1  14
ATOM     14  O   UNL     1      45.108   5.592  10.214  0.00  0.00    +0.000 OA
BRANCH  14  19
ATOM     15  C   UNL     1      46.231   2.975   7.962  0.00  0.00    +0.000 A 
ATOM     16  C   UNL     1      45.474   1.872   8.367  0.00  0.00    +0.000 A 
ATOM     17  C   UNL     1      44.576   1.997   9.425  0.00  0.00    +0.000 A 
ATOM     18  C   UNL     1      44.426   3.225  10.077  0.00  0.00    +0.000 A 
ATOM     19  C   UNL     1      45.167   4.337   9.667  0.00  0.00    +0.000 A 
ATOM     20  C   UNL     1      46.063   4.209   8.604  0.00  0.00    +0.000 A 
BRANCH  15  22
ATOM     21  N   UNL     1      47.012   3.603   5.748  0.00  0.00    +0.000 N 
ATOM     22  C   UNL     1      47.191   2.806   6.842  0.00  0.00    +0.000 C 
ATOM     23  O   UNL     1      48.127   2.021   6.911  0.00  0.00    +0.000 OA
ATOM     24  H   UNL     1      47.728   3.556   5.033  0.00  0.00    +0.000 HD
ATOM     25  H   UNL     1      46.405   4.411   5.755  0.00  0.00    +0.000 HD
ENDBRANCH  15  22
ENDBRANCH  14  19
ENDBRANCH   1  14
TORSDOF 4
ENDMDL
MODEL 3
REMARK VINA RESULT:    -7.510      1.634      2.035
REMARK INTER + INTRA:          -9.813
REMARK INTER:                  -9.133
REMARK INTRA:                  -0.680
REMARK UNBOUND:                -0.547
REMARK  Name = 
REMARK  4 active torsions:
REMARK  status: ('A' for Active; 'I' for Inactive)
REMARK    1  A    between atoms: C_2  and  C_4
REMARK    2  A    between atoms: C_8  and  O_9
REMARK    3  A    between atoms: O_9  and  C_10
REMARK    4  A    between atoms: C_10  and  C_11
REMARK                            x       y       z     vdW  Elec       q    Type
REMARK                         _______ _______ _______ _____ _____    ______ ____
ROOT
ATOM      1  C   UNL     1      44.607   5.507  10.852  0.00  0.00    +0.000 C 
ENDROOT
BRANCH   1   2
ATOM      2  C   UNL     1      45.767   5.685  11.792  0.00  0.00    +0.000 A 
ATOM      3  C   UNL     1      46.004   4.788  12.828  0.00  0.00    +0.000 A 
ATOM      4  C   UNL     1      47.144   4.965  13.589  0.00  0.00    +0.000 A 
ATOM      5  N   UNL     1      48.039   5.960  13.394  0.00  0.00    +0.000 NA
ATOM      6  C   UNL     1      47.793   6.871  12.430  0.00  0.00    +0.000 A 
ATOM      7  N   UNL     1      48.699   7.892  12.229  0.00  0.00    +0.000 N 
ATOM      8  C   UNL     1      50.111   7.668  12.519  0.00  0.00    +0.000 C 
ATOM      9  C   UNL     1      50.620   8.666  13.554  0.00  0.00    +0.000 C 
ATOM     10  C   UNL     1      50.266  10.101  13.169  0.00  0.00    +0.000 C 
ATOM     11  C   UNL     1      48.767  10.237  12.924  0.00  0.00    +0.000 C 
ATOM     12  C   UNL     1      48.278   9.240  11.873  0.00  0.00    +0.000 C 
ATOM     13  C   UNL     1      46.659   6.753  11.624  0.00  0.00    +0.000 A 
ENDBRANCH   1   2
BRANCH   1  14
ATOM     14  O   UNL     1      45.096   5.335   9.524  0.00  0.00    +0.000 OA
BRANCH  14  19
ATOM     15  C   UNL     1      46.502   2.626   7.557  0.00  0.00    +0.000 A 
ATOM     16  C   UNL     1      45.852   1.501   8.072  0.00  0.00    +0.000 A 
ATOM     17  C   UNL     1      44.933   1.643   9.110  0.00  0.00    +0.000 A 
ATOM     18  C   UNL     1      44.654   2.910   9.631  0.00  0.00    +0.000 A 
ATOM     19  C   UNL     1      45.286   4.042   9.110  0.00  0.00    +0.000 A 
ATOM     20  C   UNL     1      46.204   3.897   8.068  0.00  0.00    +0.000 A 
BRANCH  15  22
ATOM     21  N   UNL     1      47.314   3.195   5.339  0.00  0.00    +0.000 N 
ATOM     22  C   UNL     1      47.487   2.440   6.463  0.00  0.00    +0.000 C 
ATOM     23  O   UNL     1      48.439   1.679   6.577  0.00  0.00    +0.000 OA
ATOM     24  H   UNL     1      48.045   3.140   4.640  0.00  0.00    +0.000 HD
ATOM     25  H   UNL     1      46.690   3.989   5.305  0.00  0.00    +0.000 HD
ENDBRANCH  15  22
ENDBRANCH  14  19
ENDBRANCH   1  14
TORSDOF 4
ENDMDL
MODEL 4
REMARK VINA RESULT:    -7.509      1.257      2.101
REMARK INTER + INTRA:          -9.812
REMARK INTER:                  -9.960
REMARK INTRA:                   0.148
REMARK UNBOUND:                -0.547
REMARK  Name = 
REMARK  4 active torsions:
REMARK  status: ('A' for Active; 'I' for Inactive)
REMARK    1  A    between atoms: C_2  and  C_4
REMARK    2  A    between atoms: C_8  and  O_9
REMARK    3  A    between atoms: O_9  and  C_10
REMARK    4  A    between atoms: C_10  and  C_11
REMARK                            x       y       z     vdW  Elec       q    Type
REMARK                         _______ _______ _______ _____ _____    ______ ____
ROOT
ATOM      1  C   UNL     1      44.110   3.140  11.663  0.00  0.00    +0.000 C 
ENDROOT
BRANCH   1   2
ATOM      2  C   UNL     1      44.219   4.640  11.665  0.00  0.00    +0.000 A 
ATOM      3  C   UNL     1      43.145   5.445  11.298  0.00  0.00    +0.000 A 
ATOM      4  C   UNL     1      43.292   6.814  11.416  0.00  0.00    +0.000 A 
ATOM      5  N   UNL     1      44.417   7.420  11.860  0.00  0.00    +0.000 NA
ATOM      6  C   UNL     1      45.486   6.655  12.165  0.00  0.00    +0.000 A 
ATOM      7  N   UNL     1      46.638   7.267  12.614  0.00  0.00    +0.000 N 
ATOM      8  C   UNL     1      46.546   8.521  13.354  0.00  0.00    +0.000 C 
ATOM      9  C   UNL     1      47.335   9.625  12.657  0.00  0.00    +0.000 C 
ATOM     10  C   UNL     1      48.759   9.178  12.333  0.00  0.00    +0.000 C 
ATOM     11  C   UNL     1      48.744   7.882  11.529  0.00  0.00    +0.000 C 
ATOM     12  C   UNL     1      47.963   6.783  12.250  0.00  0.00    +0.000 C 
ATOM     13  C   UNL     1      45.407   5.265  12.067  0.00  0.00    +0.000 A 
ENDBRANCH   1   2
BRANCH   1  14
ATOM     14  O   UNL     1      43.760   2.692  10.357  0.00  0.00    +0.000 OA
BRANCH  14  19
ATOM     15  C   UNL     1      46.327   2.051   7.870  0.00  0.00    +0.000 A 
ATOM     16  C   UNL     1      46.544   3.316   7.316  0.00  0.00    +0.000 A 
ATOM     17  C   UNL     1      45.808   4.409   7.771  0.00  0.00    +0.000 A 
ATOM     18  C   UNL     1      44.860   4.243   8.785  0.00  0.00    +0.000 A 
ATOM     19  C   UNL     1      44.650   2.985   9.356  0.00  0.00    +0.000 A 
ATOM     20  C   UNL     1      45.390   1.893   8.900  0.00  0.00    +0.000 A 
BRANCH  15  22
ATOM     21  N   UNL     1      46.698  -0.345   7.713  0.00  0.00    +0.000 N 
ATOM     22  C   UNL     1      47.114   0.904   7.353  0.00  0.00    +0.000 C 
ATOM     23  O   UNL     1      48.068   1.064   6.603  0.00  0.00    +0.000 OA
ATOM     24  H   UNL     1      47.175  -1.124   7.276  0.00  0.00    +0.000 HD
ATOM     25  H   UNL     1      45.793  -0.520   8.129  0.00  0.00    +0.000 HD
ENDBRANCH  15  22
ENDBRANCH  14  19
ENDBRANCH   1  14
TORSDOF 4
ENDMDL
MODEL 5
REMARK VINA RESULT:    -7.340      2.734      4.440
REMARK INTER + INTRA:          -9.604
REMARK INTER:                  -8.998
REMARK INTRA:                  -0.605
REMARK UNBOUND:                -0.547
REMARK  Name = 
REMARK  4 active torsions:
REMARK  status: ('A' for Active; 'I' for Inactive)
REMARK    1  A    between atoms: C_2  and  C_4
REMARK    2  A    between atoms: C_8  and  O_9
REMARK    3  A    between atoms: O_9  and  C_10
REMARK    4  A    between atoms: C_10  and  C_11
REMARK                            x       y       z     vdW  Elec       q    Type
REMARK                         _______ _______ _______ _____ _____    ______ ____
ROOT
ATOM      1  C   UNL     1      45.786   6.927  11.698  0.00  0.00    +0.000 C 
ENDROOT
BRANCH   1   2
ATOM      2  C   UNL     1      47.020   6.771  12.544  0.00  0.00    +0.000 A 
ATOM      3  C   UNL     1      48.234   7.332  12.163  0.00  0.00    +0.000 A 
ATOM      4  C   UNL     1      49.298   7.228  13.039  0.00  0.00    +0.000 A 
ATOM      5  N   UNL     1      49.234   6.609  14.240  0.00  0.00    +0.000 NA
ATOM      6  C   UNL     1      48.078   6.010  14.598  0.00  0.00    +0.000 A 
ATOM      7  N   UNL     1      48.008   5.372  15.819  0.00  0.00    +0.000 N 
ATOM      8  C   UNL     1      48.823   5.851  16.930  0.00  0.00    +0.000 C 
ATOM      9  C   UNL     1      49.740   4.748  17.449  0.00  0.00    +0.000 C 
ATOM     10  C   UNL     1      48.965   3.463  17.732  0.00  0.00    +0.000 C 
ATOM     11  C   UNL     1      48.178   3.028  16.500  0.00  0.00    +0.000 C 
ATOM     12  C   UNL     1      47.253   4.140  16.005  0.00  0.00    +0.000 C 
ATOM     13  C   UNL     1      46.964   6.076  13.760  0.00  0.00    +0.000 A 
ENDBRANCH   1   2
BRANCH   1  14
ATOM     14  O   UNL     1      46.061   6.480  10.373  0.00  0.00    +0.000 OA
BRANCH  14  19
ATOM     15  C   UNL     1      44.236   3.372  10.808  0.00  0.00    +0.000 A 
ATOM     16  C   UNL     1      44.346   2.770   9.552  0.00  0.00    +0.000 A 
ATOM     17  C   UNL     1      45.032   3.421   8.528  0.00  0.00    +0.000 A 
ATOM     18  C   UNL     1      45.618   4.669   8.759  0.00  0.00    +0.000 A 
ATOM     19  C   UNL     1      45.528   5.269  10.017  0.00  0.00    +0.000 A 
ATOM     20  C   UNL     1      44.842   4.614  11.041  0.00  0.00    +0.000 A 
BRANCH  15  22
ATOM     21  N   UNL     1      43.551   3.186  13.133  0.00  0.00    +0.000 N 
ATOM     22  C   UNL     1      43.485   2.662  11.873  0.00  0.00    +0.000 C 
ATOM     23  O   UNL     1      42.800   1.677  11.630  0.00  0.00    +0.000 OA
ATOM     24  H   UNL     1      42.956   2.759  13.832  0.00  0.00    +0.000 HD
ATOM     25  H   UNL     1      43.907   4.113  13.319  0.00  0.00    +0.000 HD
ENDBRANCH  15  22
ENDBRANCH  14  19
ENDBRANCH   1  14
TORSDOF 4
ENDMDL
MODEL 6
REMARK VINA RESULT:    -7.151      2.777      4.547
REMARK INTER + INTRA:          -9.370
REMARK INTER:                  -8.828
REMARK INTRA:                  -0.542
REMARK UNBOUND:                -0.547
REMARK  Name = 
REMARK  4 active torsions:
REMARK  status: ('A' for Active; 'I' for Inactive)
REMARK    1  A    between atoms: C_2  and  C_4
REMARK    2  A    between atoms: C_8  and  O_9
REMARK    3  A    between atoms: O_9  and  C_10
REMARK    4  A    between atoms: C_10  and  C_11
REMARK                            x       y       z     vdW  Elec       q    Type
REMARK                         _______ _______ _______ _____ _____    ______ ____
ROOT
ATOM      1  C   UNL     1      46.786   6.582  11.698  0.00  0.00    +0.000 C 
ENDROOT
BRANCH   1   2
ATOM      2  C   UNL     1      47.738   6.563  12.863  0.00  0.00    +0.000 A 
ATOM      3  C   UNL     1      48.907   7.317  12.855  0.00  0.00    +0.000 A 
ATOM      4  C   UNL     1      49.681   7.322  13.999  0.00  0.00    +0.000 A 
ATOM      5  N   UNL     1      49.377   6.635  15.124  0.00  0.00    +0.000 NA
ATOM      6  C   UNL     1      48.276   5.855  15.127  0.00  0.00    +0.000 A 
ATOM      7  N   UNL     1      47.962   5.147  16.269  0.00  0.00    +0.000 N 
ATOM      8  C   UNL     1      48.343   5.679  17.572  0.00  0.00    +0.000 C 
ATOM      9  C   UNL     1      49.237   4.696  18.323  0.00  0.00    +0.000 C 
ATOM     10  C   UNL     1      48.624   3.297  18.357  0.00  0.00    +0.000 C 
ATOM     11  C   UNL     1      48.296   2.820  16.946  0.00  0.00    +0.000 C 
ATOM     12  C   UNL     1      47.388   3.810  16.216  0.00  0.00    +0.000 C 
ATOM     13  C   UNL     1      47.449   5.802  14.003  0.00  0.00    +0.000 A 
ENDBRANCH   1   2
BRANCH   1  14
ATOM     14  O   UNL     1      45.448   6.478  12.179  0.00  0.00    +0.000 OA
BRANCH  14  19
ATOM     15  C   UNL     1      44.480   3.474  10.385  0.00  0.00    +0.000 A 
ATOM     16  C   UNL     1      43.650   2.821  11.301  0.00  0.00    +0.000 A 
ATOM     17  C   UNL     1      43.417   3.386  12.553  0.00  0.00    +0.000 A 
ATOM     18  C   UNL     1      44.005   4.609  12.891  0.00  0.00    +0.000 A 
ATOM     19  C   UNL     1      44.822   5.276  11.974  0.00  0.00    +0.000 A 
ATOM     20  C   UNL     1      45.051   4.709  10.720  0.00  0.00    +0.000 A 
BRANCH  15  22
ATOM     21  N   UNL     1      44.364   3.553   7.959  0.00  0.00    +0.000 N 
ATOM     22  C   UNL     1      44.722   2.838   9.066  0.00  0.00    +0.000 C 
ATOM     23  O   UNL     1      45.258   1.742   8.968  0.00  0.00    +0.000 OA
ATOM     24  H   UNL     1      44.624   3.160   7.063  0.00  0.00    +0.000 HD
ATOM     25  H   UNL     1      44.141   4.538   7.994  0.00  0.00    +0.000 HD
ENDBRANCH  15  22
ENDBRANCH  14  19
ENDBRANCH   1  14
TORSDOF 4
ENDMDL
MODEL 7
REMARK VINA RESULT:    -6.661      3.980      7.843
REMARK INTER + INTRA:          -8.766
REMARK INTER:                  -8.100
REMARK INTRA:                  -0.666
REMARK UNBOUND:                -0.547
REMARK  Name = 
REMARK  4 active torsions:
REMARK  status: ('A' for Active; 'I' for Inactive)
REMARK    1  A    between atoms: C_2  and  C_4
REMARK    2  A    between atoms: C_8  and  O_9
REMARK    3  A    between atoms: O_9  and  C_10
REMARK    4  A    between atoms: C_10  and  C_11
REMARK                            x       y       z     vdW  Elec       q    Type
REMARK                         _______ _______ _______ _____ _____    ______ ____
ROOT
ATOM      1  C   UNL     1      49.152   6.879  15.016  0.00  0.00    +0.000 C 
ENDROOT
BRANCH   1   2
ATOM      2  C   UNL     1      47.949   7.073  14.134  0.00  0.00    +0.000 A 
ATOM      3  C   UNL     1      47.437   8.340  13.877  0.00  0.00    +0.000 A 
ATOM      4  C   UNL     1      46.390   8.446  12.981  0.00  0.00    +0.000 A 
ATOM      5  N   UNL     1      45.828   7.393  12.344  0.00  0.00    +0.000 NA
ATOM      6  C   UNL     1      46.276   6.152  12.627  0.00  0.00    +0.000 A 
ATOM      7  N   UNL     1      45.704   5.073  11.985  0.00  0.00    +0.000 N 
ATOM      8  C   UNL     1      45.160   5.241  10.642  0.00  0.00    +0.000 C 
ATOM      9  C   UNL     1      43.681   4.870  10.602  0.00  0.00    +0.000 C 
ATOM     10  C   UNL     1      43.430   3.499  11.227  0.00  0.00    +0.000 C 
ATOM     11  C   UNL     1      44.003   3.440  12.639  0.00  0.00    +0.000 C 
ATOM     12  C   UNL     1      45.489   3.799  12.657  0.00  0.00    +0.000 C 
ATOM     13  C   UNL     1      47.331   5.974  13.524  0.00  0.00    +0.000 A 
ENDBRANCH   1   2
BRANCH   1  14
ATOM     14  O   UNL     1      48.810   7.204  16.360  0.00  0.00    +0.000 OA
BRANCH  14  19
ATOM     15  C   UNL     1      49.175   3.789  17.537  0.00  0.00    +0.000 A 
ATOM     16  C   UNL     1      48.625   3.843  18.821  0.00  0.00    +0.000 A 
ATOM     17  C   UNL     1      48.134   5.050  19.315  0.00  0.00    +0.000 A 
ATOM     18  C   UNL     1      48.181   6.203  18.525  0.00  0.00    +0.000 A 
ATOM     19  C   UNL     1      48.713   6.153  17.234  0.00  0.00    +0.000 A 
ATOM     20  C   UNL     1      49.202   4.942  16.741  0.00  0.00    +0.000 A 
BRANCH  15  22
ATOM     21  N   UNL     1      50.731   1.935  17.753  0.00  0.00    +0.000 N 
ATOM     22  C   UNL     1      49.706   2.493  17.045  0.00  0.00    +0.000 C 
ATOM     23  O   UNL     1      49.220   1.925  16.075  0.00  0.00    +0.000 OA
ATOM     24  H   UNL     1      51.020   1.005  17.474  0.00  0.00    +0.000 HD
ATOM     25  H   UNL     1      50.994   2.253  18.676  0.00  0.00    +0.000 HD
ENDBRANCH  15  22
ENDBRANCH  14  19
ENDBRANCH   1  14
TORSDOF 4
ENDMDL
MODEL 8
REMARK VINA RESULT:    -6.617      3.729      7.293
REMARK INTER + INTRA:          -8.712
REMARK INTER:                  -7.980
REMARK INTRA:                  -0.733
REMARK UNBOUND:                -0.547
REMARK  Name = 
REMARK  4 active torsions:
REMARK  status: ('A' for Active; 'I' for Inactive)
REMARK    1  A    between atoms: C_2  and  C_4
REMARK    2  A    between atoms: C_8  and  O_9
REMARK    3  A    between atoms: O_9  and  C_10
REMARK    4  A    between atoms: C_10  and  C_11
REMARK                            x       y       z     vdW  Elec       q    Type
REMARK                         _______ _______ _______ _____ _____    ______ ____
ROOT
ATOM      1  C   UNL     1      47.395   8.498  12.529  0.00  0.00    +0.000 C 
ENDROOT
BRANCH   1   2
ATOM      2  C   UNL     1      46.927   7.069  12.541  0.00  0.00    +0.000 A 
ATOM      3  C   UNL     1      47.089   6.264  13.664  0.00  0.00    +0.000 A 
ATOM      4  C   UNL     1      46.547   4.993  13.632  0.00  0.00    +0.000 A 
ATOM      5  N   UNL     1      45.875   4.481  12.575  0.00  0.00    +0.000 NA
ATOM      6  C   UNL     1      45.760   5.230  11.458  0.00  0.00    +0.000 A 
ATOM      7  N   UNL     1      45.080   4.712  10.375  0.00  0.00    +0.000 N 
ATOM      8  C   UNL     1      43.997   3.760  10.593  0.00  0.00    +0.000 C 
ATOM      9  C   UNL     1      44.274   2.443   9.874  0.00  0.00    +0.000 C 
ATOM     10  C   UNL     1      44.639   2.672   8.408  0.00  0.00    +0.000 C 
ATOM     11  C   UNL     1      45.803   3.652   8.291  0.00  0.00    +0.000 C 
ATOM     12  C   UNL     1      45.500   4.970   9.004  0.00  0.00    +0.000 C 
ATOM     13  C   UNL     1      46.285   6.522  11.422  0.00  0.00    +0.000 A 
ENDBRANCH   1   2
BRANCH   1  14
ATOM     14  O   UNL     1      46.328   9.349  12.936  0.00  0.00    +0.000 OA
BRANCH  14  19
ATOM     15  C   UNL     1      43.724  10.574  10.722  0.00  0.00    +0.000 A 
ATOM     16  C   UNL     1      44.379  11.574   9.998  0.00  0.00    +0.000 A 
ATOM     17  C   UNL     1      45.718  11.859  10.262  0.00  0.00    +0.000 A 
ATOM     18  C   UNL     1      46.408  11.141  11.243  0.00  0.00    +0.000 A 
ATOM     19  C   UNL     1      45.765  10.128  11.959  0.00  0.00    +0.000 A 
ATOM     20  C   UNL     1      44.425   9.843  11.691  0.00  0.00    +0.000 A 
BRANCH  15  22
ATOM     21  N   UNL     1      41.721   9.243  11.068  0.00  0.00    +0.000 N 
ATOM     22  C   UNL     1      42.294  10.305  10.430  0.00  0.00    +0.000 C 
ATOM     23  O   UNL     1      41.643  11.026   9.685  0.00  0.00    +0.000 OA
ATOM     24  H   UNL     1      40.723   9.127  10.945  0.00  0.00    +0.000 HD
ATOM     25  H   UNL     1      42.155   8.779  11.854  0.00  0.00    +0.000 HD
ENDBRANCH  15  22
ENDBRANCH  14  19
ENDBRANCH   1  14
TORSDOF 4
ENDMDL
MODEL 9
REMARK VINA RESULT:    -6.461      4.172      5.517
REMARK INTER + INTRA:          -8.519
REMARK INTER:                  -8.029
REMARK INTRA:                  -0.490
REMARK UNBOUND:                -0.547
REMARK  Name = 
REMARK  4 active torsions:
REMARK  status: ('A' for Active; 'I' for Inactive)
REMARK    1  A    between atoms: C_2  and  C_4
REMARK    2  A    between atoms: C_8  and  O_9
REMARK    3  A    between atoms: O_9  and  C_10
REMARK    4  A    between atoms: C_10  and  C_11
REMARK                            x       y       z     vdW  Elec       q    Type
REMARK                         _______ _______ _______ _____ _____    ______ ____
ROOT
ATOM      1  C   UNL     1      47.305   3.831  15.049  0.00  0.00    +0.000 C 
ENDROOT
BRANCH   1   2
ATOM      2  C   UNL     1      47.749   4.030  16.472  0.00  0.00    +0.000 A 
ATOM      3  C   UNL     1      47.919   2.952  17.335  0.00  0.00    +0.000 A 
ATOM      4  C   UNL     1      48.421   3.206  18.597  0.00  0.00    +0.000 A 
ATOM      5  N   UNL     1      48.751   4.438  19.048  0.00  0.00    +0.000 NA
ATOM      6  C   UNL     1      48.537   5.500  18.243  0.00  0.00    +0.000 A 
ATOM      7  N   UNL     1      48.866   6.760  18.698  0.00  0.00    +0.000 N 
ATOM      8  C   UNL     1      49.961   6.919  19.649  0.00  0.00    +0.000 C 
ATOM      9  C   UNL     1      49.477   7.591  20.930  0.00  0.00    +0.000 C 
ATOM     10  C   UNL     1      48.700   8.872  20.631  0.00  0.00    +0.000 C 
ATOM     11  C   UNL     1      47.558   8.592  19.659  0.00  0.00    +0.000 C 
ATOM     12  C   UNL     1      48.064   7.932  18.376  0.00  0.00    +0.000 C 
ATOM     13  C   UNL     1      48.032   5.315  16.955  0.00  0.00    +0.000 A 
ENDBRANCH   1   2
BRANCH   1  14
ATOM     14  O   UNL     1      47.570   5.015  14.301  0.00  0.00    +0.000 OA
BRANCH  14  19
ATOM     15  C   UNL     1      45.096   4.223  11.764  0.00  0.00    +0.000 A 
ATOM     16  C   UNL     1      45.176   5.319  10.900  0.00  0.00    +0.000 A 
ATOM     17  C   UNL     1      46.066   6.356  11.176  0.00  0.00    +0.000 A 
ATOM     18  C   UNL     1      46.883   6.297  12.309  0.00  0.00    +0.000 A 
ATOM     19  C   UNL     1      46.821   5.197  13.167  0.00  0.00    +0.000 A 
ATOM     20  C   UNL     1      45.931   4.159  12.887  0.00  0.00    +0.000 A 
BRANCH  15  22
ATOM     21  N   UNL     1      43.701   2.373  12.497  0.00  0.00    +0.000 N 
ATOM     22  C   UNL     1      44.127   3.143  11.453  0.00  0.00    +0.000 C 
ATOM     23  O   UNL     1      43.694   2.974  10.320  0.00  0.00    +0.000 OA
ATOM     24  H   UNL     1      42.965   1.707  12.297  0.00  0.00    +0.000 HD
ATOM     25  H   UNL     1      43.853   2.631  13.462  0.00  0.00    +0.000 HD
ENDBRANCH  15  22
ENDBRANCH  14  19
ENDBRANCH   1  14
TORSDOF 4
ENDMDL
