MODEL 1
REMARK VINA RESULT:    -8.368      0.000      0.000
REMARK INTER + INTRA:         -13.617
REMARK INTER:                 -12.771
REMARK INTRA:                  -0.847
REMARK UNBOUND:                -0.847
REMARK  Name = 
REMARK  11 active torsions:
REMARK  status: ('A' for Active; 'I' for Inactive)
REMARK    1  A    between atoms: C_1  and  N_2
REMARK    2  A    between atoms: C_4  and  C_5
REMARK    3  A    between atoms: N_7  and  C_8
REMARK    4  A    between atoms: C_8  and  C_9
REMARK    5  A    between atoms: C_12  and  C_13
REMARK    6  A    between atoms: C_13  and  N_14
REMARK    7  A    between atoms: N_14  and  CA_15
REMARK    8  A    between atoms: CA_15  and  C_16
REMARK    9  A    between atoms: CA_15  and  C_18
REMARK   10  A    between atoms: C_16  and  O_17
REMARK   11  A    between atoms: C_27  and  O_28
REMARK                            x       y       z     vdW  Elec       q    Type
REMARK                         _______ _______ _______ _____ _____    ______ ____
ROOT
ATOM      1  C   UNL     1      46.401   7.943  13.001  0.00  0.00    +0.000 A 
ATOM      2  C   UNL     1      45.617   8.626  12.063  0.00  0.00    +0.000 A 
ATOM      3  C   UNL     1      44.567   7.977  11.408  0.00  0.00    +0.000 A 
ATOM      4  C   UNL     1      44.275   6.632  11.683  0.00  0.00    +0.000 A 
ATOM      5  C   UNL     1      45.059   5.953  12.623  0.00  0.00    +0.000 A 
ATOM      6  C   UNL     1      46.107   6.602  13.280  0.00  0.00    +0.000 A 
ENDROOT
BRANCH   1   7
ATOM      7  C   UNL     1      47.512   8.647  13.728  0.00  0.00    +0.000 C 
BRANCH   7  10
ATOM      8  C   UNL     1      48.869   7.110  15.056  0.00  0.00    +0.000 C 
ATOM      9  O   UNL     1      49.587   6.836  14.101  0.00  0.00    +0.000 OA
ATOM     10  N   UNL     1      47.821   7.989  14.973  0.00  0.00    +0.000 N 
ATOM     11  H   UNL     1      47.258   8.203  15.784  0.00  0.00    +0.000 HD
BRANCH   8  15
ATOM     12  C   UNL     1      50.366   6.294  19.769  0.00  0.00    +0.000 C 
ATOM     13  N   UNL     1      49.757   6.120  18.470  0.00  0.00    +0.000 N 
ATOM     14  C   UNL     1      49.806   7.024  17.439  0.00  0.00    +0.000 A 
ATOM     15  C   UNL     1      49.096   6.500  16.365  0.00  0.00    +0.000 A 
ATOM     16  C   UNL     1      48.609   5.216  16.787  0.00  0.00    +0.000 A 
ATOM     17  C   UNL     1      47.849   4.175  16.239  0.00  0.00    +0.000 A 
ATOM     18  N   UNL     1      47.576   3.077  16.965  0.00  0.00    +0.000 NA
ATOM     19  C   UNL     1      48.056   3.024  18.219  0.00  0.00    +0.000 A 
ATOM     20  N   UNL     1      48.793   3.944  18.864  0.00  0.00    +0.000 NA
ATOM     21  C   UNL     1      49.036   5.019  18.093  0.00  0.00    +0.000 A 
BRANCH  17  22
ATOM     22  O   UNL     1      47.332   4.177  14.967  0.00  0.00    +0.000 OA
ATOM     23  H   UNL     1      47.281   5.109  14.669  0.00  0.00    +0.000 HD
ENDBRANCH  17  22
ENDBRANCH   8  15
ENDBRANCH   7  10
ENDBRANCH   1   7
BRANCH   4  24
ATOM     24  C   UNL     1      43.099   5.939  11.031  0.00  0.00    +0.000 C 
BRANCH  24  25
ATOM     25  N   UNL     1      43.528   5.050   9.953  0.00  0.00    +0.000 NA
ATOM     26  H   UNL     1      44.081   5.604   9.295  0.00  0.00    +0.000 HD
BRANCH  25  27
ATOM     27  CA  UNL     1      44.388   3.932  10.413  0.00  0.00    +0.000 C 
BRANCH  27  28
ATOM     28  C   UNL     1      45.213   3.390   9.245  0.00  0.00    +0.000 A 
ATOM     29  C   UNL     1      45.432   2.010   9.111  0.00  0.00    +0.000 A 
ATOM     30  C   UNL     1      46.189   1.509   8.049  0.00  0.00    +0.000 A 
ATOM     31  C   UNL     1      46.742   2.379   7.109  0.00  0.00    +0.000 A 
ATOM     32  C   UNL     1      46.526   3.748   7.221  0.00  0.00    +0.000 A 
ATOM     33  C   UNL     1      45.758   4.246   8.273  0.00  0.00    +0.000 A 
ENDBRANCH  27  28
BRANCH  27  34
ATOM     34  C   UNL     1      43.578   2.790  11.088  0.00  0.00    +0.000 C 
BRANCH  34  35
ATOM     35  O   UNL     1      44.022   2.520  12.418  0.00  0.00    +0.000 OA
ATOM     36  H   UNL     1      44.387   3.363  12.748  0.00  0.00    +0.000 HD
ENDBRANCH  34  35
ENDBRANCH  27  34
ENDBRANCH  25  27
ENDBRANCH  24  25
ENDBRANCH   4  24
TORSDOF 10
ENDMDL
MODEL 2
REMARK VINA RESULT:    -8.031      1.833      2.683
REMARK INTER + INTRA:         -13.104
REMARK INTER:                 -11.916
REMARK INTRA:                  -1.187
REMARK UNBOUND:                -0.847
REMARK  Name = 
REMARK  11 active torsions:
REMARK  status: ('A' for Active; 'I' for Inactive)
REMARK    1  A    between atoms: C_1  and  N_2
REMARK    2  A    between atoms: C_4  and  C_5
REMARK    3  A    between atoms: N_7  and  C_8
REMARK    4  A    between atoms: C_8  and  C_9
REMARK    5  A    between atoms: C_12  and  C_13
REMARK    6  A    between atoms: C_13  and  N_14
REMARK    7  A    between atoms: N_14  and  CA_15
REMARK    8  A    between atoms: CA_15  and  C_16
REMARK    9  A    between atoms: CA_15  and  C_18
REMARK   10  A    between atoms: C_16  and  O_17
REMARK   11  A    between atoms: C_27  and  O_28
REMARK                            x       y       z     vdW  Elec       q    Type
REMARK                         _______ _______ _______ _____ _____    ______ ____
ROOT
ATOM      1  C   UNL     1      46.993   6.325  13.274  0.00  0.00    +0.000 A 
ATOM      2  C   UNL     1      46.041   5.416  13.751  0.00  0.00    +0.000 A 
ATOM      3  C   UNL     1      44.849   5.204  13.052  0.00  0.00    +0.000 A 
ATOM      4  C   UNL     1      44.588   5.893  11.858  0.00  0.00    +0.000 A 
ATOM      5  C   UNL     1      45.544   6.799  11.382  0.00  0.00    +0.000 A 
ATOM      6  C   UNL     1      46.736   7.009  12.079  0.00  0.00    +0.000 A 
ENDROOT
BRANCH   1   7
ATOM      7  C   UNL     1      48.287   6.534  14.009  0.00  0.00    +0.000 C 
BRANCH   7  10
ATOM      8  C   UNL     1      49.175   6.298  16.272  0.00  0.00    +0.000 C 
ATOM      9  O   UNL     1      50.332   6.240  15.868  0.00  0.00    +0.000 OA
ATOM     10  N   UNL     1      48.099   6.441  15.435  0.00  0.00    +0.000 N 
ATOM     11  H   UNL     1      47.161   6.500  15.803  0.00  0.00    +0.000 HD
BRANCH   8  15
ATOM     12  C   UNL     1      48.767   4.681  20.998  0.00  0.00    +0.000 C 
ATOM     13  N   UNL     1      48.684   5.509  19.816  0.00  0.00    +0.000 N 
ATOM     14  C   UNL     1      49.117   5.154  18.563  0.00  0.00    +0.000 A 
ATOM     15  C   UNL     1      48.874   6.216  17.700  0.00  0.00    +0.000 A 
ATOM     16  C   UNL     1      48.261   7.248  18.489  0.00  0.00    +0.000 A 
ATOM     17  C   UNL     1      47.768   8.543  18.282  0.00  0.00    +0.000 A 
ATOM     18  N   UNL     1      47.245   9.242  19.303  0.00  0.00    +0.000 NA
ATOM     19  C   UNL     1      47.216   8.655  20.511  0.00  0.00    +0.000 A 
ATOM     20  N   UNL     1      47.650   7.428  20.847  0.00  0.00    +0.000 NA
ATOM     21  C   UNL     1      48.163   6.773  19.790  0.00  0.00    +0.000 A 
BRANCH  17  22
ATOM     22  O   UNL     1      47.774   9.191  17.072  0.00  0.00    +0.000 OA
ATOM     23  H   UNL     1      47.103   8.763  16.501  0.00  0.00    +0.000 HD
ENDBRANCH  17  22
ENDBRANCH   8  15
ENDBRANCH   7  10
ENDBRANCH   1   7
BRANCH   4  24
ATOM     24  C   UNL     1      43.334   5.621  11.057  0.00  0.00    +0.000 C 
BRANCH  24  25
ATOM     25  N   UNL     1      43.601   4.742   9.920  0.00  0.00    +0.000 NA
ATOM     26  H   UNL     1      44.112   5.286   9.221  0.00  0.00    +0.000 HD
BRANCH  25  27
ATOM     27  CA  UNL     1      44.442   3.570  10.261  0.00  0.00    +0.000 C 
BRANCH  27  28
ATOM     28  C   UNL     1      45.308   3.178   9.063  0.00  0.00    +0.000 A 
ATOM     29  C   UNL     1      45.655   1.835   8.846  0.00  0.00    +0.000 A 
ATOM     30  C   UNL     1      46.450   1.472   7.755  0.00  0.00    +0.000 A 
ATOM     31  C   UNL     1      46.913   2.445   6.869  0.00  0.00    +0.000 A 
ATOM     32  C   UNL     1      46.569   3.779   7.063  0.00  0.00    +0.000 A 
ATOM     33  C   UNL     1      45.764   4.139   8.143  0.00  0.00    +0.000 A 
ENDBRANCH  27  28
BRANCH  27  34
ATOM     34  C   UNL     1      43.608   2.355  10.754  0.00  0.00    +0.000 C 
BRANCH  34  35
ATOM     35  O   UNL     1      43.616   2.229  12.176  0.00  0.00    +0.000 OA
ATOM     36  H   UNL     1      43.023   1.480  12.376  0.00  0.00    +0.000 HD
ENDBRANCH  34  35
ENDBRANCH  27  34
ENDBRANCH  25  27
ENDBRANCH  24  25
ENDBRANCH   4  24
TORSDOF 10
ENDMDL
MODEL 3
REMARK VINA RESULT:    -7.969      1.796      2.175
REMARK INTER + INTRA:         -13.009
REMARK INTER:                 -11.824
REMARK INTRA:                  -1.185
REMARK UNBOUND:                -0.847
REMARK  Name = 
REMARK  11 active torsions:
REMARK  status: ('A' for Active; 'I' for Inactive)
REMARK    1  A    between atoms: C_1  and  N_2
REMARK    2  A    between atoms: C_4  and  C_5
REMARK    3  A    between atoms: N_7  and  C_8
REMARK    4  A    between atoms: C_8  and  C_9
REMARK    5  A    between atoms: C_12  and  C_13
REMARK    6  A    between atoms: C_13  and  N_14
REMARK    7  A    between atoms: N_14  and  CA_15
REMARK    8  A    between atoms: CA_15  and  C_16
REMARK    9  A    between atoms: CA_15  and  C_18
REMARK   10  A    between atoms: C_16  and  O_17
REMARK   11  A    between atoms: C_27  and  O_28
REMARK                            x       y       z     vdW  Elec       q    Type
REMARK                         _______ _______ _______ _____ _____    ______ ____
ROOT
ATOM      1  C   UNL     1      47.258   6.312  13.276  0.00  0.00    +0.000 A 
ATOM      2  C   UNL     1      47.055   6.943  12.042  0.00  0.00    +0.000 A 
ATOM      3  C   UNL     1      45.872   6.739  11.327  0.00  0.00    +0.000 A 
ATOM      4  C   UNL     1      44.863   5.905  11.835  0.00  0.00    +0.000 A 
ATOM      5  C   UNL     1      45.068   5.279  13.070  0.00  0.00    +0.000 A 
ATOM      6  C   UNL     1      46.250   5.485  13.787  0.00  0.00    +0.000 A 
ENDROOT
BRANCH   1   7
ATOM      7  C   UNL     1      48.517   6.552  14.061  0.00  0.00    +0.000 C 
BRANCH   7  10
ATOM      8  C   UNL     1      48.858   6.336  16.469  0.00  0.00    +0.000 C 
ATOM      9  O   UNL     1      49.694   5.451  16.324  0.00  0.00    +0.000 OA
ATOM     10  N   UNL     1      48.221   6.941  15.417  0.00  0.00    +0.000 N 
ATOM     11  H   UNL     1      47.548   7.676  15.573  0.00  0.00    +0.000 HD
BRANCH   8  15
ATOM     12  C   UNL     1      47.361   9.205  20.297  0.00  0.00    +0.000 C 
ATOM     13  N   UNL     1      47.819   8.073  19.524  0.00  0.00    +0.000 N 
ATOM     14  C   UNL     1      48.076   8.080  18.176  0.00  0.00    +0.000 A 
ATOM     15  C   UNL     1      48.486   6.805  17.803  0.00  0.00    +0.000 A 
ATOM     16  C   UNL     1      48.474   6.009  18.999  0.00  0.00    +0.000 A 
ATOM     17  C   UNL     1      48.761   4.684  19.354  0.00  0.00    +0.000 A 
ATOM     18  N   UNL     1      48.624   4.277  20.627  0.00  0.00    +0.000 NA
ATOM     19  C   UNL     1      48.208   5.181  21.530  0.00  0.00    +0.000 A 
ATOM     20  N   UNL     1      47.901   6.474  21.327  0.00  0.00    +0.000 NA
ATOM     21  C   UNL     1      48.054   6.827  20.038  0.00  0.00    +0.000 A 
BRANCH  17  22
ATOM     22  O   UNL     1      49.187   3.720  18.474  0.00  0.00    +0.000 OA
ATOM     23  H   UNL     1      50.060   3.998  18.129  0.00  0.00    +0.000 HD
ENDBRANCH  17  22
ENDBRANCH   8  15
ENDBRANCH   7  10
ENDBRANCH   1   7
BRANCH   4  24
ATOM     24  C   UNL     1      43.551   5.732  11.102  0.00  0.00    +0.000 C 
BRANCH  24  25
ATOM     25  N   UNL     1      43.682   4.812   9.974  0.00  0.00    +0.000 NA
ATOM     26  H   UNL     1      44.184   5.304   9.230  0.00  0.00    +0.000 HD
BRANCH  25  27
ATOM     27  CA  UNL     1      44.461   3.590  10.291  0.00  0.00    +0.000 C 
BRANCH  27  28
ATOM     28  C   UNL     1      45.282   3.160   9.075  0.00  0.00    +0.000 A 
ATOM     29  C   UNL     1      45.623   1.811   8.890  0.00  0.00    +0.000 A 
ATOM     30  C   UNL     1      46.377   1.413   7.782  0.00  0.00    +0.000 A 
ATOM     31  C   UNL     1      46.805   2.357   6.848  0.00  0.00    +0.000 A 
ATOM     32  C   UNL     1      46.467   3.696   7.011  0.00  0.00    +0.000 A 
ATOM     33  C   UNL     1      45.702   4.090   8.108  0.00  0.00    +0.000 A 
ENDBRANCH  27  28
BRANCH  27  34
ATOM     34  C   UNL     1      43.567   2.421  10.789  0.00  0.00    +0.000 C 
BRANCH  34  35
ATOM     35  O   UNL     1      43.595   2.280  12.210  0.00  0.00    +0.000 OA
ATOM     36  H   UNL     1      43.568   3.189  12.564  0.00  0.00    +0.000 HD
ENDBRANCH  34  35
ENDBRANCH  27  34
ENDBRANCH  25  27
ENDBRANCH  24  25
ENDBRANCH   4  24
TORSDOF 10
ENDMDL
MODEL 4
REMARK VINA RESULT:    -7.685      2.270      7.864
REMARK INTER + INTRA:         -12.575
REMARK INTER:                 -10.839
REMARK INTRA:                  -1.737
REMARK UNBOUND:                -0.847
REMARK  Name = 
REMARK  11 active torsions:
REMARK  status: ('A' for Active; 'I' for Inactive)
REMARK    1  A    between atoms: C_1  and  N_2
REMARK    2  A    between atoms: C_4  and  C_5
REMARK    3  A    between atoms: N_7  and  C_8
REMARK    4  A    between atoms: C_8  and  C_9
REMARK    5  A    between atoms: C_12  and  C_13
REMARK    6  A    between atoms: C_13  and  N_14
REMARK    7  A    between atoms: N_14  and  CA_15
REMARK    8  A    between atoms: CA_15  and  C_16
REMARK    9  A    between atoms: CA_15  and  C_18
REMARK   10  A    between atoms: C_16  and  O_17
REMARK   11  A    between atoms: C_27  and  O_28
REMARK                            x       y       z     vdW  Elec       q    Type
REMARK                         _______ _______ _______ _____ _____    ______ ____
ROOT
ATOM      1  C   UNL     1      48.531   8.054  13.473  0.00  0.00    +0.000 A 
ATOM      2  C   UNL     1      48.246   9.191  14.238  0.00  0.00    +0.000 A 
ATOM      3  C   UNL     1      48.286   9.135  15.634  0.00  0.00    +0.000 A 
ATOM      4  C   UNL     1      48.618   7.942  16.293  0.00  0.00    +0.000 A 
ATOM      5  C   UNL     1      48.905   6.807  15.524  0.00  0.00    +0.000 A 
ATOM      6  C   UNL     1      48.869   6.864  14.129  0.00  0.00    +0.000 A 
ENDROOT
BRANCH   1   7
ATOM      7  C   UNL     1      48.517   8.119  11.971  0.00  0.00    +0.000 C 
BRANCH   7  10
ATOM      8  C   UNL     1      46.409   7.009  11.433  0.00  0.00    +0.000 C 
ATOM      9  O   UNL     1      45.746   7.915  11.926  0.00  0.00    +0.000 OA
ATOM     10  N   UNL     1      47.779   7.016  11.407  0.00  0.00    +0.000 N 
ATOM     11  H   UNL     1      48.293   6.259  10.981  0.00  0.00    +0.000 HD
BRANCH   8  15
ATOM     12  C   UNL     1      44.815   3.567   8.157  0.00  0.00    +0.000 C 
ATOM     13  N   UNL     1      45.039   4.299   9.383  0.00  0.00    +0.000 N 
ATOM     14  C   UNL     1      45.769   5.455   9.500  0.00  0.00    +0.000 A 
ATOM     15  C   UNL     1      45.760   5.845  10.834  0.00  0.00    +0.000 A 
ATOM     16  C   UNL     1      44.977   4.867  11.537  0.00  0.00    +0.000 A 
ATOM     17  C   UNL     1      44.563   4.637  12.856  0.00  0.00    +0.000 A 
ATOM     18  N   UNL     1      43.806   3.567  13.155  0.00  0.00    +0.000 NA
ATOM     19  C   UNL     1      43.471   2.741  12.150  0.00  0.00    +0.000 A 
ATOM     20  N   UNL     1      43.796   2.842  10.849  0.00  0.00    +0.000 NA
ATOM     21  C   UNL     1      44.552   3.928  10.607  0.00  0.00    +0.000 A 
BRANCH  17  22
ATOM     22  O   UNL     1      44.878   5.446  13.920  0.00  0.00    +0.000 OA
ATOM     23  H   UNL     1      45.016   6.352  13.574  0.00  0.00    +0.000 HD
ENDBRANCH  17  22
ENDBRANCH   8  15
ENDBRANCH   7  10
ENDBRANCH   1   7
BRANCH   4  24
ATOM     24  C   UNL     1      48.731   7.887  17.801  0.00  0.00    +0.000 C 
BRANCH  24  25
ATOM     25  N   UNL     1      47.788   6.931  18.376  0.00  0.00    +0.000 NA
ATOM     26  H   UNL     1      47.296   6.476  17.603  0.00  0.00    +0.000 HD
BRANCH  25  27
ATOM     27  CA  UNL     1      48.439   5.859  19.169  0.00  0.00    +0.000 C 
BRANCH  27  28
ATOM     28  C   UNL     1      48.626   4.609  18.308  0.00  0.00    +0.000 A 
ATOM     29  C   UNL     1      47.548   4.080  17.581  0.00  0.00    +0.000 A 
ATOM     30  C   UNL     1      47.712   2.935  16.796  0.00  0.00    +0.000 A 
ATOM     31  C   UNL     1      48.952   2.300  16.731  0.00  0.00    +0.000 A 
ATOM     32  C   UNL     1      50.033   2.816  17.437  0.00  0.00    +0.000 A 
ATOM     33  C   UNL     1      49.873   3.967  18.208  0.00  0.00    +0.000 A 
ENDBRANCH  27  28
BRANCH  27  34
ATOM     34  C   UNL     1      47.660   5.516  20.469  0.00  0.00    +0.000 C 
BRANCH  34  35
ATOM     35  O   UNL     1      48.130   4.317  21.085  0.00  0.00    +0.000 OA
ATOM     36  H   UNL     1      47.717   4.297  21.969  0.00  0.00    +0.000 HD
ENDBRANCH  34  35
ENDBRANCH  27  34
ENDBRANCH  25  27
ENDBRANCH  24  25
ENDBRANCH   4  24
TORSDOF 10
ENDMDL
MODEL 5
REMARK VINA RESULT:    -7.654      2.852      3.750
REMARK INTER + INTRA:         -12.527
REMARK INTER:                 -11.770
REMARK INTRA:                  -0.757
REMARK UNBOUND:                -0.847
REMARK  Name = 
REMARK  11 active torsions:
REMARK  status: ('A' for Active; 'I' for Inactive)
REMARK    1  A    between atoms: C_1  and  N_2
REMARK    2  A    between atoms: C_4  and  C_5
REMARK    3  A    between atoms: N_7  and  C_8
REMARK    4  A    between atoms: C_8  and  C_9
REMARK    5  A    between atoms: C_12  and  C_13
REMARK    6  A    between atoms: C_13  and  N_14
REMARK    7  A    between atoms: N_14  and  CA_15
REMARK    8  A    between atoms: CA_15  and  C_16
REMARK    9  A    between atoms: CA_15  and  C_18
REMARK   10  A    between atoms: C_16  and  O_17
REMARK   11  A    between atoms: C_27  and  O_28
REMARK                            x       y       z     vdW  Elec       q    Type
REMARK                         _______ _______ _______ _____ _____    ______ ____
ROOT
ATOM      1  C   UNL     1      48.236   5.897  15.465  0.00  0.00    +0.000 A 
ATOM      2  C   UNL     1      47.590   4.726  15.879  0.00  0.00    +0.000 A 
ATOM      3  C   UNL     1      46.782   4.010  14.990  0.00  0.00    +0.000 A 
ATOM      4  C   UNL     1      46.608   4.449  13.669  0.00  0.00    +0.000 A 
ATOM      5  C   UNL     1      47.259   5.619  13.258  0.00  0.00    +0.000 A 
ATOM      6  C   UNL     1      48.069   6.333  14.144  0.00  0.00    +0.000 A 
ENDROOT
BRANCH   1   7
ATOM      7  C   UNL     1      49.129   6.653  16.409  0.00  0.00    +0.000 C 
BRANCH   7  10
ATOM      8  C   UNL     1      50.290   5.439  18.182  0.00  0.00    +0.000 C 
ATOM      9  O   UNL     1      49.455   5.761  19.021  0.00  0.00    +0.000 OA
ATOM     10  N   UNL     1      50.218   5.829  16.871  0.00  0.00    +0.000 N 
ATOM     11  H   UNL     1      50.916   5.534  16.204  0.00  0.00    +0.000 HD
BRANCH   8  15
ATOM     12  C   UNL     1      54.577   3.792  20.188  0.00  0.00    +0.000 C 
ATOM     13  N   UNL     1      53.347   3.853  19.433  0.00  0.00    +0.000 N 
ATOM     14  C   UNL     1      52.512   4.939  19.355  0.00  0.00    +0.000 A 
ATOM     15  C   UNL     1      51.433   4.604  18.544  0.00  0.00    +0.000 A 
ATOM     16  C   UNL     1      51.651   3.250  18.118  0.00  0.00    +0.000 A 
ATOM     17  C   UNL     1      50.994   2.307  17.317  0.00  0.00    +0.000 A 
ATOM     18  N   UNL     1      51.518   1.081  17.141  0.00  0.00    +0.000 NA
ATOM     19  C   UNL     1      52.679   0.805  17.758  0.00  0.00    +0.000 A 
ATOM     20  N   UNL     1      53.410   1.610  18.548  0.00  0.00    +0.000 NA
ATOM     21  C   UNL     1      52.841   2.821  18.690  0.00  0.00    +0.000 A 
BRANCH  17  22
ATOM     22  O   UNL     1      49.807   2.534  16.666  0.00  0.00    +0.000 OA
ATOM     23  H   UNL     1      49.092   2.511  17.335  0.00  0.00    +0.000 HD
ENDBRANCH  17  22
ENDBRANCH   8  15
ENDBRANCH   7  10
ENDBRANCH   1   7
BRANCH   4  24
ATOM     24  C   UNL     1      45.792   3.646  12.680  0.00  0.00    +0.000 C 
BRANCH  24  25
ATOM     25  N   UNL     1      44.385   3.581  13.072  0.00  0.00    +0.000 NA
ATOM     26  H   UNL     1      44.218   4.326  13.752  0.00  0.00    +0.000 HD
BRANCH  25  27
ATOM     27  CA  UNL     1      43.445   3.799  11.945  0.00  0.00    +0.000 C 
BRANCH  27  28
ATOM     28  C   UNL     1      44.183   3.665  10.612  0.00  0.00    +0.000 A 
ATOM     29  C   UNL     1      44.271   2.419   9.972  0.00  0.00    +0.000 A 
ATOM     30  C   UNL     1      44.948   2.290   8.756  0.00  0.00    +0.000 A 
ATOM     31  C   UNL     1      45.551   3.402   8.166  0.00  0.00    +0.000 A 
ATOM     32  C   UNL     1      45.465   4.645   8.783  0.00  0.00    +0.000 A 
ATOM     33  C   UNL     1      44.776   4.777   9.988  0.00  0.00    +0.000 A 
ENDBRANCH  27  28
BRANCH  27  34
ATOM     34  C   UNL     1      42.713   5.168  12.030  0.00  0.00    +0.000 C 
BRANCH  34  35
ATOM     35  O   UNL     1      42.814   5.760  13.326  0.00  0.00    +0.000 OA
ATOM     36  H   UNL     1      43.255   6.619  13.187  0.00  0.00    +0.000 HD
ENDBRANCH  34  35
ENDBRANCH  27  34
ENDBRANCH  25  27
ENDBRANCH  24  25
ENDBRANCH   4  24
TORSDOF 10
ENDMDL
MODEL 6
REMARK VINA RESULT:    -7.290      2.093      2.657
REMARK INTER + INTRA:         -11.972
REMARK INTER:                 -10.791
REMARK INTRA:                  -1.181
REMARK UNBOUND:                -0.847
REMARK  Name = 
REMARK  11 active torsions:
REMARK  status: ('A' for Active; 'I' for Inactive)
REMARK    1  A    between atoms: C_1  and  N_2
REMARK    2  A    between atoms: C_4  and  C_5
REMARK    3  A    between atoms: N_7  and  C_8
REMARK    4  A    between atoms: C_8  and  C_9
REMARK    5  A    between atoms: C_12  and  C_13
REMARK    6  A    between atoms: C_13  and  N_14
REMARK    7  A    between atoms: N_14  and  CA_15
REMARK    8  A    between atoms: CA_15  and  C_16
REMARK    9  A    between atoms: CA_15  and  C_18
REMARK   10  A    between atoms: C_16  and  O_17
REMARK   11  A    between atoms: C_27  and  O_28
REMARK                            x       y       z     vdW  Elec       q    Type
REMARK                         _______ _______ _______ _____ _____    ______ ____
ROOT
ATOM      1  C   UNL     1      49.073   8.333  12.511  0.00  0.00    +0.000 A 
ATOM      2  C   UNL     1      48.197   9.420  12.402  0.00  0.00    +0.000 A 
ATOM      3  C   UNL     1      46.834   9.212  12.174  0.00  0.00    +0.000 A 
ATOM      4  C   UNL     1      46.317   7.913  12.056  0.00  0.00    +0.000 A 
ATOM      5  C   UNL     1      47.196   6.828  12.168  0.00  0.00    +0.000 A 
ATOM      6  C   UNL     1      48.558   7.035  12.399  0.00  0.00    +0.000 A 
ENDROOT
BRANCH   1   7
ATOM      7  C   UNL     1      50.534   8.552  12.785  0.00  0.00    +0.000 C 
BRANCH   7  10
ATOM      8  C   UNL     1      50.755   7.842  15.111  0.00  0.00    +0.000 C 
ATOM      9  O   UNL     1      50.105   8.799  15.519  0.00  0.00    +0.000 OA
ATOM     10  N   UNL     1      51.022   7.633  13.784  0.00  0.00    +0.000 N 
ATOM     11  H   UNL     1      51.549   6.827  13.482  0.00  0.00    +0.000 HD
BRANCH   8  15
ATOM     12  C   UNL     1      53.883   4.932  17.731  0.00  0.00    +0.000 C 
ATOM     13  N   UNL     1      52.678   5.544  17.220  0.00  0.00    +0.000 N 
ATOM     14  C   UNL     1      52.626   6.515  16.252  0.00  0.00    +0.000 A 
ATOM     15  C   UNL     1      51.295   6.851  16.041  0.00  0.00    +0.000 A 
ATOM     16  C   UNL     1      50.522   6.027  16.929  0.00  0.00    +0.000 A 
ATOM     17  C   UNL     1      49.169   5.839  17.239  0.00  0.00    +0.000 A 
ATOM     18  N   UNL     1      48.804   4.941  18.170  0.00  0.00    +0.000 NA
ATOM     19  C   UNL     1      49.777   4.245  18.781  0.00  0.00    +0.000 A 
ATOM     20  N   UNL     1      51.104   4.325  18.581  0.00  0.00    +0.000 NA
ATOM     21  C   UNL     1      51.413   5.236  17.641  0.00  0.00    +0.000 A 
BRANCH  17  22
ATOM     22  O   UNL     1      48.135   6.523  16.649  0.00  0.00    +0.000 OA
ATOM     23  H   UNL     1      48.525   7.176  16.031  0.00  0.00    +0.000 HD
ENDBRANCH  17  22
ENDBRANCH   8  15
ENDBRANCH   7  10
ENDBRANCH   1   7
BRANCH   4  24
ATOM     24  C   UNL     1      44.834   7.675  11.877  0.00  0.00    +0.000 C 
BRANCH  24  25
ATOM     25  N   UNL     1      44.567   6.748  10.779  0.00  0.00    +0.000 NA
ATOM     26  H   UNL     1      45.418   6.679  10.217  0.00  0.00    +0.000 HD
BRANCH  25  27
ATOM     27  CA  UNL     1      44.230   5.375  11.230  0.00  0.00    +0.000 C 
BRANCH  27  28
ATOM     28  C   UNL     1      44.660   4.355  10.175  0.00  0.00    +0.000 A 
ATOM     29  C   UNL     1      45.426   4.758   9.069  0.00  0.00    +0.000 A 
ATOM     30  C   UNL     1      45.818   3.832   8.099  0.00  0.00    +0.000 A 
ATOM     31  C   UNL     1      45.445   2.492   8.216  0.00  0.00    +0.000 A 
ATOM     32  C   UNL     1      44.694   2.075   9.309  0.00  0.00    +0.000 A 
ATOM     33  C   UNL     1      44.316   2.997  10.285  0.00  0.00    +0.000 A 
ENDBRANCH  27  28
BRANCH  27  34
ATOM     34  C   UNL     1      42.723   5.207  11.571  0.00  0.00    +0.000 C 
BRANCH  34  35
ATOM     35  O   UNL     1      42.456   5.386  12.962  0.00  0.00    +0.000 OA
ATOM     36  H   UNL     1      41.786   4.713  13.188  0.00  0.00    +0.000 HD
ENDBRANCH  34  35
ENDBRANCH  27  34
ENDBRANCH  25  27
ENDBRANCH  24  25
ENDBRANCH   4  24
TORSDOF 10
ENDMDL
MODEL 7
REMARK VINA RESULT:    -7.178      2.747      9.776
REMARK INTER + INTRA:         -11.802
REMARK INTER:                  -9.738
REMARK INTRA:                  -2.064
REMARK UNBOUND:                -0.847
REMARK  Name = 
REMARK  11 active torsions:
REMARK  status: ('A' for Active; 'I' for Inactive)
REMARK    1  A    between atoms: C_1  and  N_2
REMARK    2  A    between atoms: C_4  and  C_5
REMARK    3  A    between atoms: N_7  and  C_8
REMARK    4  A    between atoms: C_8  and  C_9
REMARK    5  A    between atoms: C_12  and  C_13
REMARK    6  A    between atoms: C_13  and  N_14
REMARK    7  A    between atoms: N_14  and  CA_15
REMARK    8  A    between atoms: CA_15  and  C_16
REMARK    9  A    between atoms: CA_15  and  C_18
REMARK   10  A    between atoms: C_16  and  O_17
REMARK   11  A    between atoms: C_27  and  O_28
REMARK                            x       y       z     vdW  Elec       q    Type
REMARK                         _______ _______ _______ _____ _____    ______ ____
ROOT
ATOM      1  C   UNL     1      48.847   3.823  16.996  0.00  0.00    +0.000 A 
ATOM      2  C   UNL     1      49.797   2.876  17.394  0.00  0.00    +0.000 A 
ATOM      3  C   UNL     1      51.094   3.272  17.735  0.00  0.00    +0.000 A 
ATOM      4  C   UNL     1      51.464   4.624  17.692  0.00  0.00    +0.000 A 
ATOM      5  C   UNL     1      50.509   5.569  17.296  0.00  0.00    +0.000 A 
ATOM      6  C   UNL     1      49.212   5.175  16.958  0.00  0.00    +0.000 A 
ENDROOT
BRANCH   1   7
ATOM      7  C   UNL     1      47.444   3.404  16.656  0.00  0.00    +0.000 C 
BRANCH   7  10
ATOM      8  C   UNL     1      46.787   4.112  14.413  0.00  0.00    +0.000 C 
ATOM      9  O   UNL     1      47.277   3.113  13.897  0.00  0.00    +0.000 OA
ATOM     10  N   UNL     1      46.819   4.347  15.762  0.00  0.00    +0.000 N 
ATOM     11  H   UNL     1      46.393   5.174  16.154  0.00  0.00    +0.000 HD
BRANCH   8  15
ATOM     12  C   UNL     1      45.589   8.450  12.207  0.00  0.00    +0.000 C 
ATOM     13  N   UNL     1      45.580   7.060  12.603  0.00  0.00    +0.000 N 
ATOM     14  C   UNL     1      46.455   6.476  13.484  0.00  0.00    +0.000 A 
ATOM     15  C   UNL     1      46.128   5.130  13.597  0.00  0.00    +0.000 A 
ATOM     16  C   UNL     1      44.995   4.914  12.740  0.00  0.00    +0.000 A 
ATOM     17  C   UNL     1      44.172   3.840  12.376  0.00  0.00    +0.000 A 
ATOM     18  N   UNL     1      43.166   4.020  11.503  0.00  0.00    +0.000 NA
ATOM     19  C   UNL     1      42.988   5.254  11.003  0.00  0.00    +0.000 A 
ATOM     20  N   UNL     1      43.697   6.366  11.265  0.00  0.00    +0.000 NA
ATOM     21  C   UNL     1      44.689   6.129  12.142  0.00  0.00    +0.000 A 
BRANCH  17  22
ATOM     22  O   UNL     1      44.311   2.560  12.852  0.00  0.00    +0.000 OA
ATOM     23  H   UNL     1      43.515   2.056  12.586  0.00  0.00    +0.000 HD
ENDBRANCH  17  22
ENDBRANCH   8  15
ENDBRANCH   7  10
ENDBRANCH   1   7
BRANCH   4  24
ATOM     24  C   UNL     1      52.843   5.072  18.125  0.00  0.00    +0.000 C 
BRANCH  24  25
ATOM     25  N   UNL     1      53.054   4.857  19.555  0.00  0.00    +0.000 NA
ATOM     26  H   UNL     1      54.051   4.679  19.698  0.00  0.00    +0.000 HD
BRANCH  25  27
ATOM     27  CA  UNL     1      52.696   6.030  20.390  0.00  0.00    +0.000 C 
BRANCH  27  28
ATOM     28  C   UNL     1      51.190   6.042  20.659  0.00  0.00    +0.000 A 
ATOM     29  C   UNL     1      50.448   7.222  20.486  0.00  0.00    +0.000 A 
ATOM     30  C   UNL     1      49.073   7.240  20.735  0.00  0.00    +0.000 A 
ATOM     31  C   UNL     1      48.421   6.084  21.165  0.00  0.00    +0.000 A 
ATOM     32  C   UNL     1      49.139   4.905  21.332  0.00  0.00    +0.000 A 
ATOM     33  C   UNL     1      50.509   4.883  21.069  0.00  0.00    +0.000 A 
ENDBRANCH  27  28
BRANCH  27  34
ATOM     34  C   UNL     1      53.151   7.376  19.762  0.00  0.00    +0.000 C 
BRANCH  34  35
ATOM     35  O   UNL     1      54.552   7.602  19.914  0.00  0.00    +0.000 OA
ATOM     36  H   UNL     1      54.809   8.168  19.161  0.00  0.00    +0.000 HD
ENDBRANCH  34  35
ENDBRANCH  27  34
ENDBRANCH  25  27
ENDBRANCH  24  25
ENDBRANCH   4  24
TORSDOF 10
ENDMDL
MODEL 8
REMARK VINA RESULT:    -7.167      2.512      3.298
REMARK INTER + INTRA:         -11.784
REMARK INTER:                 -10.838
REMARK INTRA:                  -0.946
REMARK UNBOUND:                -0.847
REMARK  Name = 
REMARK  11 active torsions:
REMARK  status: ('A' for Active; 'I' for Inactive)
REMARK    1  A    between atoms: C_1  and  N_2
REMARK    2  A    between atoms: C_4  and  C_5
REMARK    3  A    between atoms: N_7  and  C_8
REMARK    4  A    between atoms: C_8  and  C_9
REMARK    5  A    between atoms: C_12  and  C_13
REMARK    6  A    between atoms: C_13  and  N_14
REMARK    7  A    between atoms: N_14  and  CA_15
REMARK    8  A    between atoms: CA_15  and  C_16
REMARK    9  A    between atoms: CA_15  and  C_18
REMARK   10  A    between atoms: C_16  and  O_17
REMARK   11  A    between atoms: C_27  and  O_28
REMARK                            x       y       z     vdW  Elec       q    Type
REMARK                         _______ _______ _______ _____ _____    ______ ____
ROOT
ATOM      1  C   UNL     1      47.889   6.398  14.466  0.00  0.00    +0.000 A 
ATOM      2  C   UNL     1      47.601   5.164  15.061  0.00  0.00    +0.000 A 
ATOM      3  C   UNL     1      46.816   4.220  14.393  0.00  0.00    +0.000 A 
ATOM      4  C   UNL     1      46.309   4.489  13.113  0.00  0.00    +0.000 A 
ATOM      5  C   UNL     1      46.602   5.723  12.519  0.00  0.00    +0.000 A 
ATOM      6  C   UNL     1      47.389   6.665  13.185  0.00  0.00    +0.000 A 
ENDROOT
BRANCH   1   7
ATOM      7  C   UNL     1      48.757   7.404  15.170  0.00  0.00    +0.000 C 
BRANCH   7  10
ATOM      8  C   UNL     1      49.103   7.340  17.587  0.00  0.00    +0.000 C 
ATOM      9  O   UNL     1      50.229   6.871  17.465  0.00  0.00    +0.000 OA
ATOM     10  N   UNL     1      48.299   7.636  16.517  0.00  0.00    +0.000 N 
ATOM     11  H   UNL     1      47.382   8.034  16.654  0.00  0.00    +0.000 HD
BRANCH   8  15
ATOM     12  C   UNL     1      47.058   9.640  21.542  0.00  0.00    +0.000 C 
ATOM     13  N   UNL     1      47.630   8.627  20.685  0.00  0.00    +0.000 N 
ATOM     14  C   UNL     1      48.073   8.827  19.402  0.00  0.00    +0.000 A 
ATOM     15  C   UNL     1      48.544   7.615  18.909  0.00  0.00    +0.000 A 
ATOM     16  C   UNL     1      48.371   6.654  19.963  0.00  0.00    +0.000 A 
ATOM     17  C   UNL     1      48.619   5.289  20.159  0.00  0.00    +0.000 A 
ATOM     18  N   UNL     1      48.309   4.703  21.328  0.00  0.00    +0.000 NA
ATOM     19  C   UNL     1      47.762   5.471  22.284  0.00  0.00    +0.000 A 
ATOM     20  N   UNL     1      47.474   6.783  22.231  0.00  0.00    +0.000 NA
ATOM     21  C   UNL     1      47.803   7.318  21.041  0.00  0.00    +0.000 A 
BRANCH  17  22
ATOM     22  O   UNL     1      49.173   4.458  19.217  0.00  0.00    +0.000 OA
ATOM     23  H   UNL     1      49.779   4.995  18.666  0.00  0.00    +0.000 HD
ENDBRANCH  17  22
ENDBRANCH   8  15
ENDBRANCH   7  10
ENDBRANCH   1   7
BRANCH   4  24
ATOM     24  C   UNL     1      45.517   3.448  12.352  0.00  0.00    +0.000 C 
BRANCH  24  25
ATOM     25  N   UNL     1      44.080   3.705  12.428  0.00  0.00    +0.000 NA
ATOM     26  H   UNL     1      43.939   4.491  13.067  0.00  0.00    +0.000 HD
BRANCH  25  27
ATOM     27  CA  UNL     1      43.476   4.086  11.128  0.00  0.00    +0.000 C 
BRANCH  27  28
ATOM     28  C   UNL     1      44.363   3.610   9.977  0.00  0.00    +0.000 A 
ATOM     29  C   UNL     1      44.494   2.239   9.702  0.00  0.00    +0.000 A 
ATOM     30  C   UNL     1      45.308   1.798   8.654  0.00  0.00    +0.000 A 
ATOM     31  C   UNL     1      46.005   2.719   7.871  0.00  0.00    +0.000 A 
ATOM     32  C   UNL     1      45.879   4.080   8.124  0.00  0.00    +0.000 A 
ATOM     33  C   UNL     1      45.055   4.521   9.160  0.00  0.00    +0.000 A 
ENDBRANCH  27  28
BRANCH  27  34
ATOM     34  C   UNL     1      43.206   5.612  11.015  0.00  0.00    +0.000 C 
BRANCH  34  35
ATOM     35  O   UNL     1      42.039   6.014  11.734  0.00  0.00    +0.000 OA
ATOM     36  H   UNL     1      41.690   5.199  12.141  0.00  0.00    +0.000 HD
ENDBRANCH  34  35
ENDBRANCH  27  34
ENDBRANCH  25  27
ENDBRANCH  24  25
ENDBRANCH   4  24
TORSDOF 10
ENDMDL
MODEL 9
REMARK VINA RESULT:    -7.017      2.893      3.628
REMARK INTER + INTRA:         -11.556
REMARK INTER:                 -10.669
REMARK INTRA:                  -0.886
REMARK UNBOUND:                -0.847
REMARK  Name = 
REMARK  11 active torsions:
REMARK  status: ('A' for Active; 'I' for Inactive)
REMARK    1  A    between atoms: C_1  and  N_2
REMARK    2  A    between atoms: C_4  and  C_5
REMARK    3  A    between atoms: N_7  and  C_8
REMARK    4  A    between atoms: C_8  and  C_9
REMARK    5  A    between atoms: C_12  and  C_13
REMARK    6  A    between atoms: C_13  and  N_14
REMARK    7  A    between atoms: N_14  and  CA_15
REMARK    8  A    between atoms: CA_15  and  C_16
REMARK    9  A    between atoms: CA_15  and  C_18
REMARK   10  A    between atoms: C_16  and  O_17
REMARK   11  A    between atoms: C_27  and  O_28
REMARK                            x       y       z     vdW  Elec       q    Type
REMARK                         _______ _______ _______ _____ _____    ______ ____
ROOT
ATOM      1  C   UNL     1      47.492   7.184  13.677  0.00  0.00    +0.000 A 
ATOM      2  C   UNL     1      46.818   7.098  12.453  0.00  0.00    +0.000 A 
ATOM      3  C   UNL     1      46.221   5.898  12.055  0.00  0.00    +0.000 A 
ATOM      4  C   UNL     1      46.281   4.762  12.876  0.00  0.00    +0.000 A 
ATOM      5  C   UNL     1      46.953   4.854  14.101  0.00  0.00    +0.000 A 
ATOM      6  C   UNL     1      47.548   6.053  14.501  0.00  0.00    +0.000 A 
ENDROOT
BRANCH   1   7
ATOM      7  C   UNL     1      48.110   8.481  14.120  0.00  0.00    +0.000 C 
BRANCH   7  10
ATOM      8  C   UNL     1      48.510   9.608  16.249  0.00  0.00    +0.000 C 
ATOM      9  O   UNL     1      49.581  10.067  15.865  0.00  0.00    +0.000 OA
ATOM     10  N   UNL     1      47.714   8.815  15.465  0.00  0.00    +0.000 N 
ATOM     11  H   UNL     1      46.831   8.466  15.809  0.00  0.00    +0.000 HD
BRANCH   8  15
ATOM     12  C   UNL     1      46.662  11.924  20.292  0.00  0.00    +0.000 C 
ATOM     13  N   UNL     1      47.189  10.907  19.411  0.00  0.00    +0.000 N 
ATOM     14  C   UNL     1      47.573  11.102  18.108  0.00  0.00    +0.000 A 
ATOM     15  C   UNL     1      48.014   9.888  17.596  0.00  0.00    +0.000 A 
ATOM     16  C   UNL     1      47.888   8.929  18.659  0.00  0.00    +0.000 A 
ATOM     17  C   UNL     1      48.139   7.563  18.845  0.00  0.00    +0.000 A 
ATOM     18  N   UNL     1      47.882   6.981  20.029  0.00  0.00    +0.000 NA
ATOM     19  C   UNL     1      47.383   7.753  21.009  0.00  0.00    +0.000 A 
ATOM     20  N   UNL     1      47.098   9.066  20.966  0.00  0.00    +0.000 NA
ATOM     21  C   UNL     1      47.373   9.597  19.761  0.00  0.00    +0.000 A 
BRANCH  17  22
ATOM     22  O   UNL     1      48.644   6.728  17.880  0.00  0.00    +0.000 OA
ATOM     23  H   UNL     1      49.249   6.096  18.321  0.00  0.00    +0.000 HD
ENDBRANCH  17  22
ENDBRANCH   8  15
ENDBRANCH   7  10
ENDBRANCH   1   7
BRANCH   4  24
ATOM     24  C   UNL     1      45.580   3.479  12.487  0.00  0.00    +0.000 C 
BRANCH  24  25
ATOM     25  N   UNL     1      44.155   3.524  12.810  0.00  0.00    +0.000 NA
ATOM     26  H   UNL     1      43.996   4.349  13.394  0.00  0.00    +0.000 HD
BRANCH  25  27
ATOM     27  CA  UNL     1      43.281   3.657  11.619  0.00  0.00    +0.000 C 
BRANCH  27  28
ATOM     28  C   UNL     1      44.094   3.431  10.343  0.00  0.00    +0.000 A 
ATOM     29  C   UNL     1      44.495   4.520   9.554  0.00  0.00    +0.000 A 
ATOM     30  C   UNL     1      45.233   4.319   8.385  0.00  0.00    +0.000 A 
ATOM     31  C   UNL     1      45.577   3.027   7.985  0.00  0.00    +0.000 A 
ATOM     32  C   UNL     1      45.196   1.937   8.760  0.00  0.00    +0.000 A 
ATOM     33  C   UNL     1      44.472   2.140   9.935  0.00  0.00    +0.000 A 
ENDBRANCH  27  28
BRANCH  27  34
ATOM     34  C   UNL     1      42.545   5.025  11.563  0.00  0.00    +0.000 C 
BRANCH  34  35
ATOM     35  O   UNL     1      42.833   5.845  12.696  0.00  0.00    +0.000 OA
ATOM     36  H   UNL     1      43.650   6.327  12.469  0.00  0.00    +0.000 HD
ENDBRANCH  34  35
ENDBRANCH  27  34
ENDBRANCH  25  27
ENDBRANCH  24  25
ENDBRANCH   4  24
TORSDOF 10
ENDMDL
