MODEL 1
REMARK VINA RESULT:    -7.544      0.000      0.000
REMARK INTER + INTRA:         -11.575
REMARK INTER:                 -10.631
REMARK INTRA:                  -0.943
REMARK UNBOUND:                -0.943
REMARK  Name = 
REMARK  7 active torsions:
REMARK  status: ('A' for Active; 'I' for Inactive)
REMARK    1  A    between atoms: C_2  and  C_4
REMARK    2  A    between atoms: C_7  and  C_8
REMARK    3  A    between atoms: C_8  and  C_9
REMARK    4  A    between atoms: C_9  and  N_10
REMARK    5  A    between atoms: N_10  and  C_11
REMARK    6  A    between atoms: C_15  and  C_16
REMARK    7  A    between atoms: C_16  and  C_17
REMARK                            x       y       z     vdW  Elec       q    Type
REMARK                         _______ _______ _______ _____ _____    ______ ____
ROOT
ATOM      1  C   UNL     1      43.528   5.013  10.980  0.00  0.00    +0.000 C 
ENDROOT
BRANCH   1   2
ATOM      2  N   UNL     1      43.922   5.394  12.345  0.00  0.00    +0.000 N 
ATOM      3  H   UNL     1      43.302   6.109  12.717  0.00  0.00    +0.000 HD
BRANCH   2   4
ATOM      4  C   UNL     1      45.267   5.777  12.529  0.00  0.00    +0.000 A 
ATOM      5  C   UNL     1      45.998   6.490  11.573  0.00  0.00    +0.000 A 
ATOM      6  C   UNL     1      47.339   6.820  11.782  0.00  0.00    +0.000 A 
ATOM      7  C   UNL     1      47.975   6.447  12.963  0.00  0.00    +0.000 A 
ATOM      8  C   UNL     1      47.282   5.713  13.931  0.00  0.00    +0.000 A 
ATOM      9  C   UNL     1      45.946   5.348  13.680  0.00  0.00    +0.000 A 
BRANCH   8  10
ATOM     10  C   UNL     1      47.933   5.366  15.246  0.00  0.00    +0.000 C 
BRANCH  10  11
ATOM     11  C   UNL     1      47.216   4.221  15.937  0.00  0.00    +0.000 C 
ATOM     12  C   UNL     1      47.262   4.307  17.468  0.00  0.00    +0.000 C 
ATOM     13  O   UNL     1      47.854   2.996  17.576  0.00  0.00    +0.000 OA
ATOM     14  C   UNL     1      47.982   2.906  16.138  0.00  0.00    +0.000 C 
ENDBRANCH  10  11
ENDBRANCH   8  10
ENDBRANCH   2   4
ENDBRANCH   1   2
BRANCH   1  15
ATOM     15  C   UNL     1      43.687   3.509  10.740  0.00  0.00    +0.000 C 
BRANCH  15  19
ATOM     16  C   UNL     1      46.400   2.701   7.556  0.00  0.00    +0.000 A 
ATOM     17  C   UNL     1      45.994   4.017   7.774  0.00  0.00    +0.000 A 
ATOM     18  C   UNL     1      45.102   4.294   8.809  0.00  0.00    +0.000 A 
ATOM     19  C   UNL     1      44.643   3.248   9.603  0.00  0.00    +0.000 A 
ATOM     20  N   UNL     1      45.005   1.959   9.385  0.00  0.00    +0.000 NA
ATOM     21  C   UNL     1      45.867   1.711   8.367  0.00  0.00    +0.000 A 
BRANCH  16  23
ATOM     22  N   UNL     1      47.412   3.118   5.388  0.00  0.00    +0.000 N 
ATOM     23  C   UNL     1      47.357   2.319   6.497  0.00  0.00    +0.000 C 
ATOM     24  O   UNL     1      48.100   1.355   6.620  0.00  0.00    +0.000 OA
ATOM     25  H   UNL     1      48.145   2.911   4.723  0.00  0.00    +0.000 HD
ATOM     26  H   UNL     1      47.009   4.045   5.364  0.00  0.00    +0.000 HD
ENDBRANCH  16  23
ENDBRANCH  15  19
ENDBRANCH   1  15
TORSDOF 7
ENDMDL
MODEL 2
REMARK VINA RESULT:    -7.369      2.463      3.623
REMARK INTER + INTRA:         -11.329
REMARK INTER:                 -10.554
REMARK INTRA:                  -0.775
REMARK UNBOUND:                -0.943
REMARK  Name = 
REMARK  7 active torsions:
REMARK  status: ('A' for Active; 'I' for Inactive)
REMARK    1  A    between atoms: C_2  and  C_4
REMARK    2  A    between atoms: C_7  and  C_8
REMARK    3  A    between atoms: C_8  and  C_9
REMARK    4  A    between atoms: C_9  and  N_10
REMARK    5  A    between atoms: N_10  and  C_11
REMARK    6  A    between atoms: C_15  and  C_16
REMARK    7  A    between atoms: C_16  and  C_17
REMARK                            x       y       z     vdW  Elec       q    Type
REMARK                         _______ _______ _______ _____ _____    ______ ____
ROOT
ATOM      1  C   UNL     1      43.284   3.976  11.405  0.00  0.00    +0.000 C 
ENDROOT
BRANCH   1   2
ATOM      2  N   UNL     1      43.490   4.862  12.561  0.00  0.00    +0.000 N 
ATOM      3  H   UNL     1      42.912   5.696  12.488  0.00  0.00    +0.000 HD
BRANCH   2   4
ATOM      4  C   UNL     1      44.822   5.222  12.850  0.00  0.00    +0.000 A 
ATOM      5  C   UNL     1      45.730   4.360  13.476  0.00  0.00    +0.000 A 
ATOM      6  C   UNL     1      47.031   4.770  13.775  0.00  0.00    +0.000 A 
ATOM      7  C   UNL     1      47.454   6.054  13.443  0.00  0.00    +0.000 A 
ATOM      8  C   UNL     1      46.567   6.949  12.837  0.00  0.00    +0.000 A 
ATOM      9  C   UNL     1      45.246   6.535  12.589  0.00  0.00    +0.000 A 
BRANCH   8  10
ATOM     10  C   UNL     1      47.031   8.317  12.404  0.00  0.00    +0.000 C 
BRANCH  10  11
ATOM     11  C   UNL     1      48.526   8.488  12.605  0.00  0.00    +0.000 C 
ATOM     12  C   UNL     1      49.002   9.937  12.444  0.00  0.00    +0.000 C 
ATOM     13  O   UNL     1      49.952   9.566  11.423  0.00  0.00    +0.000 OA
ATOM     14  C   UNL     1      49.452   8.209  11.412  0.00  0.00    +0.000 C 
ENDBRANCH  10  11
ENDBRANCH   8  10
ENDBRANCH   2   4
ENDBRANCH   1   2
BRANCH   1  15
ATOM     15  C   UNL     1      43.605   4.679  10.084  0.00  0.00    +0.000 C 
BRANCH  15  19
ATOM     16  C   UNL     1      46.404   2.464   7.757  0.00  0.00    +0.000 A 
ATOM     17  C   UNL     1      45.608   1.783   8.679  0.00  0.00    +0.000 A 
ATOM     18  C   UNL     1      44.693   2.497   9.450  0.00  0.00    +0.000 A 
ATOM     19  C   UNL     1      44.592   3.874   9.276  0.00  0.00    +0.000 A 
ATOM     20  N   UNL     1      45.380   4.555   8.407  0.00  0.00    +0.000 NA
ATOM     21  C   UNL     1      46.270   3.841   7.673  0.00  0.00    +0.000 A 
BRANCH  16  23
ATOM     22  N   UNL     1      48.444   2.529   6.442  0.00  0.00    +0.000 N 
ATOM     23  C   UNL     1      47.384   1.786   6.885  0.00  0.00    +0.000 C 
ATOM     24  O   UNL     1      47.280   0.601   6.601  0.00  0.00    +0.000 OA
ATOM     25  H   UNL     1      49.164   2.027   5.939  0.00  0.00    +0.000 HD
ATOM     26  H   UNL     1      48.697   3.417   6.854  0.00  0.00    +0.000 HD
ENDBRANCH  16  23
ENDBRANCH  15  19
ENDBRANCH   1  15
TORSDOF 7
ENDMDL
MODEL 3
REMARK VINA RESULT:    -7.229      2.043      7.839
REMARK INTER + INTRA:         -11.130
REMARK INTER:                 -10.216
REMARK INTRA:                  -0.914
REMARK UNBOUND:                -0.943
REMARK  Name = 
REMARK  7 active torsions:
REMARK  status: ('A' for Active; 'I' for Inactive)
REMARK    1  A    between atoms: C_2  and  C_4
REMARK    2  A    between atoms: C_7  and  C_8
REMARK    3  A    between atoms: C_8  and  C_9
REMARK    4  A    between atoms: C_9  and  N_10
REMARK    5  A    between atoms: N_10  and  C_11
REMARK    6  A    between atoms: C_15  and  C_16
REMARK    7  A    between atoms: C_16  and  C_17
REMARK                            x       y       z     vdW  Elec       q    Type
REMARK                         _______ _______ _______ _____ _____    ______ ____
ROOT
ATOM      1  C   UNL     1      46.844   6.493  11.122  0.00  0.00    +0.000 C 
ENDROOT
BRANCH   1   2
ATOM      2  N   UNL     1      45.412   6.222  10.921  0.00  0.00    +0.000 N 
ATOM      3  H   UNL     1      44.889   6.370  11.780  0.00  0.00    +0.000 HD
BRANCH   2   4
ATOM      4  C   UNL     1      45.081   4.970  10.363  0.00  0.00    +0.000 A 
ATOM      5  C   UNL     1      44.398   3.973  11.068  0.00  0.00    +0.000 A 
ATOM      6  C   UNL     1      44.119   2.734  10.487  0.00  0.00    +0.000 A 
ATOM      7  C   UNL     1      44.515   2.470   9.179  0.00  0.00    +0.000 A 
ATOM      8  C   UNL     1      45.220   3.434   8.452  0.00  0.00    +0.000 A 
ATOM      9  C   UNL     1      45.534   4.658   9.071  0.00  0.00    +0.000 A 
BRANCH   8  10
ATOM     10  C   UNL     1      45.589   3.193   7.010  0.00  0.00    +0.000 C 
BRANCH  10  11
ATOM     11  C   UNL     1      47.091   3.055   6.835  0.00  0.00    +0.000 C 
ATOM     12  C   UNL     1      47.512   2.748   5.393  0.00  0.00    +0.000 C 
ATOM     13  O   UNL     1      48.217   1.555   5.798  0.00  0.00    +0.000 OA
ATOM     14  C   UNL     1      47.733   1.697   7.154  0.00  0.00    +0.000 C 
ENDBRANCH  10  11
ENDBRANCH   8  10
ENDBRANCH   2   4
ENDBRANCH   1   2
BRANCH   1  15
ATOM     15  C   UNL     1      47.094   7.322  12.385  0.00  0.00    +0.000 C 
BRANCH  15  19
ATOM     16  C   UNL     1      47.557   4.755  15.755  0.00  0.00    +0.000 A 
ATOM     17  C   UNL     1      48.394   5.865  15.635  0.00  0.00    +0.000 A 
ATOM     18  C   UNL     1      48.257   6.710  14.534  0.00  0.00    +0.000 A 
ATOM     19  C   UNL     1      47.282   6.426  13.583  0.00  0.00    +0.000 A 
ATOM     20  N   UNL     1      46.481   5.334  13.669  0.00  0.00    +0.000 NA
ATOM     21  C   UNL     1      46.637   4.522  14.744  0.00  0.00    +0.000 A 
BRANCH  16  23
ATOM     22  N   UNL     1      48.802   3.744  17.578  0.00  0.00    +0.000 N 
ATOM     23  C   UNL     1      47.618   3.821  16.896  0.00  0.00    +0.000 C 
ATOM     24  O   UNL     1      46.642   3.171  17.247  0.00  0.00    +0.000 OA
ATOM     25  H   UNL     1      48.797   3.186  18.422  0.00  0.00    +0.000 HD
ATOM     26  H   UNL     1      49.532   4.437  17.481  0.00  0.00    +0.000 HD
ENDBRANCH  16  23
ENDBRANCH  15  19
ENDBRANCH   1  15
TORSDOF 7
ENDMDL
MODEL 4
REMARK VINA RESULT:    -7.132      1.792      2.591
REMARK INTER + INTRA:         -10.994
REMARK INTER:                 -10.115
REMARK INTRA:                  -0.879
REMARK UNBOUND:                -0.943
REMARK  Name = 
REMARK  7 active torsions:
REMARK  status: ('A' for Active; 'I' for Inactive)
REMARK    1  A    between atoms: C_2  and  C_4
REMARK    2  A    between atoms: C_7  and  C_8
REMARK    3  A    between atoms: C_8  and  C_9
REMARK    4  A    between atoms: C_9  and  N_10
REMARK    5  A    between atoms: N_10  and  C_11
REMARK    6  A    between atoms: C_15  and  C_16
REMARK    7  A    between atoms: C_16  and  C_17
REMARK                            x       y       z     vdW  Elec       q    Type
REMARK                         _______ _______ _______ _____ _____    ______ ____
ROOT
ATOM      1  C   UNL     1      44.416   5.125  11.365  0.00  0.00    +0.000 C 
ENDROOT
BRANCH   1   2
ATOM      2  N   UNL     1      44.183   6.498  10.891  0.00  0.00    +0.000 N 
ATOM      3  H   UNL     1      44.169   6.536   9.875  0.00  0.00    +0.000 HD
BRANCH   2   4
ATOM      4  C   UNL     1      45.043   7.494  11.399  0.00  0.00    +0.000 A 
ATOM      5  C   UNL     1      44.696   8.849  11.458  0.00  0.00    +0.000 A 
ATOM      6  C   UNL     1      45.592   9.807  11.937  0.00  0.00    +0.000 A 
ATOM      7  C   UNL     1      46.857   9.425  12.375  0.00  0.00    +0.000 A 
ATOM      8  C   UNL     1      47.246   8.084  12.309  0.00  0.00    +0.000 A 
ATOM      9  C   UNL     1      46.347   7.140  11.778  0.00  0.00    +0.000 A 
BRANCH   8  10
ATOM     10  C   UNL     1      48.583   7.643  12.850  0.00  0.00    +0.000 C 
BRANCH  10  11
ATOM     11  C   UNL     1      48.564   7.538  14.364  0.00  0.00    +0.000 C 
ATOM     12  C   UNL     1      49.947   7.278  14.976  0.00  0.00    +0.000 C 
ATOM     13  O   UNL     1      49.483   6.088  15.648  0.00  0.00    +0.000 OA
ATOM     14  C   UNL     1      48.198   6.184  14.989  0.00  0.00    +0.000 C 
ENDBRANCH  10  11
ENDBRANCH   8  10
ENDBRANCH   2   4
ENDBRANCH   1   2
BRANCH   1  15
ATOM     15  C   UNL     1      43.763   4.088  10.448  0.00  0.00    +0.000 C 
BRANCH  15  19
ATOM     16  C   UNL     1      46.534   2.753   7.500  0.00  0.00    +0.000 A 
ATOM     17  C   UNL     1      45.995   1.821   8.387  0.00  0.00    +0.000 A 
ATOM     18  C   UNL     1      45.092   2.245   9.360  0.00  0.00    +0.000 A 
ATOM     19  C   UNL     1      44.746   3.592   9.418  0.00  0.00    +0.000 A 
ATOM     20  N   UNL     1      45.283   4.516   8.583  0.00  0.00    +0.000 NA
ATOM     21  C   UNL     1      46.167   4.082   7.649  0.00  0.00    +0.000 A 
BRANCH  16  23
ATOM     22  N   UNL     1      47.445   3.139   5.282  0.00  0.00    +0.000 N 
ATOM     23  C   UNL     1      47.480   2.389   6.426  0.00  0.00    +0.000 C 
ATOM     24  O   UNL     1      48.290   1.483   6.564  0.00  0.00    +0.000 OA
ATOM     25  H   UNL     1      48.170   2.952   4.602  0.00  0.00    +0.000 HD
ATOM     26  H   UNL     1      46.980   4.035   5.233  0.00  0.00    +0.000 HD
ENDBRANCH  16  23
ENDBRANCH  15  19
ENDBRANCH   1  15
TORSDOF 7
ENDMDL
MODEL 5
REMARK VINA RESULT:    -6.853      3.131      4.602
REMARK INTER + INTRA:         -10.600
REMARK INTER:                  -9.919
REMARK INTRA:                  -0.681
REMARK UNBOUND:                -0.943
REMARK  Name = 
REMARK  7 active torsions:
REMARK  status: ('A' for Active; 'I' for Inactive)
REMARK    1  A    between atoms: C_2  and  C_4
REMARK    2  A    between atoms: C_7  and  C_8
REMARK    3  A    between atoms: C_8  and  C_9
REMARK    4  A    between atoms: C_9  and  N_10
REMARK    5  A    between atoms: N_10  and  C_11
REMARK    6  A    between atoms: C_15  and  C_16
REMARK    7  A    between atoms: C_16  and  C_17
REMARK                            x       y       z     vdW  Elec       q    Type
REMARK                         _______ _______ _______ _____ _____    ______ ____
ROOT
ATOM      1  C   UNL     1      43.547   4.159  11.441  0.00  0.00    +0.000 C 
ENDROOT
BRANCH   1   2
ATOM      2  N   UNL     1      43.689   5.236  12.433  0.00  0.00    +0.000 N 
ATOM      3  H   UNL     1      42.896   5.872  12.398  0.00  0.00    +0.000 HD
BRANCH   2   4
ATOM      4  C   UNL     1      44.895   5.966  12.403  0.00  0.00    +0.000 A 
ATOM      5  C   UNL     1      46.155   5.370  12.522  0.00  0.00    +0.000 A 
ATOM      6  C   UNL     1      47.323   6.136  12.521  0.00  0.00    +0.000 A 
ATOM      7  C   UNL     1      47.252   7.520  12.392  0.00  0.00    +0.000 A 
ATOM      8  C   UNL     1      46.009   8.152  12.294  0.00  0.00    +0.000 A 
ATOM      9  C   UNL     1      44.842   7.368  12.346  0.00  0.00    +0.000 A 
BRANCH   8  10
ATOM     10  C   UNL     1      45.917   9.642  12.077  0.00  0.00    +0.000 C 
BRANCH  10  11
ATOM     11  C   UNL     1      44.494  10.074  11.778  0.00  0.00    +0.000 C 
ATOM     12  C   UNL     1      44.107   9.924  10.301  0.00  0.00    +0.000 C 
ATOM     13  O   UNL     1      43.743  11.317  10.201  0.00  0.00    +0.000 OA
ATOM     14  C   UNL     1      44.228  11.568  11.541  0.00  0.00    +0.000 C 
ENDBRANCH  10  11
ENDBRANCH   8  10
ENDBRANCH   2   4
ENDBRANCH   1   2
BRANCH   1  15
ATOM     15  C   UNL     1      43.653   4.688  10.008  0.00  0.00    +0.000 C 
BRANCH  15  19
ATOM     16  C   UNL     1      46.580   2.559   7.760  0.00  0.00    +0.000 A 
ATOM     17  C   UNL     1      45.722   1.843   8.596  0.00  0.00    +0.000 A 
ATOM     18  C   UNL     1      44.764   2.528   9.341  0.00  0.00    +0.000 A 
ATOM     19  C   UNL     1      44.684   3.913   9.227  0.00  0.00    +0.000 A 
ATOM     20  N   UNL     1      45.530   4.627   8.443  0.00  0.00    +0.000 NA
ATOM     21  C   UNL     1      46.460   3.940   7.732  0.00  0.00    +0.000 A 
BRANCH  16  23
ATOM     22  N   UNL     1      48.391   2.733   6.152  0.00  0.00    +0.000 N 
ATOM     23  C   UNL     1      47.609   1.914   6.920  0.00  0.00    +0.000 C 
ATOM     24  O   UNL     1      47.786   0.704   6.937  0.00  0.00    +0.000 OA
ATOM     25  H   UNL     1      49.162   2.291   5.668  0.00  0.00    +0.000 HD
ATOM     26  H   UNL     1      48.446   3.731   6.302  0.00  0.00    +0.000 HD
ENDBRANCH  16  23
ENDBRANCH  15  19
ENDBRANCH   1  15
TORSDOF 7
ENDMDL
MODEL 6
REMARK VINA RESULT:    -6.796      3.684      7.253
REMARK INTER + INTRA:         -10.520
REMARK INTER:                  -9.613
REMARK INTRA:                  -0.907
REMARK UNBOUND:                -0.943
REMARK  Name = 
REMARK  7 active torsions:
REMARK  status: ('A' for Active; 'I' for Inactive)
REMARK    1  A    between atoms: C_2  and  C_4
REMARK    2  A    between atoms: C_7  and  C_8
REMARK    3  A    between atoms: C_8  and  C_9
REMARK    4  A    between atoms: C_9  and  N_10
REMARK    5  A    between atoms: N_10  and  C_11
REMARK    6  A    between atoms: C_15  and  C_16
REMARK    7  A    between atoms: C_16  and  C_17
REMARK                            x       y       z     vdW  Elec       q    Type
REMARK                         _______ _______ _______ _____ _____    ______ ____
ROOT
ATOM      1  C   UNL     1      45.013   6.643  12.349  0.00  0.00    +0.000 C 
ENDROOT
BRANCH   1   2
ATOM      2  N   UNL     1      44.928   6.487  10.889  0.00  0.00    +0.000 N 
ATOM      3  H   UNL     1      44.212   7.095  10.499  0.00  0.00    +0.000 HD
BRANCH   2   4
ATOM      4  C   UNL     1      44.762   5.174  10.403  0.00  0.00    +0.000 A 
ATOM      5  C   UNL     1      44.142   4.158  11.138  0.00  0.00    +0.000 A 
ATOM      6  C   UNL     1      44.030   2.861  10.631  0.00  0.00    +0.000 A 
ATOM      7  C   UNL     1      44.533   2.556   9.370  0.00  0.00    +0.000 A 
ATOM      8  C   UNL     1      45.180   3.541   8.617  0.00  0.00    +0.000 A 
ATOM      9  C   UNL     1      45.327   4.829   9.164  0.00  0.00    +0.000 A 
BRANCH   8  10
ATOM     10  C   UNL     1      45.663   3.248   7.219  0.00  0.00    +0.000 C 
BRANCH  10  11
ATOM     11  C   UNL     1      47.119   2.818   7.212  0.00  0.00    +0.000 C 
ATOM     12  C   UNL     1      47.713   2.697   5.803  0.00  0.00    +0.000 C 
ATOM     13  O   UNL     1      48.099   1.324   6.027  0.00  0.00    +0.000 OA
ATOM     14  C   UNL     1      47.428   1.317   7.309  0.00  0.00    +0.000 C 
ENDBRANCH  10  11
ENDBRANCH   8  10
ENDBRANCH   2   4
ENDBRANCH   1   2
BRANCH   1  15
ATOM     15  C   UNL     1      45.554   8.019  12.744  0.00  0.00    +0.000 C 
BRANCH  15  19
ATOM     16  C   UNL     1      49.651   8.348  11.622  0.00  0.00    +0.000 A 
ATOM     17  C   UNL     1      48.882   9.509  11.706  0.00  0.00    +0.000 A 
ATOM     18  C   UNL     1      47.539   9.415  12.066  0.00  0.00    +0.000 A 
ATOM     19  C   UNL     1      47.000   8.162  12.340  0.00  0.00    +0.000 A 
ATOM     20  N   UNL     1      47.726   7.020  12.233  0.00  0.00    +0.000 NA
ATOM     21  C   UNL     1      49.029   7.135  11.872  0.00  0.00    +0.000 A 
BRANCH  16  23
ATOM     22  N   UNL     1      51.623   7.183  10.815  0.00  0.00    +0.000 N 
ATOM     23  C   UNL     1      51.085   8.357  11.268  0.00  0.00    +0.000 C 
ATOM     24  O   UNL     1      51.757   9.376  11.337  0.00  0.00    +0.000 OA
ATOM     25  H   UNL     1      52.574   7.230  10.473  0.00  0.00    +0.000 HD
ATOM     26  H   UNL     1      51.055   6.407  10.507  0.00  0.00    +0.000 HD
ENDBRANCH  16  23
ENDBRANCH  15  19
ENDBRANCH   1  15
TORSDOF 7
ENDMDL
MODEL 7
REMARK VINA RESULT:    -6.652      2.213      7.578
REMARK INTER + INTRA:         -10.318
REMARK INTER:                  -9.581
REMARK INTRA:                  -0.736
REMARK UNBOUND:                -0.943
REMARK  Name = 
REMARK  7 active torsions:
REMARK  status: ('A' for Active; 'I' for Inactive)
REMARK    1  A    between atoms: C_2  and  C_4
REMARK    2  A    between atoms: C_7  and  C_8
REMARK    3  A    between atoms: C_8  and  C_9
REMARK    4  A    between atoms: C_9  and  N_10
REMARK    5  A    between atoms: N_10  and  C_11
REMARK    6  A    between atoms: C_15  and  C_16
REMARK    7  A    between atoms: C_16  and  C_17
REMARK                            x       y       z     vdW  Elec       q    Type
REMARK                         _______ _______ _______ _____ _____    ______ ____
ROOT
ATOM      1  C   UNL     1      44.306   6.753  11.785  0.00  0.00    +0.000 C 
ENDROOT
BRANCH   1   2
ATOM      2  N   UNL     1      43.504   6.143  10.713  0.00  0.00    +0.000 N 
ATOM      3  H   UNL     1      42.509   6.227  10.910  0.00  0.00    +0.000 HD
BRANCH   2   4
ATOM      4  C   UNL     1      43.817   4.811  10.372  0.00  0.00    +0.000 A 
ATOM      5  C   UNL     1      43.493   3.716  11.180  0.00  0.00    +0.000 A 
ATOM      6  C   UNL     1      43.854   2.416  10.819  0.00  0.00    +0.000 A 
ATOM      7  C   UNL     1      44.543   2.185   9.632  0.00  0.00    +0.000 A 
ATOM      8  C   UNL     1      44.903   3.258   8.811  0.00  0.00    +0.000 A 
ATOM      9  C   UNL     1      44.575   4.564   9.216  0.00  0.00    +0.000 A 
BRANCH   8  10
ATOM     10  C   UNL     1      45.583   3.018   7.486  0.00  0.00    +0.000 C 
BRANCH  10  11
ATOM     11  C   UNL     1      46.925   2.332   7.665  0.00  0.00    +0.000 C 
ATOM     12  C   UNL     1      47.947   2.698   6.581  0.00  0.00    +0.000 C 
ATOM     13  O   UNL     1      48.144   1.313   6.226  0.00  0.00    +0.000 OA
ATOM     14  C   UNL     1      47.084   0.904   7.121  0.00  0.00    +0.000 C 
ENDBRANCH  10  11
ENDBRANCH   8  10
ENDBRANCH   2   4
ENDBRANCH   1   2
BRANCH   1  15
ATOM     15  C   UNL     1      45.807   6.650  11.501  0.00  0.00    +0.000 C 
BRANCH  15  19
ATOM     16  C   UNL     1      48.013   5.917  15.072  0.00  0.00    +0.000 A 
ATOM     17  C   UNL     1      47.140   4.934  14.608  0.00  0.00    +0.000 A 
ATOM     18  C   UNL     1      46.408   5.163  13.444  0.00  0.00    +0.000 A 
ATOM     19  C   UNL     1      46.572   6.369  12.770  0.00  0.00    +0.000 A 
ATOM     20  N   UNL     1      47.394   7.348  13.224  0.00  0.00    +0.000 NA
ATOM     21  C   UNL     1      48.091   7.107  14.363  0.00  0.00    +0.000 A 
BRANCH  16  23
ATOM     22  N   UNL     1      49.132   6.879  17.000  0.00  0.00    +0.000 N 
ATOM     23  C   UNL     1      48.843   5.751  16.282  0.00  0.00    +0.000 C 
ATOM     24  O   UNL     1      49.222   4.649  16.654  0.00  0.00    +0.000 OA
ATOM     25  H   UNL     1      49.605   6.738  17.884  0.00  0.00    +0.000 HD
ATOM     26  H   UNL     1      48.635   7.749  16.872  0.00  0.00    +0.000 HD
ENDBRANCH  16  23
ENDBRANCH  15  19
ENDBRANCH   1  15
TORSDOF 7
ENDMDL
MODEL 8
REMARK VINA RESULT:    -6.101      1.830      2.333
REMARK INTER + INTRA:          -9.541
REMARK INTER:                  -8.670
REMARK INTRA:                  -0.871
REMARK UNBOUND:                -0.943
REMARK  Name = 
REMARK  7 active torsions:
REMARK  status: ('A' for Active; 'I' for Inactive)
REMARK    1  A    between atoms: C_2  and  C_4
REMARK    2  A    between atoms: C_7  and  C_8
REMARK    3  A    between atoms: C_8  and  C_9
REMARK    4  A    between atoms: C_9  and  N_10
REMARK    5  A    between atoms: N_10  and  C_11
REMARK    6  A    between atoms: C_15  and  C_16
REMARK    7  A    between atoms: C_16  and  C_17
REMARK                            x       y       z     vdW  Elec       q    Type
REMARK                         _______ _______ _______ _____ _____    ______ ____
ROOT
ATOM      1  C   UNL     1      43.614   5.187  12.860  0.00  0.00    +0.000 C 
ENDROOT
BRANCH   1   2
ATOM      2  N   UNL     1      45.074   5.031  12.780  0.00  0.00    +0.000 N 
ATOM      3  H   UNL     1      45.392   4.267  13.371  0.00  0.00    +0.000 HD
BRANCH   2   4
ATOM      4  C   UNL     1      45.846   6.185  13.027  0.00  0.00    +0.000 A 
ATOM      5  C   UNL     1      45.451   7.469  12.636  0.00  0.00    +0.000 A 
ATOM      6  C   UNL     1      46.263   8.581  12.871  0.00  0.00    +0.000 A 
ATOM      7  C   UNL     1      47.489   8.429  13.512  0.00  0.00    +0.000 A 
ATOM      8  C   UNL     1      47.926   7.157  13.895  0.00  0.00    +0.000 A 
ATOM      9  C   UNL     1      47.117   6.044  13.606  0.00  0.00    +0.000 A 
BRANCH   8  10
ATOM     10  C   UNL     1      49.217   6.985  14.657  0.00  0.00    +0.000 C 
BRANCH  10  11
ATOM     11  C   UNL     1      48.964   6.760  16.137  0.00  0.00    +0.000 C 
ATOM     12  C   UNL     1      50.246   6.728  16.978  0.00  0.00    +0.000 C 
ATOM     13  O   UNL     1      49.931   5.421  17.503  0.00  0.00    +0.000 OA
ATOM     14  C   UNL     1      48.785   5.315  16.627  0.00  0.00    +0.000 C 
ENDBRANCH  10  11
ENDBRANCH   8  10
ENDBRANCH   2   4
ENDBRANCH   1   2
BRANCH   1  15
ATOM     15  C   UNL     1      42.892   4.341  11.807  0.00  0.00    +0.000 C 
BRANCH  15  19
ATOM     16  C   UNL     1      45.533   3.379   8.604  0.00  0.00    +0.000 A 
ATOM     17  C   UNL     1      44.996   2.341   9.368  0.00  0.00    +0.000 A 
ATOM     18  C   UNL     1      44.135   2.643  10.422  0.00  0.00    +0.000 A 
ATOM     19  C   UNL     1      43.828   3.975  10.683  0.00  0.00    +0.000 A 
ATOM     20  N   UNL     1      44.366   4.996   9.970  0.00  0.00    +0.000 NA
ATOM     21  C   UNL     1      45.207   4.680   8.954  0.00  0.00    +0.000 A 
BRANCH  16  23
ATOM     22  N   UNL     1      47.054   1.933   7.384  0.00  0.00    +0.000 N 
ATOM     23  C   UNL     1      46.435   3.150   7.458  0.00  0.00    +0.000 C 
ATOM     24  O   UNL     1      46.593   3.995   6.587  0.00  0.00    +0.000 OA
ATOM     25  H   UNL     1      47.580   1.749   6.539  0.00  0.00    +0.000 HD
ATOM     26  H   UNL     1      46.756   1.136   7.930  0.00  0.00    +0.000 HD
ENDBRANCH  16  23
ENDBRANCH  15  19
ENDBRANCH   1  15
TORSDOF 7
ENDMDL
MODEL 9
REMARK VINA RESULT:    -6.042      3.561      5.271
REMARK INTER + INTRA:          -9.457
REMARK INTER:                  -8.840
REMARK INTRA:                  -0.617
REMARK UNBOUND:                -0.943
REMARK  Name = 
REMARK  7 active torsions:
REMARK  status: ('A' for Active; 'I' for Inactive)
REMARK    1  A    between atoms: C_2  and  C_4
REMARK    2  A    between atoms: C_7  and  C_8
REMARK    3  A    between atoms: C_8  and  C_9
REMARK    4  A    between atoms: C_9  and  N_10
REMARK    5  A    between atoms: N_10  and  C_11
REMARK    6  A    between atoms: C_15  and  C_16
REMARK    7  A    between atoms: C_16  and  C_17
REMARK                            x       y       z     vdW  Elec       q    Type
REMARK                         _______ _______ _______ _____ _____    ______ ____
ROOT
ATOM      1  C   UNL     1      48.516   8.000  13.799  0.00  0.00    +0.000 C 
ENDROOT
BRANCH   1   2
ATOM      2  N   UNL     1      48.108   7.517  15.127  0.00  0.00    +0.000 N 
ATOM      3  H   UNL     1      47.707   8.269  15.682  0.00  0.00    +0.000 HD
BRANCH   2   4
ATOM      4  C   UNL     1      49.086   6.833  15.877  0.00  0.00    +0.000 A 
ATOM      5  C   UNL     1      50.457   7.093  15.768  0.00  0.00    +0.000 A 
ATOM      6  C   UNL     1      51.395   6.367  16.505  0.00  0.00    +0.000 A 
ATOM      7  C   UNL     1      50.977   5.367  17.378  0.00  0.00    +0.000 A 
ATOM      8  C   UNL     1      49.617   5.064  17.496  0.00  0.00    +0.000 A 
ATOM      9  C   UNL     1      48.691   5.772  16.708  0.00  0.00    +0.000 A 
BRANCH   8  10
ATOM     10  C   UNL     1      49.141   4.036  18.491  0.00  0.00    +0.000 C 
BRANCH  10  11
ATOM     11  C   UNL     1      48.815   2.716  17.816  0.00  0.00    +0.000 C 
ATOM     12  C   UNL     1      50.014   2.088  17.093  0.00  0.00    +0.000 C 
ATOM     13  O   UNL     1      49.297   2.033  15.842  0.00  0.00    +0.000 OA
ATOM     14  C   UNL     1      48.185   2.758  16.416  0.00  0.00    +0.000 C 
ENDBRANCH  10  11
ENDBRANCH   8  10
ENDBRANCH   2   4
ENDBRANCH   1   2
BRANCH   1  15
ATOM     15  C   UNL     1      48.721   6.848  12.812  0.00  0.00    +0.000 C 
BRANCH  15  19
ATOM     16  C   UNL     1      45.107   4.661  12.253  0.00  0.00    +0.000 A 
ATOM     17  C   UNL     1      45.395   5.717  11.387  0.00  0.00    +0.000 A 
ATOM     18  C   UNL     1      46.571   6.444  11.563  0.00  0.00    +0.000 A 
ATOM     19  C   UNL     1      47.434   6.093  12.597  0.00  0.00    +0.000 A 
ATOM     20  N   UNL     1      47.154   5.090  13.466  0.00  0.00    +0.000 NA
ATOM     21  C   UNL     1      46.000   4.400  13.281  0.00  0.00    +0.000 A 
BRANCH  16  23
ATOM     22  N   UNL     1      43.987   2.528  12.553  0.00  0.00    +0.000 N 
ATOM     23  C   UNL     1      43.897   3.825  12.128  0.00  0.00    +0.000 C 
ATOM     24  O   UNL     1      42.844   4.279  11.701  0.00  0.00    +0.000 OA
ATOM     25  H   UNL     1      43.124   2.000  12.565  0.00  0.00    +0.000 HD
ATOM     26  H   UNL     1      44.744   2.197  13.136  0.00  0.00    +0.000 HD
ENDBRANCH  16  23
ENDBRANCH  15  19
ENDBRANCH   1  15
TORSDOF 7
ENDMDL
