MODEL 1
REMARK VINA RESULT:    -8.671      0.000      0.000
REMARK INTER + INTRA:         -11.951
REMARK INTER:                 -11.206
REMARK INTRA:                  -0.745
REMARK UNBOUND:                -0.745
REMARK  Name = 
REMARK  5 active torsions:
REMARK  status: ('A' for Active; 'I' for Inactive)
REMARK    1  A    between atoms: C_2  and  C_4
REMARK    2  A    between atoms: C_7  and  C_8
REMARK    3  A    between atoms: C_8  and  N_9
REMARK    4  A    between atoms: N_9  and  C_10
REMARK    5  A    between atoms: C_14  and  C_15
REMARK                            x       y       z     vdW  Elec       q    Type
REMARK                         _______ _______ _______ _____ _____    ______ ____
ROOT
ATOM      1  N   UNL     1      44.205   5.644  10.869  0.00  0.00    +0.000 N 
ATOM      2  H   UNL     1      43.506   6.318  11.175  0.00  0.00    +0.000 HD
ENDROOT
BRANCH   1   3
ATOM      3  C   UNL     1      45.238   5.497  11.805  0.00  0.00    +0.000 A 
ATOM      4  C   UNL     1      45.044   4.710  12.944  0.00  0.00    +0.000 A 
ATOM      5  N   UNL     1      45.938   4.551  13.947  0.00  0.00    +0.000 NA
ATOM      6  C   UNL     1      47.080   5.269  13.848  0.00  0.00    +0.000 A 
ATOM      7  C   UNL     1      47.385   6.147  12.807  0.00  0.00    +0.000 A 
ATOM      8  C   UNL     1      46.431   6.231  11.773  0.00  0.00    +0.000 A 
BRANCH   7   9
ATOM      9  C   UNL     1      48.598   6.995  12.830  0.00  0.00    +0.000 A 
ATOM     10  C   UNL     1      49.326   7.218  14.011  0.00  0.00    +0.000 A 
ATOM     11  C   UNL     1      50.513   7.962  14.008  0.00  0.00    +0.000 A 
ATOM     12  C   UNL     1      50.992   8.510  12.822  0.00  0.00    +0.000 A 
ATOM     13  C   UNL     1      50.279   8.326  11.641  0.00  0.00    +0.000 A 
ATOM     14  C   UNL     1      49.097   7.577  11.648  0.00  0.00    +0.000 A 
ENDBRANCH   7   9
ENDBRANCH   1   3
BRANCH   1  15
ATOM     15  C   UNL     1      43.573   4.452  10.314  0.00  0.00    +0.000 C 
BRANCH  15  19
ATOM     16  C   UNL     1      46.415   2.439   7.737  0.00  0.00    +0.000 A 
ATOM     17  C   UNL     1      46.259   3.827   7.663  0.00  0.00    +0.000 A 
ATOM     18  C   UNL     1      45.335   4.470   8.493  0.00  0.00    +0.000 A 
ATOM     19  C   UNL     1      44.553   3.741   9.404  0.00  0.00    +0.000 A 
ATOM     20  C   UNL     1      44.703   2.347   9.456  0.00  0.00    +0.000 A 
ATOM     21  C   UNL     1      45.625   1.701   8.625  0.00  0.00    +0.000 A 
BRANCH  16  23
ATOM     22  N   UNL     1      48.448   2.417   6.387  0.00  0.00    +0.000 N 
ATOM     23  C   UNL     1      47.390   1.707   6.884  0.00  0.00    +0.000 C 
ATOM     24  O   UNL     1      47.282   0.507   6.667  0.00  0.00    +0.000 OA
ATOM     25  H   UNL     1      49.159   1.881   5.907  0.00  0.00    +0.000 HD
ATOM     26  H   UNL     1      48.708   3.323   6.748  0.00  0.00    +0.000 HD
ENDBRANCH  16  23
ENDBRANCH  15  19
ENDBRANCH   1  15
TORSDOF 5
ENDMDL
MODEL 2
REMARK VINA RESULT:    -8.610      1.418      1.722
REMARK INTER + INTRA:         -11.872
REMARK INTER:                 -11.063
REMARK INTRA:                  -0.809
REMARK UNBOUND:                -0.745
REMARK  Name = 
REMARK  5 active torsions:
REMARK  status: ('A' for Active; 'I' for Inactive)
REMARK    1  A    between atoms: C_2  and  C_4
REMARK    2  A    between atoms: C_7  and  C_8
REMARK    3  A    between atoms: C_8  and  N_9
REMARK    4  A    between atoms: N_9  and  C_10
REMARK    5  A    between atoms: C_14  and  C_15
REMARK                            x       y       z     vdW  Elec       q    Type
REMARK                         _______ _______ _______ _____ _____    ______ ____
ROOT
ATOM      1  N   UNL     1      44.184   4.385  11.769  0.00  0.00    +0.000 N 
ATOM      2  H   UNL     1      44.090   3.400  12.007  0.00  0.00    +0.000 HD
ENDROOT
BRANCH   1   3
ATOM      3  C   UNL     1      45.393   4.923  12.232  0.00  0.00    +0.000 A 
ATOM      4  C   UNL     1      46.108   4.273  13.242  0.00  0.00    +0.000 A 
ATOM      5  N   UNL     1      47.245   4.732  13.815  0.00  0.00    +0.000 NA
ATOM      6  C   UNL     1      47.673   5.947  13.404  0.00  0.00    +0.000 A 
ATOM      7  C   UNL     1      47.029   6.743  12.455  0.00  0.00    +0.000 A 
ATOM      8  C   UNL     1      45.876   6.186  11.865  0.00  0.00    +0.000 A 
BRANCH   7   9
ATOM      9  C   UNL     1      47.486   8.116  12.147  0.00  0.00    +0.000 A 
ATOM     10  C   UNL     1      48.811   8.390  11.765  0.00  0.00    +0.000 A 
ATOM     11  C   UNL     1      49.215   9.682  11.405  0.00  0.00    +0.000 A 
ATOM     12  C   UNL     1      48.303  10.733  11.432  0.00  0.00    +0.000 A 
ATOM     13  C   UNL     1      46.991  10.496  11.830  0.00  0.00    +0.000 A 
ATOM     14  C   UNL     1      46.591   9.203  12.183  0.00  0.00    +0.000 A 
ENDBRANCH   7   9
ENDBRANCH   1   3
BRANCH   1  15
ATOM     15  C   UNL     1      43.777   4.631  10.390  0.00  0.00    +0.000 C 
BRANCH  15  19
ATOM     16  C   UNL     1      46.449   2.495   7.731  0.00  0.00    +0.000 A 
ATOM     17  C   UNL     1      46.353   3.888   7.661  0.00  0.00    +0.000 A 
ATOM     18  C   UNL     1      45.483   4.571   8.517  0.00  0.00    +0.000 A 
ATOM     19  C   UNL     1      44.698   3.877   9.452  0.00  0.00    +0.000 A 
ATOM     20  C   UNL     1      44.786   2.477   9.500  0.00  0.00    +0.000 A 
ATOM     21  C   UNL     1      45.653   1.791   8.642  0.00  0.00    +0.000 A 
BRANCH  16  23
ATOM     22  N   UNL     1      48.492   2.353   6.404  0.00  0.00    +0.000 N 
ATOM     23  C   UNL     1      47.365   1.720   6.850  0.00  0.00    +0.000 C 
ATOM     24  O   UNL     1      47.148   0.549   6.566  0.00  0.00    +0.000 OA
ATOM     25  H   UNL     1      49.158   1.778   5.903  0.00  0.00    +0.000 HD
ATOM     26  H   UNL     1      48.830   3.210   6.817  0.00  0.00    +0.000 HD
ENDBRANCH  16  23
ENDBRANCH  15  19
ENDBRANCH   1  15
TORSDOF 5
ENDMDL
MODEL 3
REMARK VINA RESULT:    -8.101      1.836      3.160
REMARK INTER + INTRA:         -11.215
REMARK INTER:                 -10.679
REMARK INTRA:                  -0.535
REMARK UNBOUND:                -0.745
REMARK  Name = 
REMARK  5 active torsions:
REMARK  status: ('A' for Active; 'I' for Inactive)
REMARK    1  A    between atoms: C_2  and  C_4
REMARK    2  A    between atoms: C_7  and  C_8
REMARK    3  A    between atoms: C_8  and  N_9
REMARK    4  A    between atoms: N_9  and  C_10
REMARK    5  A    between atoms: C_14  and  C_15
REMARK                            x       y       z     vdW  Elec       q    Type
REMARK                         _______ _______ _______ _____ _____    ______ ____
ROOT
ATOM      1  N   UNL     1      44.005   4.382  11.683  0.00  0.00    +0.000 N 
ATOM      2  H   UNL     1      44.068   3.380  11.851  0.00  0.00    +0.000 HD
ENDROOT
BRANCH   1   3
ATOM      3  C   UNL     1      45.035   5.087  12.322  0.00  0.00    +0.000 A 
ATOM      4  C   UNL     1      45.621   6.190  11.695  0.00  0.00    +0.000 A 
ATOM      5  N   UNL     1      46.665   6.901  12.180  0.00  0.00    +0.000 NA
ATOM      6  C   UNL     1      47.207   6.455  13.335  0.00  0.00    +0.000 A 
ATOM      7  C   UNL     1      46.775   5.331  14.040  0.00  0.00    +0.000 A 
ATOM      8  C   UNL     1      45.655   4.661  13.504  0.00  0.00    +0.000 A 
BRANCH   7   9
ATOM      9  C   UNL     1      47.497   4.828  15.230  0.00  0.00    +0.000 A 
ATOM     10  C   UNL     1      47.392   3.491  15.652  0.00  0.00    +0.000 A 
ATOM     11  C   UNL     1      48.136   3.008  16.736  0.00  0.00    +0.000 A 
ATOM     12  C   UNL     1      48.992   3.856  17.431  0.00  0.00    +0.000 A 
ATOM     13  C   UNL     1      49.097   5.191  17.051  0.00  0.00    +0.000 A 
ATOM     14  C   UNL     1      48.357   5.667  15.964  0.00  0.00    +0.000 A 
ENDBRANCH   7   9
ENDBRANCH   1   3
BRANCH   1  15
ATOM     15  C   UNL     1      43.717   4.659  10.281  0.00  0.00    +0.000 C 
BRANCH  15  19
ATOM     16  C   UNL     1      46.422   2.405   7.755  0.00  0.00    +0.000 A 
ATOM     17  C   UNL     1      45.620   1.746   8.691  0.00  0.00    +0.000 A 
ATOM     18  C   UNL     1      44.754   2.479   9.509  0.00  0.00    +0.000 A 
ATOM     19  C   UNL     1      44.676   3.878   9.406  0.00  0.00    +0.000 A 
ATOM     20  C   UNL     1      45.499   4.533   8.477  0.00  0.00    +0.000 A 
ATOM     21  C   UNL     1      46.369   3.801   7.661  0.00  0.00    +0.000 A 
BRANCH  16  23
ATOM     22  N   UNL     1      48.475   2.335   6.437  0.00  0.00    +0.000 N 
ATOM     23  C   UNL     1      47.353   1.673   6.855  0.00  0.00    +0.000 C 
ATOM     24  O   UNL     1      47.153   0.510   6.529  0.00  0.00    +0.000 OA
ATOM     25  H   UNL     1      49.150   1.787   5.922  0.00  0.00    +0.000 HD
ATOM     26  H   UNL     1      48.798   3.182   6.882  0.00  0.00    +0.000 HD
ENDBRANCH  16  23
ENDBRANCH  15  19
ENDBRANCH   1  15
TORSDOF 5
ENDMDL
MODEL 4
REMARK VINA RESULT:    -8.055      2.775      6.648
REMARK INTER + INTRA:         -11.154
REMARK INTER:                 -10.301
REMARK INTRA:                  -0.853
REMARK UNBOUND:                -0.745
REMARK  Name = 
REMARK  5 active torsions:
REMARK  status: ('A' for Active; 'I' for Inactive)
REMARK    1  A    between atoms: C_2  and  C_4
REMARK    2  A    between atoms: C_7  and  C_8
REMARK    3  A    between atoms: C_8  and  N_9
REMARK    4  A    between atoms: N_9  and  C_10
REMARK    5  A    between atoms: C_14  and  C_15
REMARK                            x       y       z     vdW  Elec       q    Type
REMARK                         _______ _______ _______ _____ _____    ______ ____
ROOT
ATOM      1  N   UNL     1      43.996   6.299  11.594  0.00  0.00    +0.000 N 
ATOM      2  H   UNL     1      44.316   6.987  10.916  0.00  0.00    +0.000 HD
ENDROOT
BRANCH   1   3
ATOM      3  C   UNL     1      43.963   5.006  11.054  0.00  0.00    +0.000 A 
ATOM      4  C   UNL     1      43.289   3.983  11.727  0.00  0.00    +0.000 A 
ATOM      5  N   UNL     1      43.249   2.686  11.341  0.00  0.00    +0.000 NA
ATOM      6  C   UNL     1      43.975   2.367  10.246  0.00  0.00    +0.000 A 
ATOM      7  C   UNL     1      44.750   3.264   9.510  0.00  0.00    +0.000 A 
ATOM      8  C   UNL     1      44.712   4.606   9.940  0.00  0.00    +0.000 A 
BRANCH   7   9
ATOM      9  C   UNL     1      45.619   2.818   8.398  0.00  0.00    +0.000 A 
ATOM     10  C   UNL     1      46.027   3.694   7.378  0.00  0.00    +0.000 A 
ATOM     11  C   UNL     1      46.908   3.281   6.370  0.00  0.00    +0.000 A 
ATOM     12  C   UNL     1      47.391   1.976   6.354  0.00  0.00    +0.000 A 
ATOM     13  C   UNL     1      46.984   1.080   7.338  0.00  0.00    +0.000 A 
ATOM     14  C   UNL     1      46.109   1.498   8.345  0.00  0.00    +0.000 A 
ENDBRANCH   7   9
ENDBRANCH   1   3
BRANCH   1  15
ATOM     15  C   UNL     1      44.627   6.512  12.892  0.00  0.00    +0.000 C 
BRANCH  15  19
ATOM     16  C   UNL     1      48.808   7.509  12.349  0.00  0.00    +0.000 A 
ATOM     17  C   UNL     1      47.813   8.365  11.869  0.00  0.00    +0.000 A 
ATOM     18  C   UNL     1      46.464   8.034  12.040  0.00  0.00    +0.000 A 
ATOM     19  C   UNL     1      46.091   6.847  12.691  0.00  0.00    +0.000 A 
ATOM     20  C   UNL     1      47.097   5.984  13.152  0.00  0.00    +0.000 A 
ATOM     21  C   UNL     1      48.446   6.312  12.978  0.00  0.00    +0.000 A 
BRANCH  16  23
ATOM     22  N   UNL     1      51.015   7.833  13.340  0.00  0.00    +0.000 N 
ATOM     23  C   UNL     1      50.256   7.818  12.201  0.00  0.00    +0.000 C 
ATOM     24  O   UNL     1      50.765   8.010  11.105  0.00  0.00    +0.000 OA
ATOM     25  H   UNL     1      52.013   7.930  13.209  0.00  0.00    +0.000 HD
ATOM     26  H   UNL     1      50.692   7.433  14.208  0.00  0.00    +0.000 HD
ENDBRANCH  16  23
ENDBRANCH  15  19
ENDBRANCH   1  15
TORSDOF 5
ENDMDL
MODEL 5
REMARK VINA RESULT:    -7.949      1.095      2.040
REMARK INTER + INTRA:         -11.018
REMARK INTER:                 -10.279
REMARK INTRA:                  -0.738
REMARK UNBOUND:                -0.745
REMARK  Name = 
REMARK  5 active torsions:
REMARK  status: ('A' for Active; 'I' for Inactive)
REMARK    1  A    between atoms: C_2  and  C_4
REMARK    2  A    between atoms: C_7  and  C_8
REMARK    3  A    between atoms: C_8  and  N_9
REMARK    4  A    between atoms: N_9  and  C_10
REMARK    5  A    between atoms: C_14  and  C_15
REMARK                            x       y       z     vdW  Elec       q    Type
REMARK                         _______ _______ _______ _____ _____    ______ ____
ROOT
ATOM      1  N   UNL     1      44.445   4.020  11.626  0.00  0.00    +0.000 N 
ATOM      2  H   UNL     1      45.161   3.328  11.836  0.00  0.00    +0.000 HD
ENDROOT
BRANCH   1   3
ATOM      3  C   UNL     1      44.903   5.329  11.830  0.00  0.00    +0.000 A 
ATOM      4  C   UNL     1      44.083   6.416  11.514  0.00  0.00    +0.000 A 
ATOM      5  N   UNL     1      44.441   7.718  11.601  0.00  0.00    +0.000 NA
ATOM      6  C   UNL     1      45.719   7.963  11.967  0.00  0.00    +0.000 A 
ATOM      7  C   UNL     1      46.672   6.983  12.248  0.00  0.00    +0.000 A 
ATOM      8  C   UNL     1      46.221   5.648  12.182  0.00  0.00    +0.000 A 
BRANCH   7   9
ATOM      9  C   UNL     1      48.086   7.323  12.520  0.00  0.00    +0.000 A 
ATOM     10  C   UNL     1      48.967   7.713  11.495  0.00  0.00    +0.000 A 
ATOM     11  C   UNL     1      50.282   8.103  11.772  0.00  0.00    +0.000 A 
ATOM     12  C   UNL     1      50.753   8.099  13.082  0.00  0.00    +0.000 A 
ATOM     13  C   UNL     1      49.911   7.695  14.114  0.00  0.00    +0.000 A 
ATOM     14  C   UNL     1      48.596   7.312  13.833  0.00  0.00    +0.000 A 
ENDBRANCH   7   9
ENDBRANCH   1   3
BRANCH   1  15
ATOM     15  C   UNL     1      43.754   3.694  10.383  0.00  0.00    +0.000 C 
BRANCH  15  19
ATOM     16  C   UNL     1      46.627   2.593   7.333  0.00  0.00    +0.000 A 
ATOM     17  C   UNL     1      46.123   1.625   8.206  0.00  0.00    +0.000 A 
ATOM     18  C   UNL     1      45.201   1.988   9.194  0.00  0.00    +0.000 A 
ATOM     19  C   UNL     1      44.771   3.319   9.325  0.00  0.00    +0.000 A 
ATOM     20  C   UNL     1      45.298   4.286   8.457  0.00  0.00    +0.000 A 
ATOM     21  C   UNL     1      46.223   3.926   7.470  0.00  0.00    +0.000 A 
BRANCH  16  23
ATOM     22  N   UNL     1      47.706   3.133   5.212  0.00  0.00    +0.000 N 
ATOM     23  C   UNL     1      47.602   2.260   6.259  0.00  0.00    +0.000 C 
ATOM     24  O   UNL     1      48.316   1.268   6.323  0.00  0.00    +0.000 OA
ATOM     25  H   UNL     1      48.451   2.951   4.552  0.00  0.00    +0.000 HD
ATOM     26  H   UNL     1      47.333   4.070   5.251  0.00  0.00    +0.000 HD
ENDBRANCH  16  23
ENDBRANCH  15  19
ENDBRANCH   1  15
TORSDOF 5
ENDMDL
MODEL 6
REMARK VINA RESULT:    -7.862      3.210      7.061
REMARK INTER + INTRA:         -10.906
REMARK INTER:                 -10.332
REMARK INTRA:                  -0.573
REMARK UNBOUND:                -0.745
REMARK  Name = 
REMARK  5 active torsions:
REMARK  status: ('A' for Active; 'I' for Inactive)
REMARK    1  A    between atoms: C_2  and  C_4
REMARK    2  A    between atoms: C_7  and  C_8
REMARK    3  A    between atoms: C_8  and  N_9
REMARK    4  A    between atoms: N_9  and  C_10
REMARK    5  A    between atoms: C_14  and  C_15
REMARK                            x       y       z     vdW  Elec       q    Type
REMARK                         _______ _______ _______ _____ _____    ______ ____
ROOT
ATOM      1  N   UNL     1      43.655   6.415  11.272  0.00  0.00    +0.000 N 
ATOM      2  H   UNL     1      42.743   6.820  11.070  0.00  0.00    +0.000 HD
ENDROOT
BRANCH   1   3
ATOM      3  C   UNL     1      43.739   5.078  10.856  0.00  0.00    +0.000 A 
ATOM      4  C   UNL     1      43.157   4.068  11.626  0.00  0.00    +0.000 A 
ATOM      5  N   UNL     1      43.233   2.742  11.364  0.00  0.00    +0.000 NA
ATOM      6  C   UNL     1      43.990   2.386  10.302  0.00  0.00    +0.000 A 
ATOM      7  C   UNL     1      44.686   3.275   9.481  0.00  0.00    +0.000 A 
ATOM      8  C   UNL     1      44.527   4.644   9.782  0.00  0.00    +0.000 A 
BRANCH   7   9
ATOM      9  C   UNL     1      45.596   2.805   8.413  0.00  0.00    +0.000 A 
ATOM     10  C   UNL     1      46.105   1.495   8.395  0.00  0.00    +0.000 A 
ATOM     11  C   UNL     1      46.906   1.037   7.341  0.00  0.00    +0.000 A 
ATOM     12  C   UNL     1      47.229   1.887   6.287  0.00  0.00    +0.000 A 
ATOM     13  C   UNL     1      46.759   3.198   6.291  0.00  0.00    +0.000 A 
ATOM     14  C   UNL     1      45.954   3.647   7.343  0.00  0.00    +0.000 A 
ENDBRANCH   7   9
ENDBRANCH   1   3
BRANCH   1  15
ATOM     15  C   UNL     1      44.726   7.339  10.917  0.00  0.00    +0.000 C 
BRANCH  15  19
ATOM     16  C   UNL     1      47.799   7.276  13.971  0.00  0.00    +0.000 A 
ATOM     17  C   UNL     1      47.652   6.193  13.100  0.00  0.00    +0.000 A 
ATOM     18  C   UNL     1      46.653   6.216  12.120  0.00  0.00    +0.000 A 
ATOM     19  C   UNL     1      45.788   7.316  11.998  0.00  0.00    +0.000 A 
ATOM     20  C   UNL     1      45.931   8.389  12.890  0.00  0.00    +0.000 A 
ATOM     21  C   UNL     1      46.927   8.367  13.873  0.00  0.00    +0.000 A 
BRANCH  16  23
ATOM     22  N   UNL     1      48.483   7.747  16.266  0.00  0.00    +0.000 N 
ATOM     23  C   UNL     1      48.850   7.307  15.024  0.00  0.00    +0.000 C 
ATOM     24  O   UNL     1      49.990   6.917  14.808  0.00  0.00    +0.000 OA
ATOM     25  H   UNL     1      49.178   7.654  16.996  0.00  0.00    +0.000 HD
ATOM     26  H   UNL     1      47.516   7.829  16.546  0.00  0.00    +0.000 HD
ENDBRANCH  16  23
ENDBRANCH  15  19
ENDBRANCH   1  15
TORSDOF 5
ENDMDL
MODEL 7
REMARK VINA RESULT:    -7.626      3.346      7.425
REMARK INTER + INTRA:         -10.601
REMARK INTER:                 -10.092
REMARK INTRA:                  -0.509
REMARK UNBOUND:                -0.745
REMARK  Name = 
REMARK  5 active torsions:
REMARK  status: ('A' for Active; 'I' for Inactive)
REMARK    1  A    between atoms: C_2  and  C_4
REMARK    2  A    between atoms: C_7  and  C_8
REMARK    3  A    between atoms: C_8  and  N_9
REMARK    4  A    between atoms: N_9  and  C_10
REMARK    5  A    between atoms: C_14  and  C_15
REMARK                            x       y       z     vdW  Elec       q    Type
REMARK                         _______ _______ _______ _____ _____    ______ ____
ROOT
ATOM      1  N   UNL     1      45.253   6.201  12.039  0.00  0.00    +0.000 N 
ATOM      2  H   UNL     1      44.777   7.063  11.782  0.00  0.00    +0.000 HD
ENDROOT
BRANCH   1   3
ATOM      3  C   UNL     1      44.797   5.107  11.291  0.00  0.00    +0.000 A 
ATOM      4  C   UNL     1      43.753   4.313  11.775  0.00  0.00    +0.000 A 
ATOM      5  N   UNL     1      43.278   3.196  11.178  0.00  0.00    +0.000 NA
ATOM      6  C   UNL     1      43.919   2.800  10.055  0.00  0.00    +0.000 A 
ATOM      7  C   UNL     1      45.017   3.449   9.490  0.00  0.00    +0.000 A 
ATOM      8  C   UNL     1      45.433   4.632  10.137  0.00  0.00    +0.000 A 
BRANCH   7   9
ATOM      9  C   UNL     1      45.747   2.887   8.332  0.00  0.00    +0.000 A 
ATOM     10  C   UNL     1      46.084   3.672   7.215  0.00  0.00    +0.000 A 
ATOM     11  C   UNL     1      46.838   3.150   6.157  0.00  0.00    +0.000 A 
ATOM     12  C   UNL     1      47.262   1.824   6.186  0.00  0.00    +0.000 A 
ATOM     13  C   UNL     1      46.922   1.017   7.268  0.00  0.00    +0.000 A 
ATOM     14  C   UNL     1      46.174   1.545   8.325  0.00  0.00    +0.000 A 
ENDBRANCH   7   9
ENDBRANCH   1   3
BRANCH   1  15
ATOM     15  C   UNL     1      46.688   6.418  12.180  0.00  0.00    +0.000 C 
BRANCH  15  19
ATOM     16  C   UNL     1      47.973   4.974  16.058  0.00  0.00    +0.000 A 
ATOM     17  C   UNL     1      48.460   6.187  15.562  0.00  0.00    +0.000 A 
ATOM     18  C   UNL     1      48.048   6.644  14.306  0.00  0.00    +0.000 A 
ATOM     19  C   UNL     1      47.146   5.899  13.528  0.00  0.00    +0.000 A 
ATOM     20  C   UNL     1      46.678   4.674  14.025  0.00  0.00    +0.000 A 
ATOM     21  C   UNL     1      47.092   4.213  15.280  0.00  0.00    +0.000 A 
BRANCH  16  23
ATOM     22  N   UNL     1      47.450   4.524  18.399  0.00  0.00    +0.000 N 
ATOM     23  C   UNL     1      48.372   4.446  17.390  0.00  0.00    +0.000 C 
ATOM     24  O   UNL     1      49.462   3.923  17.576  0.00  0.00    +0.000 OA
ATOM     25  H   UNL     1      47.695   4.059  19.263  0.00  0.00    +0.000 HD
ATOM     26  H   UNL     1      46.473   4.706  18.224  0.00  0.00    +0.000 HD
ENDBRANCH  16  23
ENDBRANCH  15  19
ENDBRANCH   1  15
TORSDOF 5
ENDMDL
MODEL 8
REMARK VINA RESULT:    -7.365      2.485      3.214
REMARK INTER + INTRA:         -10.263
REMARK INTER:                  -9.862
REMARK INTRA:                  -0.401
REMARK UNBOUND:                -0.745
REMARK  Name = 
REMARK  5 active torsions:
REMARK  status: ('A' for Active; 'I' for Inactive)
REMARK    1  A    between atoms: C_2  and  C_4
REMARK    2  A    between atoms: C_7  and  C_8
REMARK    3  A    between atoms: C_8  and  N_9
REMARK    4  A    between atoms: N_9  and  C_10
REMARK    5  A    between atoms: C_14  and  C_15
REMARK                            x       y       z     vdW  Elec       q    Type
REMARK                         _______ _______ _______ _____ _____    ______ ____
ROOT
ATOM      1  N   UNL     1      43.389   4.343  10.918  0.00  0.00    +0.000 N 
ATOM      2  H   UNL     1      42.453   4.403  11.312  0.00  0.00    +0.000 HD
ENDROOT
BRANCH   1   3
ATOM      3  C   UNL     1      44.287   5.204  11.566  0.00  0.00    +0.000 A 
ATOM      4  C   UNL     1      45.014   4.754  12.672  0.00  0.00    +0.000 A 
ATOM      5  N   UNL     1      45.852   5.511  13.417  0.00  0.00    +0.000 NA
ATOM      6  C   UNL     1      45.932   6.819  13.084  0.00  0.00    +0.000 A 
ATOM      7  C   UNL     1      45.218   7.426  12.050  0.00  0.00    +0.000 A 
ATOM      8  C   UNL     1      44.397   6.572  11.285  0.00  0.00    +0.000 A 
BRANCH   7   9
ATOM      9  C   UNL     1      45.260   8.887  11.824  0.00  0.00    +0.000 A 
ATOM     10  C   UNL     1      46.362   9.668  12.215  0.00  0.00    +0.000 A 
ATOM     11  C   UNL     1      46.424  11.038  11.931  0.00  0.00    +0.000 A 
ATOM     12  C   UNL     1      45.376  11.661  11.259  0.00  0.00    +0.000 A 
ATOM     13  C   UNL     1      44.262  10.918  10.881  0.00  0.00    +0.000 A 
ATOM     14  C   UNL     1      44.208   9.549  11.161  0.00  0.00    +0.000 A 
ENDBRANCH   7   9
ENDBRANCH   1   3
BRANCH   1  15
ATOM     15  C   UNL     1      43.773   2.954  10.693  0.00  0.00    +0.000 C 
BRANCH  15  19
ATOM     16  C   UNL     1      46.431   2.704   7.280  0.00  0.00    +0.000 A 
ATOM     17  C   UNL     1      46.215   1.583   8.087  0.00  0.00    +0.000 A 
ATOM     18  C   UNL     1      45.361   1.672   9.192  0.00  0.00    +0.000 A 
ATOM     19  C   UNL     1      44.714   2.877   9.508  0.00  0.00    +0.000 A 
ATOM     20  C   UNL     1      44.952   4.002   8.704  0.00  0.00    +0.000 A 
ATOM     21  C   UNL     1      45.809   3.917   7.600  0.00  0.00    +0.000 A 
BRANCH  16  23
ATOM     22  N   UNL     1      48.559   2.102   6.249  0.00  0.00    +0.000 N 
ATOM     23  C   UNL     1      47.321   2.662   6.089  0.00  0.00    +0.000 C 
ATOM     24  O   UNL     1      46.953   3.070   4.995  0.00  0.00    +0.000 OA
ATOM     25  H   UNL     1      49.105   1.978   5.406  0.00  0.00    +0.000 HD
ATOM     26  H   UNL     1      48.795   1.533   7.048  0.00  0.00    +0.000 HD
ENDBRANCH  16  23
ENDBRANCH  15  19
ENDBRANCH   1  15
TORSDOF 5
ENDMDL
MODEL 9
REMARK VINA RESULT:    -7.199      3.062      6.826
REMARK INTER + INTRA:         -10.049
REMARK INTER:                  -9.391
REMARK INTRA:                  -0.658
REMARK UNBOUND:                -0.745
REMARK  Name = 
REMARK  5 active torsions:
REMARK  status: ('A' for Active; 'I' for Inactive)
REMARK    1  A    between atoms: C_2  and  C_4
REMARK    2  A    between atoms: C_7  and  C_8
REMARK    3  A    between atoms: C_8  and  N_9
REMARK    4  A    between atoms: N_9  and  C_10
REMARK    5  A    between atoms: C_14  and  C_15
REMARK                            x       y       z     vdW  Elec       q    Type
REMARK                         _______ _______ _______ _____ _____    ______ ____
ROOT
ATOM      1  N   UNL     1      45.557   6.906  13.262  0.00  0.00    +0.000 N 
ATOM      2  H   UNL     1      45.180   6.952  14.207  0.00  0.00    +0.000 HD
ENDROOT
BRANCH   1   3
ATOM      3  C   UNL     1      44.837   6.017  12.452  0.00  0.00    +0.000 A 
ATOM      4  C   UNL     1      43.587   5.547  12.867  0.00  0.00    +0.000 A 
ATOM      5  N   UNL     1      42.836   4.636  12.207  0.00  0.00    +0.000 NA
ATOM      6  C   UNL     1      43.383   4.107  11.090  0.00  0.00    +0.000 A 
ATOM      7  C   UNL     1      44.646   4.426  10.589  0.00  0.00    +0.000 A 
ATOM      8  C   UNL     1      45.358   5.415  11.300  0.00  0.00    +0.000 A 
BRANCH   7   9
ATOM      9  C   UNL     1      45.232   3.713   9.432  0.00  0.00    +0.000 A 
ATOM     10  C   UNL     1      45.817   4.402   8.355  0.00  0.00    +0.000 A 
ATOM     11  C   UNL     1      46.434   3.718   7.300  0.00  0.00    +0.000 A 
ATOM     12  C   UNL     1      46.467   2.326   7.293  0.00  0.00    +0.000 A 
ATOM     13  C   UNL     1      45.874   1.618   8.334  0.00  0.00    +0.000 A 
ATOM     14  C   UNL     1      45.265   2.306   9.388  0.00  0.00    +0.000 A 
ENDBRANCH   7   9
ENDBRANCH   1   3
BRANCH   1  15
ATOM     15  C   UNL     1      45.863   8.240  12.756  0.00  0.00    +0.000 C 
BRANCH  15  19
ATOM     16  C   UNL     1      50.070   8.442  11.739  0.00  0.00    +0.000 A 
ATOM     17  C   UNL     1      49.529   7.265  12.267  0.00  0.00    +0.000 A 
ATOM     18  C   UNL     1      48.172   7.208  12.600  0.00  0.00    +0.000 A 
ATOM     19  C   UNL     1      47.337   8.322  12.414  0.00  0.00    +0.000 A 
ATOM     20  C   UNL     1      47.892   9.505  11.903  0.00  0.00    +0.000 A 
ATOM     21  C   UNL     1      49.251   9.565  11.572  0.00  0.00    +0.000 A 
BRANCH  16  23
ATOM     22  N   UNL     1      52.424   8.010  12.214  0.00  0.00    +0.000 N 
ATOM     23  C   UNL     1      51.504   8.553  11.359  0.00  0.00    +0.000 C 
ATOM     24  O   UNL     1      51.854   9.070  10.306  0.00  0.00    +0.000 OA
ATOM     25  H   UNL     1      53.381   7.994  11.886  0.00  0.00    +0.000 HD
ATOM     26  H   UNL     1      52.167   7.363  12.944  0.00  0.00    +0.000 HD
ENDBRANCH  16  23
ENDBRANCH  15  19
ENDBRANCH   1  15
TORSDOF 5
ENDMDL
