MODEL 1
REMARK VINA RESULT:    -7.970      0.000      0.000
REMARK INTER + INTRA:         -11.843
REMARK INTER:                 -10.766
REMARK INTRA:                  -1.077
REMARK UNBOUND:                -1.077
REMARK  Name = 
REMARK  7 active torsions:
REMARK  status: ('A' for Active; 'I' for Inactive)
REMARK    1  A    between atoms: C_1  and  N_2
REMARK    2  A    between atoms: N_2  and  C_3
REMARK    3  A    between atoms: C_3  and  C_4
REMARK    4  A    between atoms: C_7  and  O_8
REMARK    5  A    between atoms: O_8  and  C_9
REMARK    6  A    between atoms: C_9  and  C_10
REMARK    7  A    between atoms: C_18  and  C_20
REMARK                            x       y       z     vdW  Elec       q    Type
REMARK                         _______ _______ _______ _____ _____    ______ ____
ROOT
ATOM      1  C   UNL     1      46.119   8.528  12.361  0.00  0.00    +0.000 C 
ATOM      2  N   UNL     1      45.931   7.087  12.240  0.00  0.00    +0.000 N 
ATOM      3  C   UNL     1      44.709   6.681  11.664  0.00  0.00    +0.000 C 
ATOM      4  O   UNL     1      43.862   7.496  11.318  0.00  0.00    +0.000 OA
ENDROOT
BRANCH   3   5
ATOM      5  C   UNL     1      44.436   5.238  11.520  0.00  0.00    +0.000 A 
ATOM      6  C   UNL     1      43.695   4.487  12.426  0.00  0.00    +0.000 A 
ATOM      7  S   UNL     1      43.505   2.854  11.974  0.00  0.00    +0.000 S 
ATOM      8  C   UNL     1      44.277   3.136  10.479  0.00  0.00    +0.000 A 
ATOM      9  N   UNL     1      44.354   2.149   9.549  0.00  0.00    +0.000 NA
ATOM     10  C   UNL     1      44.909   2.518   8.442  0.00  0.00    +0.000 A 
ATOM     11  N   UNL     1      45.431   3.764   8.201  0.00  0.00    +0.000 N 
ATOM     12  C   UNL     1      45.495   4.752   9.168  0.00  0.00    +0.000 A 
ATOM     13  O   UNL     1      46.181   5.756   8.997  0.00  0.00    +0.000 OA
ATOM     14  C   UNL     1      44.767   4.425  10.379  0.00  0.00    +0.000 A 
ATOM     15  H   UNL     1      45.918   3.958   7.339  0.00  0.00    +0.000 HD
ENDBRANCH   3   5
BRANCH   2  16
ATOM     16  C   UNL     1      47.067   6.176  12.410  0.00  0.00    +0.000 C 
BRANCH  16  17
ATOM     17  C   UNL     1      47.375   5.697  13.795  0.00  0.00    +0.000 A 
ATOM     18  C   UNL     1      48.187   6.422  14.664  0.00  0.00    +0.000 A 
ATOM     19  C   UNL     1      48.449   5.912  15.932  0.00  0.00    +0.000 A 
ATOM     20  C   UNL     1      47.861   4.712  16.295  0.00  0.00    +0.000 A 
ATOM     21  N   UNL     1      47.077   3.986  15.472  0.00  0.00    +0.000 NA
ATOM     22  C   UNL     1      46.856   4.484  14.243  0.00  0.00    +0.000 A 
BRANCH  20  23
ATOM     23  O   UNL     1      48.128   4.229  17.552  0.00  0.00    +0.000 OA
BRANCH  23  24
ATOM     24  C   UNL     1      49.421   4.644  18.007  0.00  0.00    +0.000 C 
BRANCH  24  25
ATOM     25  C   UNL     1      50.384   3.505  17.826  0.00  0.00    +0.000 A 
ATOM     26  C   UNL     1      51.728   3.633  18.185  0.00  0.00    +0.000 A 
ATOM     27  C   UNL     1      52.597   2.566  17.997  0.00  0.00    +0.000 A 
ATOM     28  C   UNL     1      52.091   1.400  17.447  0.00  0.00    +0.000 A 
ATOM     29  N   UNL     1      50.804   1.241  17.074  0.00  0.00    +0.000 NA
ATOM     30  C   UNL     1      49.980   2.295  17.271  0.00  0.00    +0.000 A 
ENDBRANCH  24  25
ENDBRANCH  23  24
ENDBRANCH  20  23
ENDBRANCH  16  17
ENDBRANCH   2  16
TORSDOF 6
ENDMDL
MODEL 2
REMARK VINA RESULT:    -7.420      3.196      8.226
REMARK INTER + INTRA:         -11.099
REMARK INTER:                  -9.854
REMARK INTRA:                  -1.245
REMARK UNBOUND:                -1.077
REMARK  Name = 
REMARK  7 active torsions:
REMARK  status: ('A' for Active; 'I' for Inactive)
REMARK    1  A    between atoms: C_1  and  N_2
REMARK    2  A    between atoms: N_2  and  C_3
REMARK    3  A    between atoms: C_3  and  C_4
REMARK    4  A    between atoms: C_7  and  O_8
REMARK    5  A    between atoms: O_8  and  C_9
REMARK    6  A    between atoms: C_9  and  C_10
REMARK    7  A    between atoms: C_18  and  C_20
REMARK                            x       y       z     vdW  Elec       q    Type
REMARK                         _______ _______ _______ _____ _____    ______ ____
ROOT
ATOM      1  C   UNL     1      49.625   7.287  12.457  0.00  0.00    +0.000 C 
ATOM      2  N   UNL     1      48.930   7.557  13.709  0.00  0.00    +0.000 N 
ATOM      3  C   UNL     1      49.752   7.928  14.793  0.00  0.00    +0.000 C 
ATOM      4  O   UNL     1      50.971   7.991  14.679  0.00  0.00    +0.000 OA
ENDROOT
BRANCH   3   5
ATOM      5  C   UNL     1      49.126   8.204  16.100  0.00  0.00    +0.000 A 
ATOM      6  C   UNL     1      48.793   9.475  16.555  0.00  0.00    +0.000 A 
ATOM      7  S   UNL     1      48.039   9.483  18.085  0.00  0.00    +0.000 S 
ATOM      8  C   UNL     1      47.999   7.778  18.119  0.00  0.00    +0.000 A 
ATOM      9  N   UNL     1      47.375   7.125  19.133  0.00  0.00    +0.000 NA
ATOM     10  C   UNL     1      47.367   5.841  19.000  0.00  0.00    +0.000 A 
ATOM     11  N   UNL     1      47.963   5.153  17.973  0.00  0.00    +0.000 N 
ATOM     12  C   UNL     1      48.724   5.771  16.997  0.00  0.00    +0.000 A 
ATOM     13  O   UNL     1      49.437   5.112  16.244  0.00  0.00    +0.000 OA
ATOM     14  C   UNL     1      48.648   7.218  17.034  0.00  0.00    +0.000 A 
ATOM     15  H   UNL     1      47.982   4.144  17.975  0.00  0.00    +0.000 HD
ENDBRANCH   3   5
BRANCH   2  16
ATOM     16  C   UNL     1      47.475   7.735  13.723  0.00  0.00    +0.000 C 
BRANCH  16  17
ATOM     17  C   UNL     1      46.637   6.682  13.066  0.00  0.00    +0.000 A 
ATOM     18  C   UNL     1      46.638   5.359  13.503  0.00  0.00    +0.000 A 
ATOM     19  C   UNL     1      45.850   4.425  12.836  0.00  0.00    +0.000 A 
ATOM     20  C   UNL     1      45.066   4.856  11.780  0.00  0.00    +0.000 A 
ATOM     21  N   UNL     1      45.051   6.129  11.332  0.00  0.00    +0.000 NA
ATOM     22  C   UNL     1      45.837   7.010  11.973  0.00  0.00    +0.000 A 
BRANCH  20  23
ATOM     23  O   UNL     1      44.291   3.920  11.140  0.00  0.00    +0.000 OA
BRANCH  23  24
ATOM     24  C   UNL     1      44.111   4.248   9.758  0.00  0.00    +0.000 C 
BRANCH  24  25
ATOM     25  C   UNL     1      45.076   3.437   8.941  0.00  0.00    +0.000 A 
ATOM     26  C   UNL     1      45.871   4.037   7.960  0.00  0.00    +0.000 A 
ATOM     27  C   UNL     1      46.748   3.260   7.213  0.00  0.00    +0.000 A 
ATOM     28  C   UNL     1      46.796   1.900   7.468  0.00  0.00    +0.000 A 
ATOM     29  N   UNL     1      46.035   1.281   8.396  0.00  0.00    +0.000 NA
ATOM     30  C   UNL     1      45.194   2.062   9.111  0.00  0.00    +0.000 A 
ENDBRANCH  24  25
ENDBRANCH  23  24
ENDBRANCH  20  23
ENDBRANCH  16  17
ENDBRANCH   2  16
TORSDOF 6
ENDMDL
MODEL 3
REMARK VINA RESULT:    -7.398      3.332      8.355
REMARK INTER + INTRA:         -11.070
REMARK INTER:                  -9.896
REMARK INTRA:                  -1.174
REMARK UNBOUND:                -1.077
REMARK  Name = 
REMARK  7 active torsions:
REMARK  status: ('A' for Active; 'I' for Inactive)
REMARK    1  A    between atoms: C_1  and  N_2
REMARK    2  A    between atoms: N_2  and  C_3
REMARK    3  A    between atoms: C_3  and  C_4
REMARK    4  A    between atoms: C_7  and  O_8
REMARK    5  A    between atoms: O_8  and  C_9
REMARK    6  A    between atoms: C_9  and  C_10
REMARK    7  A    between atoms: C_18  and  C_20
REMARK                            x       y       z     vdW  Elec       q    Type
REMARK                         _______ _______ _______ _____ _____    ______ ____
ROOT
ATOM      1  C   UNL     1      49.562   7.691  12.444  0.00  0.00    +0.000 C 
ATOM      2  N   UNL     1      48.837   7.306  13.649  0.00  0.00    +0.000 N 
ATOM      3  C   UNL     1      49.616   7.205  14.820  0.00  0.00    +0.000 C 
ATOM      4  O   UNL     1      50.825   7.406  14.804  0.00  0.00    +0.000 OA
ENDROOT
BRANCH   3   5
ATOM      5  C   UNL     1      48.959   6.806  16.080  0.00  0.00    +0.000 A 
ATOM      6  C   UNL     1      48.838   5.492  16.517  0.00  0.00    +0.000 A 
ATOM      7  S   UNL     1      48.072   5.338  18.033  0.00  0.00    +0.000 S 
ATOM      8  C   UNL     1      48.013   7.033  18.220  0.00  0.00    +0.000 A 
ATOM      9  N   UNL     1      47.558   7.581  19.377  0.00  0.00    +0.000 NA
ATOM     10  C   UNL     1      47.626   8.871  19.405  0.00  0.00    +0.000 A 
ATOM     11  N   UNL     1      48.064   9.658  18.369  0.00  0.00    +0.000 N 
ATOM     12  C   UNL     1      48.406   9.147  17.129  0.00  0.00    +0.000 A 
ATOM     13  O   UNL     1      48.555   9.890  16.163  0.00  0.00    +0.000 OA
ATOM     14  C   UNL     1      48.469   7.699  17.097  0.00  0.00    +0.000 A 
ATOM     15  H   UNL     1      48.019  10.664  18.436  0.00  0.00    +0.000 HD
ENDBRANCH   3   5
BRANCH   2  16
ATOM     16  C   UNL     1      47.372   7.346  13.674  0.00  0.00    +0.000 C 
BRANCH  16  17
ATOM     17  C   UNL     1      46.632   6.324  12.867  0.00  0.00    +0.000 A 
ATOM     18  C   UNL     1      46.150   6.600  11.589  0.00  0.00    +0.000 A 
ATOM     19  C   UNL     1      45.454   5.612  10.899  0.00  0.00    +0.000 A 
ATOM     20  C   UNL     1      45.297   4.375  11.499  0.00  0.00    +0.000 A 
ATOM     21  N   UNL     1      45.747   4.083  12.737  0.00  0.00    +0.000 NA
ATOM     22  C   UNL     1      46.394   5.058  13.397  0.00  0.00    +0.000 A 
BRANCH  20  23
ATOM     23  O   UNL     1      44.612   3.412  10.798  0.00  0.00    +0.000 OA
BRANCH  23  24
ATOM     24  C   UNL     1      44.450   3.782   9.425  0.00  0.00    +0.000 C 
BRANCH  24  25
ATOM     25  C   UNL     1      45.431   3.003   8.596  0.00  0.00    +0.000 A 
ATOM     26  C   UNL     1      46.216   3.633   7.626  0.00  0.00    +0.000 A 
ATOM     27  C   UNL     1      47.108   2.885   6.869  0.00  0.00    +0.000 A 
ATOM     28  C   UNL     1      47.182   1.522   7.103  0.00  0.00    +0.000 A 
ATOM     29  N   UNL     1      46.432   0.874   8.019  0.00  0.00    +0.000 NA
ATOM     30  C   UNL     1      45.575   1.628   8.745  0.00  0.00    +0.000 A 
ENDBRANCH  24  25
ENDBRANCH  23  24
ENDBRANCH  20  23
ENDBRANCH  16  17
ENDBRANCH   2  16
TORSDOF 6
ENDMDL
MODEL 4
REMARK VINA RESULT:    -6.753      2.758      8.121
REMARK INTER + INTRA:         -10.199
REMARK INTER:                  -9.284
REMARK INTRA:                  -0.916
REMARK UNBOUND:                -1.077
REMARK  Name = 
REMARK  7 active torsions:
REMARK  status: ('A' for Active; 'I' for Inactive)
REMARK    1  A    between atoms: C_1  and  N_2
REMARK    2  A    between atoms: N_2  and  C_3
REMARK    3  A    between atoms: C_3  and  C_4
REMARK    4  A    between atoms: C_7  and  O_8
REMARK    5  A    between atoms: O_8  and  C_9
REMARK    6  A    between atoms: C_9  and  C_10
REMARK    7  A    between atoms: C_18  and  C_20
REMARK                            x       y       z     vdW  Elec       q    Type
REMARK                         _______ _______ _______ _____ _____    ______ ____
ROOT
ATOM      1  C   UNL     1      47.525   8.892  14.230  0.00  0.00    +0.000 C 
ATOM      2  N   UNL     1      48.496   7.855  14.560  0.00  0.00    +0.000 N 
ATOM      3  C   UNL     1      48.903   7.811  15.909  0.00  0.00    +0.000 C 
ATOM      4  O   UNL     1      48.478   8.615  16.732  0.00  0.00    +0.000 OA
ENDROOT
BRANCH   3   5
ATOM      5  C   UNL     1      49.894   6.800  16.322  0.00  0.00    +0.000 A 
ATOM      6  C   UNL     1      51.269   7.009  16.329  0.00  0.00    +0.000 A 
ATOM      7  S   UNL     1      52.166   5.675  16.899  0.00  0.00    +0.000 S 
ATOM      8  C   UNL     1      50.736   4.832  17.295  0.00  0.00    +0.000 A 
ATOM      9  N   UNL     1      50.799   3.634  17.933  0.00  0.00    +0.000 NA
ATOM     10  C   UNL     1      49.643   3.139  18.226  0.00  0.00    +0.000 A 
ATOM     11  N   UNL     1      48.437   3.708  17.901  0.00  0.00    +0.000 N 
ATOM     12  C   UNL     1      48.331   4.854  17.134  0.00  0.00    +0.000 A 
ATOM     13  O   UNL     1      47.250   5.195  16.659  0.00  0.00    +0.000 OA
ATOM     14  C   UNL     1      49.600   5.513  16.897  0.00  0.00    +0.000 A 
ATOM     15  H   UNL     1      47.573   3.225  18.097  0.00  0.00    +0.000 HD
ENDBRANCH   3   5
BRANCH   2  16
ATOM     16  C   UNL     1      48.759   6.762  13.619  0.00  0.00    +0.000 C 
BRANCH  16  17
ATOM     17  C   UNL     1      47.580   6.041  13.042  0.00  0.00    +0.000 A 
ATOM     18  C   UNL     1      47.122   4.835  13.569  0.00  0.00    +0.000 A 
ATOM     19  C   UNL     1      46.032   4.205  12.974  0.00  0.00    +0.000 A 
ATOM     20  C   UNL     1      45.421   4.824  11.898  0.00  0.00    +0.000 A 
ATOM     21  N   UNL     1      45.847   5.987  11.363  0.00  0.00    +0.000 NA
ATOM     22  C   UNL     1      46.915   6.566  11.936  0.00  0.00    +0.000 A 
BRANCH  20  23
ATOM     23  O   UNL     1      44.343   4.189  11.329  0.00  0.00    +0.000 OA
BRANCH  23  24
ATOM     24  C   UNL     1      44.188   4.554   9.954  0.00  0.00    +0.000 C 
BRANCH  24  25
ATOM     25  C   UNL     1      45.015   3.625   9.111  0.00  0.00    +0.000 A 
ATOM     26  C   UNL     1      45.791   4.109   8.054  0.00  0.00    +0.000 A 
ATOM     27  C   UNL     1      46.538   3.225   7.286  0.00  0.00    +0.000 A 
ATOM     28  C   UNL     1      46.480   1.878   7.599  0.00  0.00    +0.000 A 
ATOM     29  N   UNL     1      45.734   1.369   8.603  0.00  0.00    +0.000 NA
ATOM     30  C   UNL     1      45.019   2.253   9.335  0.00  0.00    +0.000 A 
ENDBRANCH  24  25
ENDBRANCH  23  24
ENDBRANCH  20  23
ENDBRANCH  16  17
ENDBRANCH   2  16
TORSDOF 6
ENDMDL
MODEL 5
REMARK VINA RESULT:    -6.737      2.160      8.051
REMARK INTER + INTRA:         -10.177
REMARK INTER:                  -9.250
REMARK INTRA:                  -0.927
REMARK UNBOUND:                -1.077
REMARK  Name = 
REMARK  7 active torsions:
REMARK  status: ('A' for Active; 'I' for Inactive)
REMARK    1  A    between atoms: C_1  and  N_2
REMARK    2  A    between atoms: N_2  and  C_3
REMARK    3  A    between atoms: C_3  and  C_4
REMARK    4  A    between atoms: C_7  and  O_8
REMARK    5  A    between atoms: O_8  and  C_9
REMARK    6  A    between atoms: C_9  and  C_10
REMARK    7  A    between atoms: C_18  and  C_20
REMARK                            x       y       z     vdW  Elec       q    Type
REMARK                         _______ _______ _______ _____ _____    ______ ____
ROOT
ATOM      1  C   UNL     1      49.141   8.877  15.925  0.00  0.00    +0.000 C 
ATOM      2  N   UNL     1      49.098   7.421  15.989  0.00  0.00    +0.000 N 
ATOM      3  C   UNL     1      48.584   6.880  17.185  0.00  0.00    +0.000 C 
ATOM      4  O   UNL     1      48.225   7.600  18.111  0.00  0.00    +0.000 OA
ENDROOT
BRANCH   3   5
ATOM      5  C   UNL     1      48.520   5.414  17.335  0.00  0.00    +0.000 A 
ATOM      6  C   UNL     1      47.351   4.667  17.239  0.00  0.00    +0.000 A 
ATOM      7  S   UNL     1      47.590   2.988  17.409  0.00  0.00    +0.000 S 
ATOM      8  C   UNL     1      49.283   3.194  17.465  0.00  0.00    +0.000 A 
ATOM      9  N   UNL     1      50.106   2.113  17.500  0.00  0.00    +0.000 NA
ATOM     10  C   UNL     1      51.362   2.414  17.478  0.00  0.00    +0.000 A 
ATOM     11  N   UNL     1      51.865   3.691  17.469  0.00  0.00    +0.000 N 
ATOM     12  C   UNL     1      51.064   4.815  17.571  0.00  0.00    +0.000 A 
ATOM     13  O   UNL     1      51.554   5.916  17.805  0.00  0.00    +0.000 OA
ATOM     14  C   UNL     1      49.648   4.527  17.465  0.00  0.00    +0.000 A 
ATOM     15  H   UNL     1      52.860   3.850  17.528  0.00  0.00    +0.000 HD
ENDBRANCH   3   5
BRANCH   2  16
ATOM     16  C   UNL     1      49.275   6.622  14.772  0.00  0.00    +0.000 C 
BRANCH  16  17
ATOM     17  C   UNL     1      48.127   6.550  13.812  0.00  0.00    +0.000 A 
ATOM     18  C   UNL     1      47.895   7.543  12.863  0.00  0.00    +0.000 A 
ATOM     19  C   UNL     1      46.800   7.426  12.012  0.00  0.00    +0.000 A 
ATOM     20  C   UNL     1      45.999   6.302  12.121  0.00  0.00    +0.000 A 
ATOM     21  N   UNL     1      46.196   5.329  13.035  0.00  0.00    +0.000 NA
ATOM     22  C   UNL     1      47.244   5.474  13.863  0.00  0.00    +0.000 A 
BRANCH  20  23
ATOM     23  O   UNL     1      44.926   6.203  11.268  0.00  0.00    +0.000 OA
BRANCH  23  24
ATOM     24  C   UNL     1      44.394   4.873  11.252  0.00  0.00    +0.000 C 
BRANCH  24  25
ATOM     25  C   UNL     1      44.909   4.163  10.032  0.00  0.00    +0.000 A 
ATOM     26  C   UNL     1      44.823   2.772   9.918  0.00  0.00    +0.000 A 
ATOM     27  C   UNL     1      45.316   2.142   8.783  0.00  0.00    +0.000 A 
ATOM     28  C   UNL     1      45.890   2.927   7.797  0.00  0.00    +0.000 A 
ATOM     29  N   UNL     1      46.005   4.269   7.875  0.00  0.00    +0.000 NA
ATOM     30  C   UNL     1      45.513   4.857   8.990  0.00  0.00    +0.000 A 
ENDBRANCH  24  25
ENDBRANCH  23  24
ENDBRANCH  20  23
ENDBRANCH  16  17
ENDBRANCH   2  16
TORSDOF 6
ENDMDL
MODEL 6
REMARK VINA RESULT:    -6.537      2.949      8.479
REMARK INTER + INTRA:          -9.907
REMARK INTER:                  -8.836
REMARK INTRA:                  -1.071
REMARK UNBOUND:                -1.077
REMARK  Name = 
REMARK  7 active torsions:
REMARK  status: ('A' for Active; 'I' for Inactive)
REMARK    1  A    between atoms: C_1  and  N_2
REMARK    2  A    between atoms: N_2  and  C_3
REMARK    3  A    between atoms: C_3  and  C_4
REMARK    4  A    between atoms: C_7  and  O_8
REMARK    5  A    between atoms: O_8  and  C_9
REMARK    6  A    between atoms: C_9  and  C_10
REMARK    7  A    between atoms: C_18  and  C_20
REMARK                            x       y       z     vdW  Elec       q    Type
REMARK                         _______ _______ _______ _____ _____    ______ ____
ROOT
ATOM      1  C   UNL     1      50.732   8.156  13.993  0.00  0.00    +0.000 C 
ATOM      2  N   UNL     1      49.662   7.648  14.844  0.00  0.00    +0.000 N 
ATOM      3  C   UNL     1      50.066   6.756  15.859  0.00  0.00    +0.000 C 
ATOM      4  O   UNL     1      51.238   6.420  15.987  0.00  0.00    +0.000 OA
ENDROOT
BRANCH   3   5
ATOM      5  C   UNL     1      49.041   6.185  16.754  0.00  0.00    +0.000 A 
ATOM      6  C   UNL     1      48.414   4.962  16.545  0.00  0.00    +0.000 A 
ATOM      7  S   UNL     1      47.306   4.539  17.771  0.00  0.00    +0.000 S 
ATOM      8  C   UNL     1      47.742   5.906  18.693  0.00  0.00    +0.000 A 
ATOM      9  N   UNL     1      47.226   6.089  19.936  0.00  0.00    +0.000 NA
ATOM     10  C   UNL     1      47.688   7.131  20.544  0.00  0.00    +0.000 A 
ATOM     11  N   UNL     1      48.581   8.024  20.007  0.00  0.00    +0.000 N 
ATOM     12  C   UNL     1      49.025   7.947  18.699  0.00  0.00    +0.000 A 
ATOM     13  O   UNL     1      49.622   8.888  18.182  0.00  0.00    +0.000 OA
ATOM     14  C   UNL     1      48.634   6.724  18.025  0.00  0.00    +0.000 A 
ATOM     15  H   UNL     1      48.842   8.856  20.514  0.00  0.00    +0.000 HD
ENDBRANCH   3   5
BRANCH   2  16
ATOM     16  C   UNL     1      48.341   8.282  14.828  0.00  0.00    +0.000 C 
BRANCH  16  17
ATOM     17  C   UNL     1      47.343   7.790  13.825  0.00  0.00    +0.000 A 
ATOM     18  C   UNL     1      46.380   8.629  13.269  0.00  0.00    +0.000 A 
ATOM     19  C   UNL     1      45.470   8.104  12.355  0.00  0.00    +0.000 A 
ATOM     20  C   UNL     1      45.581   6.769  12.006  0.00  0.00    +0.000 A 
ATOM     21  N   UNL     1      46.499   5.934  12.534  0.00  0.00    +0.000 NA
ATOM     22  C   UNL     1      47.352   6.453  13.432  0.00  0.00    +0.000 A 
BRANCH  20  23
ATOM     23  O   UNL     1      44.677   6.274  11.099  0.00  0.00    +0.000 OA
BRANCH  23  24
ATOM     24  C   UNL     1      44.502   4.861  11.255  0.00  0.00    +0.000 C 
BRANCH  24  25
ATOM     25  C   UNL     1      45.003   4.174  10.016  0.00  0.00    +0.000 A 
ATOM     26  C   UNL     1      44.895   2.788   9.867  0.00  0.00    +0.000 A 
ATOM     27  C   UNL     1      45.376   2.179   8.715  0.00  0.00    +0.000 A 
ATOM     28  C   UNL     1      45.958   2.980   7.746  0.00  0.00    +0.000 A 
ATOM     29  N   UNL     1      46.094   4.318   7.858  0.00  0.00    +0.000 NA
ATOM     30  C   UNL     1      45.614   4.885   8.989  0.00  0.00    +0.000 A 
ENDBRANCH  24  25
ENDBRANCH  23  24
ENDBRANCH  20  23
ENDBRANCH  16  17
ENDBRANCH   2  16
TORSDOF 6
ENDMDL
MODEL 7
REMARK VINA RESULT:    -6.410      2.736      8.014
REMARK INTER + INTRA:          -9.735
REMARK INTER:                  -8.556
REMARK INTRA:                  -1.179
REMARK UNBOUND:                -1.077
REMARK  Name = 
REMARK  7 active torsions:
REMARK  status: ('A' for Active; 'I' for Inactive)
REMARK    1  A    between atoms: C_1  and  N_2
REMARK    2  A    between atoms: N_2  and  C_3
REMARK    3  A    between atoms: C_3  and  C_4
REMARK    4  A    between atoms: C_7  and  O_8
REMARK    5  A    between atoms: O_8  and  C_9
REMARK    6  A    between atoms: C_9  and  C_10
REMARK    7  A    between atoms: C_18  and  C_20
REMARK                            x       y       z     vdW  Elec       q    Type
REMARK                         _______ _______ _______ _____ _____    ______ ____
ROOT
ATOM      1  C   UNL     1      47.835   9.175  17.804  0.00  0.00    +0.000 C 
ATOM      2  N   UNL     1      48.805   8.155  17.423  0.00  0.00    +0.000 N 
ATOM      3  C   UNL     1      48.836   7.009  18.244  0.00  0.00    +0.000 C 
ATOM      4  O   UNL     1      48.107   6.904  19.225  0.00  0.00    +0.000 OA
ENDROOT
BRANCH   3   5
ATOM      5  C   UNL     1      49.800   5.936  17.934  0.00  0.00    +0.000 A 
ATOM      6  C   UNL     1      51.165   6.014  18.187  0.00  0.00    +0.000 A 
ATOM      7  S   UNL     1      52.025   4.603  17.765  0.00  0.00    +0.000 S 
ATOM      8  C   UNL     1      50.577   3.790  17.371  0.00  0.00    +0.000 A 
ATOM      9  N   UNL     1      50.599   2.476  17.028  0.00  0.00    +0.000 NA
ATOM     10  C   UNL     1      49.428   1.973  16.816  0.00  0.00    +0.000 A 
ATOM     11  N   UNL     1      48.249   2.674  16.872  0.00  0.00    +0.000 N 
ATOM     12  C   UNL     1      48.197   4.040  17.084  0.00  0.00    +0.000 A 
ATOM     13  O   UNL     1      47.160   4.667  16.886  0.00  0.00    +0.000 OA
ATOM     14  C   UNL     1      49.473   4.618  17.456  0.00  0.00    +0.000 A 
ATOM     15  H   UNL     1      47.378   2.232  16.621  0.00  0.00    +0.000 HD
ENDBRANCH   3   5
BRANCH   2  16
ATOM     16  C   UNL     1      49.447   8.201  16.106  0.00  0.00    +0.000 C 
BRANCH  16  17
ATOM     17  C   UNL     1      48.615   7.848  14.912  0.00  0.00    +0.000 A 
ATOM     18  C   UNL     1      47.826   8.792  14.257  0.00  0.00    +0.000 A 
ATOM     19  C   UNL     1      47.062   8.395  13.163  0.00  0.00    +0.000 A 
ATOM     20  C   UNL     1      47.142   7.077  12.746  0.00  0.00    +0.000 A 
ATOM     21  N   UNL     1      47.891   6.142  13.366  0.00  0.00    +0.000 NA
ATOM     22  C   UNL     1      48.603   6.539  14.434  0.00  0.00    +0.000 A 
BRANCH  20  23
ATOM     23  O   UNL     1      46.384   6.708  11.662  0.00  0.00    +0.000 OA
BRANCH  23  24
ATOM     24  C   UNL     1      45.269   5.901  12.055  0.00  0.00    +0.000 C 
BRANCH  24  25
ATOM     25  C   UNL     1      45.012   4.878  10.985  0.00  0.00    +0.000 A 
ATOM     26  C   UNL     1      45.476   5.069   9.680  0.00  0.00    +0.000 A 
ATOM     27  C   UNL     1      45.215   4.111   8.709  0.00  0.00    +0.000 A 
ATOM     28  C   UNL     1      44.489   2.990   9.075  0.00  0.00    +0.000 A 
ATOM     29  N   UNL     1      44.011   2.775  10.320  0.00  0.00    +0.000 NA
ATOM     30  C   UNL     1      44.283   3.723  11.246  0.00  0.00    +0.000 A 
ENDBRANCH  24  25
ENDBRANCH  23  24
ENDBRANCH  20  23
ENDBRANCH  16  17
ENDBRANCH   2  16
TORSDOF 6
ENDMDL
MODEL 8
REMARK VINA RESULT:    -6.342      3.508      8.582
REMARK INTER + INTRA:          -9.644
REMARK INTER:                  -8.967
REMARK INTRA:                  -0.677
REMARK UNBOUND:                -1.077
REMARK  Name = 
REMARK  7 active torsions:
REMARK  status: ('A' for Active; 'I' for Inactive)
REMARK    1  A    between atoms: C_1  and  N_2
REMARK    2  A    between atoms: N_2  and  C_3
REMARK    3  A    between atoms: C_3  and  C_4
REMARK    4  A    between atoms: C_7  and  O_8
REMARK    5  A    between atoms: O_8  and  C_9
REMARK    6  A    between atoms: C_9  and  C_10
REMARK    7  A    between atoms: C_18  and  C_20
REMARK                            x       y       z     vdW  Elec       q    Type
REMARK                         _______ _______ _______ _____ _____    ______ ____
ROOT
ATOM      1  C   UNL     1      47.553   4.081  16.701  0.00  0.00    +0.000 C 
ATOM      2  N   UNL     1      47.987   5.388  16.222  0.00  0.00    +0.000 N 
ATOM      3  C   UNL     1      48.585   6.221  17.189  0.00  0.00    +0.000 C 
ATOM      4  O   UNL     1      48.702   5.865  18.356  0.00  0.00    +0.000 OA
ENDROOT
BRANCH   3   5
ATOM      5  C   UNL     1      49.038   7.567  16.788  0.00  0.00    +0.000 A 
ATOM      6  C   UNL     1      48.236   8.702  16.812  0.00  0.00    +0.000 A 
ATOM      7  S   UNL     1      49.043  10.127  16.337  0.00  0.00    +0.000 S 
ATOM      8  C   UNL     1      50.529   9.296  16.228  0.00  0.00    +0.000 A 
ATOM      9  N   UNL     1      51.677   9.972  15.960  0.00  0.00    +0.000 NA
ATOM     10  C   UNL     1      52.733   9.229  15.968  0.00  0.00    +0.000 A 
ATOM     11  N   UNL     1      52.740   7.873  16.175  0.00  0.00    +0.000 N 
ATOM     12  C   UNL     1      51.582   7.129  16.315  0.00  0.00    +0.000 A 
ATOM     13  O   UNL     1      51.611   5.902  16.253  0.00  0.00    +0.000 OA
ATOM     14  C   UNL     1      50.386   7.937  16.444  0.00  0.00    +0.000 A 
ATOM     15  H   UNL     1      53.597   7.346  16.093  0.00  0.00    +0.000 HD
ENDBRANCH   3   5
BRANCH   2  16
ATOM     16  C   UNL     1      48.076   5.656  14.783  0.00  0.00    +0.000 C 
BRANCH  16  17
ATOM     17  C   UNL     1      46.983   5.125  13.906  0.00  0.00    +0.000 A 
ATOM     18  C   UNL     1      46.056   5.964  13.293  0.00  0.00    +0.000 A 
ATOM     19  C   UNL     1      45.054   5.405  12.505  0.00  0.00    +0.000 A 
ATOM     20  C   UNL     1      45.039   4.032  12.332  0.00  0.00    +0.000 A 
ATOM     21  N   UNL     1      45.920   3.196  12.920  0.00  0.00    +0.000 NA
ATOM     22  C   UNL     1      46.864   3.752  13.696  0.00  0.00    +0.000 A 
BRANCH  20  23
ATOM     23  O   UNL     1      44.045   3.502  11.546  0.00  0.00    +0.000 OA
BRANCH  23  24
ATOM     24  C   UNL     1      43.949   4.189  10.293  0.00  0.00    +0.000 C 
BRANCH  24  25
ATOM     25  C   UNL     1      44.887   3.542   9.315  0.00  0.00    +0.000 A 
ATOM     26  C   UNL     1      45.591   4.305   8.379  0.00  0.00    +0.000 A 
ATOM     27  C   UNL     1      46.445   3.678   7.481  0.00  0.00    +0.000 A 
ATOM     28  C   UNL     1      46.563   2.300   7.544  0.00  0.00    +0.000 A 
ATOM     29  N   UNL     1      45.890   1.526   8.422  0.00  0.00    +0.000 NA
ATOM     30  C   UNL     1      45.069   2.164   9.287  0.00  0.00    +0.000 A 
ENDBRANCH  24  25
ENDBRANCH  23  24
ENDBRANCH  20  23
ENDBRANCH  16  17
ENDBRANCH   2  16
TORSDOF 6
ENDMDL
MODEL 9
REMARK VINA RESULT:    -6.291      3.004      8.575
REMARK INTER + INTRA:          -9.574
REMARK INTER:                  -8.560
REMARK INTRA:                  -1.014
REMARK UNBOUND:                -1.077
REMARK  Name = 
REMARK  7 active torsions:
REMARK  status: ('A' for Active; 'I' for Inactive)
REMARK    1  A    between atoms: C_1  and  N_2
REMARK    2  A    between atoms: N_2  and  C_3
REMARK    3  A    between atoms: C_3  and  C_4
REMARK    4  A    between atoms: C_7  and  O_8
REMARK    5  A    between atoms: O_8  and  C_9
REMARK    6  A    between atoms: C_9  and  C_10
REMARK    7  A    between atoms: C_18  and  C_20
REMARK                            x       y       z     vdW  Elec       q    Type
REMARK                         _______ _______ _______ _____ _____    ______ ____
ROOT
ATOM      1  C   UNL     1      47.414   6.393  18.670  0.00  0.00    +0.000 C 
ATOM      2  N   UNL     1      48.798   6.018  18.409  0.00  0.00    +0.000 N 
ATOM      3  C   UNL     1      49.262   4.885  19.109  0.00  0.00    +0.000 C 
ATOM      4  O   UNL     1      48.545   4.283  19.899  0.00  0.00    +0.000 OA
ENDROOT
BRANCH   3   5
ATOM      5  C   UNL     1      50.658   4.449  18.912  0.00  0.00    +0.000 A 
ATOM      6  C   UNL     1      51.759   5.054  19.508  0.00  0.00    +0.000 A 
ATOM      7  S   UNL     1      53.244   4.305  19.133  0.00  0.00    +0.000 S 
ATOM      8  C   UNL     1      52.446   3.058  18.284  0.00  0.00    +0.000 A 
ATOM      9  N   UNL     1      53.149   2.007  17.786  0.00  0.00    +0.000 NA
ATOM     10  C   UNL     1      52.413   1.108  17.222  0.00  0.00    +0.000 A 
ATOM     11  N   UNL     1      51.051   1.187  17.073  0.00  0.00    +0.000 N 
ATOM     12  C   UNL     1      50.318   2.301  17.443  0.00  0.00    +0.000 A 
ATOM     13  O   UNL     1      49.154   2.437  17.076  0.00  0.00    +0.000 OA
ATOM     14  C   UNL     1      51.083   3.274  18.197  0.00  0.00    +0.000 A 
ATOM     15  H   UNL     1      50.550   0.481  16.554  0.00  0.00    +0.000 HD
ENDBRANCH   3   5
BRANCH   2  16
ATOM     16  C   UNL     1      49.517   6.592  17.268  0.00  0.00    +0.000 C 
BRANCH  16  17
ATOM     17  C   UNL     1      48.865   6.513  15.922  0.00  0.00    +0.000 A 
ATOM     18  C   UNL     1      48.885   7.582  15.029  0.00  0.00    +0.000 A 
ATOM     19  C   UNL     1      48.243   7.452  13.800  0.00  0.00    +0.000 A 
ATOM     20  C   UNL     1      47.637   6.245  13.498  0.00  0.00    +0.000 A 
ATOM     21  N   UNL     1      47.596   5.196  14.347  0.00  0.00    +0.000 NA
ATOM     22  C   UNL     1      48.200   5.351  15.537  0.00  0.00    +0.000 A 
BRANCH  20  23
ATOM     23  O   UNL     1      47.015   6.135  12.279  0.00  0.00    +0.000 OA
BRANCH  23  24
ATOM     24  C   UNL     1      45.615   6.418  12.380  0.00  0.00    +0.000 C 
BRANCH  24  25
ATOM     25  C   UNL     1      44.847   5.154  12.116  0.00  0.00    +0.000 A 
ATOM     26  C   UNL     1      44.701   4.657  10.818  0.00  0.00    +0.000 A 
ATOM     27  C   UNL     1      43.977   3.491  10.603  0.00  0.00    +0.000 A 
ATOM     28  C   UNL     1      43.414   2.860  11.700  0.00  0.00    +0.000 A 
ATOM     29  N   UNL     1      43.520   3.315  12.966  0.00  0.00    +0.000 NA
ATOM     30  C   UNL     1      44.233   4.451  13.146  0.00  0.00    +0.000 A 
ENDBRANCH  24  25
ENDBRANCH  23  24
ENDBRANCH  20  23
ENDBRANCH  16  17
ENDBRANCH   2  16
TORSDOF 6
ENDMDL
