MODEL 1
REMARK VINA RESULT:    -7.832      0.000      0.000
REMARK INTER + INTRA:         -10.640
REMARK INTER:                  -9.892
REMARK INTRA:                  -0.747
REMARK UNBOUND:                -0.747
REMARK  Name = 
REMARK  5 active torsions:
REMARK  status: ('A' for Active; 'I' for Inactive)
REMARK    1  A    between atoms: N_1  and  C_2
REMARK    2  A    between atoms: C_2  and  C_3
REMARK    3  A    between atoms: C_2  and  C_10
REMARK    4  A    between atoms: C_3  and  C_4
REMARK    5  A    between atoms: C_10  and  C_12
REMARK                            x       y       z     vdW  Elec       q    Type
REMARK                         _______ _______ _______ _____ _____    ______ ____
ROOT
ATOM      1  C   UNL     1      45.138   3.794  12.095  0.00  0.00    +0.000 C 
ATOM      2  O   UNL     1      45.481   3.142  13.087  0.00  0.00    +0.000 OA
ENDROOT
BRANCH   1   3
ATOM      3  C   UNL     1      45.388   5.254  12.058  0.00  0.00    +0.000 A 
ATOM      4  C   UNL     1      46.676   5.727  12.291  0.00  0.00    +0.000 A 
ATOM      5  S   UNL     1      46.841   7.411  12.086  0.00  0.00    +0.000 S 
ATOM      6  C   UNL     1      45.198   7.572  11.681  0.00  0.00    +0.000 A 
ATOM      7  N   UNL     1      44.687   8.776  11.303  0.00  0.00    +0.000 NA
ATOM      8  C   UNL     1      43.442   8.742  10.959  0.00  0.00    +0.000 A 
ATOM      9  N   UNL     1      42.651   7.628  11.007  0.00  0.00    +0.000 N 
ATOM     10  C   UNL     1      43.077   6.464  11.594  0.00  0.00    +0.000 A 
ATOM     11  O   UNL     1      42.267   5.632  11.972  0.00  0.00    +0.000 OA
ATOM     12  C   UNL     1      44.511   6.374  11.793  0.00  0.00    +0.000 A 
ATOM     13  H   UNL     1      41.657   7.697  10.842  0.00  0.00    +0.000 HD
ENDBRANCH   1   3
BRANCH   1  14
ATOM     14  C   UNL     1      44.426   3.063  10.936  0.00  0.00    +0.000 C 
BRANCH  14  15
ATOM     15  N   UNL     1      42.961   3.035  11.178  0.00  0.00    +0.000 NA
ATOM     16  H   UNL     1      42.766   2.502  12.025  0.00  0.00    +0.000 HD
ATOM     17  H   UNL     1      42.517   2.526  10.408  0.00  0.00    +0.000 HD
ENDBRANCH  14  15
BRANCH  14  18
ATOM     18  C   UNL     1      44.789   3.822   9.642  0.00  0.00    +0.000 C 
BRANCH  18  19
ATOM     19  C   UNL     1      45.529   3.075   8.558  0.00  0.00    +0.000 A 
ATOM     20  C   UNL     1      46.055   3.784   7.471  0.00  0.00    +0.000 A 
ATOM     21  C   UNL     1      46.848   3.135   6.530  0.00  0.00    +0.000 A 
ATOM     22  C   UNL     1      47.093   1.785   6.702  0.00  0.00    +0.000 A 
ATOM     23  N   UNL     1      46.596   1.059   7.724  0.00  0.00    +0.000 NA
ATOM     24  C   UNL     1      45.837   1.720   8.629  0.00  0.00    +0.000 A 
ENDBRANCH  18  19
ENDBRANCH  14  18
ENDBRANCH   1  14
TORSDOF 5
ENDMDL
MODEL 2
REMARK VINA RESULT:    -7.744      1.950      2.978
REMARK INTER + INTRA:         -10.529
REMARK INTER:                  -9.895
REMARK INTRA:                  -0.634
REMARK UNBOUND:                -0.747
REMARK  Name = 
REMARK  5 active torsions:
REMARK  status: ('A' for Active; 'I' for Inactive)
REMARK    1  A    between atoms: N_1  and  C_2
REMARK    2  A    between atoms: C_2  and  C_3
REMARK    3  A    between atoms: C_2  and  C_10
REMARK    4  A    between atoms: C_3  and  C_4
REMARK    5  A    between atoms: C_10  and  C_12
REMARK                            x       y       z     vdW  Elec       q    Type
REMARK                         _______ _______ _______ _____ _____    ______ ____
ROOT
ATOM      1  C   UNL     1      43.859   4.469  12.171  0.00  0.00    +0.000 C 
ATOM      2  O   UNL     1      42.752   4.599  12.704  0.00  0.00    +0.000 OA
ENDROOT
BRANCH   1   3
ATOM      3  C   UNL     1      44.875   5.537  12.328  0.00  0.00    +0.000 A 
ATOM      4  C   UNL     1      44.740   6.712  11.595  0.00  0.00    +0.000 A 
ATOM      5  S   UNL     1      45.903   7.900  11.976  0.00  0.00    +0.000 S 
ATOM      6  C   UNL     1      46.631   6.887  13.131  0.00  0.00    +0.000 A 
ATOM      7  N   UNL     1      47.661   7.334  13.900  0.00  0.00    +0.000 NA
ATOM      8  C   UNL     1      48.075   6.484  14.782  0.00  0.00    +0.000 A 
ATOM      9  N   UNL     1      47.588   5.216  14.929  0.00  0.00    +0.000 N 
ATOM     10  C   UNL     1      46.714   4.667  14.025  0.00  0.00    +0.000 A 
ATOM     11  O   UNL     1      46.592   3.456  13.943  0.00  0.00    +0.000 OA
ATOM     12  C   UNL     1      46.055   5.627  13.159  0.00  0.00    +0.000 A 
ATOM     13  H   UNL     1      48.039   4.562  15.554  0.00  0.00    +0.000 HD
ENDBRANCH   1   3
BRANCH   1  14
ATOM     14  C   UNL     1      44.134   3.205  11.328  0.00  0.00    +0.000 C 
BRANCH  14  15
ATOM     15  N   UNL     1      43.147   2.148  11.664  0.00  0.00    +0.000 NA
ATOM     16  H   UNL     1      42.203   2.501  11.508  0.00  0.00    +0.000 HD
ATOM     17  H   UNL     1      43.218   1.947  12.666  0.00  0.00    +0.000 HD
ENDBRANCH  14  15
BRANCH  14  18
ATOM     18  C   UNL     1      44.051   3.631   9.847  0.00  0.00    +0.000 C 
BRANCH  18  19
ATOM     19  C   UNL     1      45.056   3.053   8.879  0.00  0.00    +0.000 A 
ATOM     20  C   UNL     1      45.805   3.914   8.069  0.00  0.00    +0.000 A 
ATOM     21  C   UNL     1      46.822   3.410   7.265  0.00  0.00    +0.000 A 
ATOM     22  C   UNL     1      47.063   2.049   7.291  0.00  0.00    +0.000 A 
ATOM     23  N   UNL     1      46.358   1.180   8.044  0.00  0.00    +0.000 NA
ATOM     24  C   UNL     1      45.381   1.700   8.824  0.00  0.00    +0.000 A 
ENDBRANCH  18  19
ENDBRANCH  14  18
ENDBRANCH   1  14
TORSDOF 5
ENDMDL
MODEL 3
REMARK VINA RESULT:    -7.403      1.678      2.040
REMARK INTER + INTRA:         -10.097
REMARK INTER:                 -10.176
REMARK INTRA:                   0.079
REMARK UNBOUND:                -0.747
REMARK  Name = 
REMARK  5 active torsions:
REMARK  status: ('A' for Active; 'I' for Inactive)
REMARK    1  A    between atoms: N_1  and  C_2
REMARK    2  A    between atoms: C_2  and  C_3
REMARK    3  A    between atoms: C_2  and  C_10
REMARK    4  A    between atoms: C_3  and  C_4
REMARK    5  A    between atoms: C_10  and  C_12
REMARK                            x       y       z     vdW  Elec       q    Type
REMARK                         _______ _______ _______ _____ _____    ______ ____
ROOT
ATOM      1  C   UNL     1      44.107   3.708  10.752  0.00  0.00    +0.000 C 
ATOM      2  O   UNL     1      43.128   3.049  11.121  0.00  0.00    +0.000 OA
ENDROOT
BRANCH   1   3
ATOM      3  C   UNL     1      44.879   4.488  11.748  0.00  0.00    +0.000 A 
ATOM      4  C   UNL     1      45.784   3.827  12.572  0.00  0.00    +0.000 A 
ATOM      5  S   UNL     1      46.694   4.866  13.572  0.00  0.00    +0.000 S 
ATOM      6  C   UNL     1      45.911   6.237  12.944  0.00  0.00    +0.000 A 
ATOM      7  N   UNL     1      46.284   7.490  13.324  0.00  0.00    +0.000 NA
ATOM      8  C   UNL     1      45.652   8.441  12.720  0.00  0.00    +0.000 A 
ATOM      9  N   UNL     1      44.648   8.253  11.811  0.00  0.00    +0.000 N 
ATOM     10  C   UNL     1      44.102   7.016  11.581  0.00  0.00    +0.000 A 
ATOM     11  O   UNL     1      42.992   6.914  11.085  0.00  0.00    +0.000 OA
ATOM     12  C   UNL     1      44.903   5.902  12.053  0.00  0.00    +0.000 A 
ATOM     13  H   UNL     1      44.112   9.038  11.468  0.00  0.00    +0.000 HD
ENDBRANCH   1   3
BRANCH   1  14
ATOM     14  C   UNL     1      44.471   3.721   9.252  0.00  0.00    +0.000 C 
BRANCH  14  15
ATOM     15  N   UNL     1      45.407   4.838   8.967  0.00  0.00    +0.000 NA
ATOM     16  H   UNL     1      45.474   5.442   9.786  0.00  0.00    +0.000 HD
ATOM     17  H   UNL     1      45.007   5.411   8.218  0.00  0.00    +0.000 HD
ENDBRANCH  14  15
BRANCH  14  18
ATOM     18  C   UNL     1      45.093   2.345   8.934  0.00  0.00    +0.000 C 
BRANCH  18  19
ATOM     19  C   UNL     1      46.027   2.237   7.753  0.00  0.00    +0.000 A 
ATOM     20  C   UNL     1      45.923   3.162   6.707  0.00  0.00    +0.000 A 
ATOM     21  C   UNL     1      46.855   3.157   5.674  0.00  0.00    +0.000 A 
ATOM     22  C   UNL     1      47.870   2.220   5.713  0.00  0.00    +0.000 A 
ATOM     23  N   UNL     1      48.002   1.301   6.692  0.00  0.00    +0.000 NA
ATOM     24  C   UNL     1      47.087   1.337   7.689  0.00  0.00    +0.000 A 
ENDBRANCH  18  19
ENDBRANCH  14  18
ENDBRANCH   1  14
TORSDOF 5
ENDMDL
MODEL 4
REMARK VINA RESULT:    -7.186      2.103      2.881
REMARK INTER + INTRA:          -9.824
REMARK INTER:                  -9.207
REMARK INTRA:                  -0.617
REMARK UNBOUND:                -0.747
REMARK  Name = 
REMARK  5 active torsions:
REMARK  status: ('A' for Active; 'I' for Inactive)
REMARK    1  A    between atoms: N_1  and  C_2
REMARK    2  A    between atoms: C_2  and  C_3
REMARK    3  A    between atoms: C_2  and  C_10
REMARK    4  A    between atoms: C_3  and  C_4
REMARK    5  A    between atoms: C_10  and  C_12
REMARK                            x       y       z     vdW  Elec       q    Type
REMARK                         _______ _______ _______ _____ _____    ______ ____
ROOT
ATOM      1  C   UNL     1      44.292   4.686  11.887  0.00  0.00    +0.000 C 
ATOM      2  O   UNL     1      43.408   5.543  11.779  0.00  0.00    +0.000 OA
ENDROOT
BRANCH   1   3
ATOM      3  C   UNL     1      45.464   4.953  12.755  0.00  0.00    +0.000 A 
ATOM      4  C   UNL     1      45.721   4.103  13.826  0.00  0.00    +0.000 A 
ATOM      5  S   UNL     1      47.171   4.453  14.652  0.00  0.00    +0.000 S 
ATOM      6  C   UNL     1      47.508   5.754  13.612  0.00  0.00    +0.000 A 
ATOM      7  N   UNL     1      48.671   6.452  13.721  0.00  0.00    +0.000 NA
ATOM      8  C   UNL     1      48.827   7.371  12.826  0.00  0.00    +0.000 A 
ATOM      9  N   UNL     1      47.906   7.688  11.868  0.00  0.00    +0.000 N 
ATOM     10  C   UNL     1      46.640   7.159  11.877  0.00  0.00    +0.000 A 
ATOM     11  O   UNL     1      45.734   7.717  11.281  0.00  0.00    +0.000 OA
ATOM     12  C   UNL     1      46.483   5.979  12.707  0.00  0.00    +0.000 A 
ATOM     13  H   UNL     1      48.037   8.498  11.278  0.00  0.00    +0.000 HD
ENDBRANCH   1   3
BRANCH   1  14
ATOM     14  C   UNL     1      44.159   3.375  11.084  0.00  0.00    +0.000 C 
BRANCH  14  15
ATOM     15  N   UNL     1      42.897   2.683  11.450  0.00  0.00    +0.000 NA
ATOM     16  H   UNL     1      43.068   2.057  12.236  0.00  0.00    +0.000 HD
ATOM     17  H   UNL     1      42.616   2.089  10.664  0.00  0.00    +0.000 HD
ENDBRANCH  14  15
BRANCH  14  18
ATOM     18  C   UNL     1      44.201   3.761   9.591  0.00  0.00    +0.000 C 
BRANCH  18  19
ATOM     19  C   UNL     1      45.156   3.020   8.686  0.00  0.00    +0.000 A 
ATOM     20  C   UNL     1      45.887   3.731   7.727  0.00  0.00    +0.000 A 
ATOM     21  C   UNL     1      46.863   3.088   6.972  0.00  0.00    +0.000 A 
ATOM     22  C   UNL     1      47.081   1.741   7.197  0.00  0.00    +0.000 A 
ATOM     23  N   UNL     1      46.392   1.013   8.099  0.00  0.00    +0.000 NA
ATOM     24  C   UNL     1      45.456   1.668   8.826  0.00  0.00    +0.000 A 
ENDBRANCH  18  19
ENDBRANCH  14  18
ENDBRANCH   1  14
TORSDOF 5
ENDMDL
MODEL 5
REMARK VINA RESULT:    -6.559      3.276      4.515
REMARK INTER + INTRA:          -9.032
REMARK INTER:                  -8.534
REMARK INTRA:                  -0.498
REMARK UNBOUND:                -0.747
REMARK  Name = 
REMARK  5 active torsions:
REMARK  status: ('A' for Active; 'I' for Inactive)
REMARK    1  A    between atoms: N_1  and  C_2
REMARK    2  A    between atoms: C_2  and  C_3
REMARK    3  A    between atoms: C_2  and  C_10
REMARK    4  A    between atoms: C_3  and  C_4
REMARK    5  A    between atoms: C_10  and  C_12
REMARK                            x       y       z     vdW  Elec       q    Type
REMARK                         _______ _______ _______ _____ _____    ______ ____
ROOT
ATOM      1  C   UNL     1      46.572   6.193  12.312  0.00  0.00    +0.000 C 
ATOM      2  O   UNL     1      47.043   6.634  11.258  0.00  0.00    +0.000 OA
ENDROOT
BRANCH   1   3
ATOM      3  C   UNL     1      47.373   6.267  13.557  0.00  0.00    +0.000 A 
ATOM      4  C   UNL     1      48.059   7.441  13.852  0.00  0.00    +0.000 A 
ATOM      5  S   UNL     1      48.825   7.429  15.375  0.00  0.00    +0.000 S 
ATOM      6  C   UNL     1      48.271   5.854  15.696  0.00  0.00    +0.000 A 
ATOM      7  N   UNL     1      48.511   5.261  16.897  0.00  0.00    +0.000 NA
ATOM      8  C   UNL     1      47.977   4.092  17.030  0.00  0.00    +0.000 A 
ATOM      9  N   UNL     1      47.271   3.443  16.056  0.00  0.00    +0.000 N 
ATOM     10  C   UNL     1      47.208   3.918  14.770  0.00  0.00    +0.000 A 
ATOM     11  O   UNL     1      46.921   3.169  13.850  0.00  0.00    +0.000 OA
ATOM     12  C   UNL     1      47.592   5.309  14.618  0.00  0.00    +0.000 A 
ATOM     13  H   UNL     1      46.986   2.482  16.182  0.00  0.00    +0.000 HD
ENDBRANCH   1   3
BRANCH   1  14
ATOM     14  C   UNL     1      45.169   5.548  12.286  0.00  0.00    +0.000 C 
BRANCH  14  15
ATOM     15  N   UNL     1      44.275   6.241  13.248  0.00  0.00    +0.000 NA
ATOM     16  H   UNL     1      44.716   6.263  14.167  0.00  0.00    +0.000 HD
ATOM     17  H   UNL     1      43.421   5.686  13.351  0.00  0.00    +0.000 HD
ENDBRANCH  14  15
BRANCH  14  18
ATOM     18  C   UNL     1      44.658   5.654  10.834  0.00  0.00    +0.000 C 
BRANCH  18  19
ATOM     19  C   UNL     1      44.856   4.472   9.917  0.00  0.00    +0.000 A 
ATOM     20  C   UNL     1      45.586   4.635   8.733  0.00  0.00    +0.000 A 
ATOM     21  C   UNL     1      45.888   3.532   7.940  0.00  0.00    +0.000 A 
ATOM     22  C   UNL     1      45.448   2.289   8.354  0.00  0.00    +0.000 A 
ATOM     23  N   UNL     1      44.730   2.086   9.478  0.00  0.00    +0.000 NA
ATOM     24  C   UNL     1      44.460   3.176  10.235  0.00  0.00    +0.000 A 
ENDBRANCH  18  19
ENDBRANCH  14  18
ENDBRANCH   1  14
TORSDOF 5
ENDMDL
MODEL 6
REMARK VINA RESULT:    -6.438      2.874      6.043
REMARK INTER + INTRA:          -8.879
REMARK INTER:                  -8.300
REMARK INTRA:                  -0.579
REMARK UNBOUND:                -0.747
REMARK  Name = 
REMARK  5 active torsions:
REMARK  status: ('A' for Active; 'I' for Inactive)
REMARK    1  A    between atoms: N_1  and  C_2
REMARK    2  A    between atoms: C_2  and  C_3
REMARK    3  A    between atoms: C_2  and  C_10
REMARK    4  A    between atoms: C_3  and  C_4
REMARK    5  A    between atoms: C_10  and  C_12
REMARK                            x       y       z     vdW  Elec       q    Type
REMARK                         _______ _______ _______ _____ _____    ______ ____
ROOT
ATOM      1  C   UNL     1      44.569   6.870  11.422  0.00  0.00    +0.000 C 
ATOM      2  O   UNL     1      43.673   7.637  11.053  0.00  0.00    +0.000 OA
ENDROOT
BRANCH   1   3
ATOM      3  C   UNL     1      44.371   5.406  11.303  0.00  0.00    +0.000 A 
ATOM      4  C   UNL     1      43.751   4.720  12.343  0.00  0.00    +0.000 A 
ATOM      5  S   UNL     1      43.471   3.071  12.012  0.00  0.00    +0.000 S 
ATOM      6  C   UNL     1      44.170   3.211  10.470  0.00  0.00    +0.000 A 
ATOM      7  N   UNL     1      44.178   2.157   9.609  0.00  0.00    +0.000 NA
ATOM      8  C   UNL     1      44.681   2.420   8.448  0.00  0.00    +0.000 A 
ATOM      9  N   UNL     1      45.219   3.624   8.088  0.00  0.00    +0.000 N 
ATOM     10  C   UNL     1      45.428   4.626   9.002  0.00  0.00    +0.000 A 
ATOM     11  O   UNL     1      46.234   5.512   8.772  0.00  0.00    +0.000 OA
ATOM     12  C   UNL     1      44.695   4.474  10.246  0.00  0.00    +0.000 A 
ATOM     13  H   UNL     1      45.705   3.727   7.209  0.00  0.00    +0.000 HD
ENDBRANCH   1   3
BRANCH   1  14
ATOM     14  C   UNL     1      45.857   7.468  12.027  0.00  0.00    +0.000 C 
BRANCH  14  15
ATOM     15  N   UNL     1      45.548   8.139  13.315  0.00  0.00    +0.000 NA
ATOM     16  H   UNL     1      45.961   9.071  13.321  0.00  0.00    +0.000 HD
ATOM     17  H   UNL     1      46.004   7.616  14.068  0.00  0.00    +0.000 HD
ENDBRANCH  14  15
BRANCH  14  18
ATOM     18  C   UNL     1      46.851   6.301  12.200  0.00  0.00    +0.000 C 
BRANCH  18  19
ATOM     19  C   UNL     1      47.266   5.917  13.601  0.00  0.00    +0.000 A 
ATOM     20  C   UNL     1      46.675   4.805  14.212  0.00  0.00    +0.000 A 
ATOM     21  C   UNL     1      47.134   4.360  15.448  0.00  0.00    +0.000 A 
ATOM     22  C   UNL     1      48.177   5.044  16.043  0.00  0.00    +0.000 A 
ATOM     23  N   UNL     1      48.767   6.128  15.499  0.00  0.00    +0.000 NA
ATOM     24  C   UNL     1      48.307   6.532  14.291  0.00  0.00    +0.000 A 
ENDBRANCH  18  19
ENDBRANCH  14  18
ENDBRANCH   1  14
TORSDOF 5
ENDMDL
MODEL 7
REMARK VINA RESULT:    -6.339      3.059      6.037
REMARK INTER + INTRA:          -8.754
REMARK INTER:                  -7.963
REMARK INTRA:                  -0.792
REMARK UNBOUND:                -0.747
REMARK  Name = 
REMARK  5 active torsions:
REMARK  status: ('A' for Active; 'I' for Inactive)
REMARK    1  A    between atoms: N_1  and  C_2
REMARK    2  A    between atoms: C_2  and  C_3
REMARK    3  A    between atoms: C_2  and  C_10
REMARK    4  A    between atoms: C_3  and  C_4
REMARK    5  A    between atoms: C_10  and  C_12
REMARK                            x       y       z     vdW  Elec       q    Type
REMARK                         _______ _______ _______ _____ _____    ______ ____
ROOT
ATOM      1  C   UNL     1      46.306   6.916  11.649  0.00  0.00    +0.000 C 
ATOM      2  O   UNL     1      45.688   7.968  11.851  0.00  0.00    +0.000 OA
ENDROOT
BRANCH   1   3
ATOM      3  C   UNL     1      45.634   5.798  10.948  0.00  0.00    +0.000 A 
ATOM      4  C   UNL     1      45.891   5.595   9.595  0.00  0.00    +0.000 A 
ATOM      5  S   UNL     1      45.155   4.196   8.955  0.00  0.00    +0.000 S 
ATOM      6  C   UNL     1      44.463   3.811  10.459  0.00  0.00    +0.000 A 
ATOM      7  N   UNL     1      43.756   2.661  10.629  0.00  0.00    +0.000 NA
ATOM      8  C   UNL     1      43.344   2.461  11.837  0.00  0.00    +0.000 A 
ATOM      9  N   UNL     1      43.532   3.330  12.876  0.00  0.00    +0.000 N 
ATOM     10  C   UNL     1      44.038   4.590  12.684  0.00  0.00    +0.000 A 
ATOM     11  O   UNL     1      43.845   5.465  13.512  0.00  0.00    +0.000 OA
ATOM     12  C   UNL     1      44.711   4.785  11.414  0.00  0.00    +0.000 A 
ATOM     13  H   UNL     1      43.078   3.171  13.765  0.00  0.00    +0.000 HD
ENDBRANCH   1   3
BRANCH   1  14
ATOM     14  C   UNL     1      47.755   6.795  12.169  0.00  0.00    +0.000 C 
BRANCH  14  15
ATOM     15  N   UNL     1      48.631   7.760  11.457  0.00  0.00    +0.000 NA
ATOM     16  H   UNL     1      48.087   8.258  10.753  0.00  0.00    +0.000 HD
ATOM     17  H   UNL     1      49.346   7.232  10.949  0.00  0.00    +0.000 HD
ENDBRANCH  14  15
BRANCH  14  18
ATOM     18  C   UNL     1      47.707   7.061  13.688  0.00  0.00    +0.000 C 
BRANCH  18  19
ATOM     19  C   UNL     1      47.807   5.882  14.625  0.00  0.00    +0.000 A 
ATOM     20  C   UNL     1      48.401   6.051  15.882  0.00  0.00    +0.000 A 
ATOM     21  C   UNL     1      48.389   5.011  16.807  0.00  0.00    +0.000 A 
ATOM     22  C   UNL     1      47.780   3.823  16.446  0.00  0.00    +0.000 A 
ATOM     23  N   UNL     1      47.209   3.610  15.243  0.00  0.00    +0.000 NA
ATOM     24  C   UNL     1      47.227   4.643  14.368  0.00  0.00    +0.000 A 
ENDBRANCH  18  19
ENDBRANCH  14  18
ENDBRANCH   1  14
TORSDOF 5
ENDMDL
MODEL 8
REMARK VINA RESULT:    -6.303      4.072      6.049
REMARK INTER + INTRA:          -8.709
REMARK INTER:                  -8.035
REMARK INTRA:                  -0.674
REMARK UNBOUND:                -0.747
REMARK  Name = 
REMARK  5 active torsions:
REMARK  status: ('A' for Active; 'I' for Inactive)
REMARK    1  A    between atoms: N_1  and  C_2
REMARK    2  A    between atoms: C_2  and  C_3
REMARK    3  A    between atoms: C_2  and  C_10
REMARK    4  A    between atoms: C_3  and  C_4
REMARK    5  A    between atoms: C_10  and  C_12
REMARK                            x       y       z     vdW  Elec       q    Type
REMARK                         _______ _______ _______ _____ _____    ______ ____
ROOT
ATOM      1  C   UNL     1      47.877   6.407  13.688  0.00  0.00    +0.000 C 
ATOM      2  O   UNL     1      48.702   6.276  12.777  0.00  0.00    +0.000 OA
ENDROOT
BRANCH   1   3
ATOM      3  C   UNL     1      48.298   6.183  15.091  0.00  0.00    +0.000 A 
ATOM      4  C   UNL     1      48.992   7.187  15.759  0.00  0.00    +0.000 A 
ATOM      5  S   UNL     1      49.293   6.844  17.402  0.00  0.00    +0.000 S 
ATOM      6  C   UNL     1      48.509   5.341  17.282  0.00  0.00    +0.000 A 
ATOM      7  N   UNL     1      48.337   4.554  18.379  0.00  0.00    +0.000 NA
ATOM      8  C   UNL     1      47.667   3.471  18.159  0.00  0.00    +0.000 A 
ATOM      9  N   UNL     1      47.200   3.081  16.935  0.00  0.00    +0.000 N 
ATOM     10  C   UNL     1      47.552   3.736  15.783  0.00  0.00    +0.000 A 
ATOM     11  O   UNL     1      47.459   3.177  14.703  0.00  0.00    +0.000 OA
ATOM     12  C   UNL     1      48.107   5.062  15.985  0.00  0.00    +0.000 A 
ATOM     13  H   UNL     1      46.792   2.165  16.810  0.00  0.00    +0.000 HD
ENDBRANCH   1   3
BRANCH   1  14
ATOM     14  C   UNL     1      46.421   6.770  13.325  0.00  0.00    +0.000 C 
BRANCH  14  15
ATOM     15  N   UNL     1      46.254   8.245  13.316  0.00  0.00    +0.000 NA
ATOM     16  H   UNL     1      45.707   8.520  12.501  0.00  0.00    +0.000 HD
ATOM     17  H   UNL     1      47.177   8.674  13.202  0.00  0.00    +0.000 HD
ENDBRANCH  14  15
BRANCH  14  18
ATOM     18  C   UNL     1      46.136   6.141  11.945  0.00  0.00    +0.000 C 
BRANCH  18  19
ATOM     19  C   UNL     1      45.108   5.039  11.859  0.00  0.00    +0.000 A 
ATOM     20  C   UNL     1      44.813   4.470  10.614  0.00  0.00    +0.000 A 
ATOM     21  C   UNL     1      43.965   3.370  10.531  0.00  0.00    +0.000 A 
ATOM     22  C   UNL     1      43.431   2.866  11.702  0.00  0.00    +0.000 A 
ATOM     23  N   UNL     1      43.675   3.390  12.921  0.00  0.00    +0.000 NA
ATOM     24  C   UNL     1      44.512   4.453  12.972  0.00  0.00    +0.000 A 
ENDBRANCH  18  19
ENDBRANCH  14  18
ENDBRANCH   1  14
TORSDOF 5
ENDMDL
MODEL 9
REMARK VINA RESULT:    -6.051      4.495      7.300
REMARK INTER + INTRA:          -8.391
REMARK INTER:                  -7.685
REMARK INTRA:                  -0.706
REMARK UNBOUND:                -0.747
REMARK  Name = 
REMARK  5 active torsions:
REMARK  status: ('A' for Active; 'I' for Inactive)
REMARK    1  A    between atoms: N_1  and  C_2
REMARK    2  A    between atoms: C_2  and  C_3
REMARK    3  A    between atoms: C_2  and  C_10
REMARK    4  A    between atoms: C_3  and  C_4
REMARK    5  A    between atoms: C_10  and  C_12
REMARK                            x       y       z     vdW  Elec       q    Type
REMARK                         _______ _______ _______ _____ _____    ______ ____
ROOT
ATOM      1  C   UNL     1      47.455   5.701  13.617  0.00  0.00    +0.000 C 
ATOM      2  O   UNL     1      48.559   6.010  13.154  0.00  0.00    +0.000 OA
ENDROOT
BRANCH   1   3
ATOM      3  C   UNL     1      46.241   5.864  12.782  0.00  0.00    +0.000 A 
ATOM      4  C   UNL     1      45.765   7.145  12.522  0.00  0.00    +0.000 A 
ATOM      5  S   UNL     1      44.446   7.185  11.441  0.00  0.00    +0.000 S 
ATOM      6  C   UNL     1      44.461   5.493  11.283  0.00  0.00    +0.000 A 
ATOM      7  N   UNL     1      43.617   4.865  10.419  0.00  0.00    +0.000 NA
ATOM      8  C   UNL     1      43.781   3.585  10.350  0.00  0.00    +0.000 A 
ATOM      9  N   UNL     1      44.674   2.873  11.101  0.00  0.00    +0.000 N 
ATOM     10  C   UNL     1      45.371   3.447  12.133  0.00  0.00    +0.000 A 
ATOM     11  O   UNL     1      45.850   2.753  13.015  0.00  0.00    +0.000 OA
ATOM     12  C   UNL     1      45.396   4.898  12.115  0.00  0.00    +0.000 A 
ATOM     13  H   UNL     1      44.665   1.863  11.087  0.00  0.00    +0.000 HD
ENDBRANCH   1   3
BRANCH   1  14
ATOM     14  C   UNL     1      47.376   5.186  15.071  0.00  0.00    +0.000 C 
BRANCH  14  15
ATOM     15  N   UNL     1      47.497   3.706  15.090  0.00  0.00    +0.000 NA
ATOM     16  H   UNL     1      48.023   3.397  14.274  0.00  0.00    +0.000 HD
ATOM     17  H   UNL     1      46.559   3.305  14.998  0.00  0.00    +0.000 HD
ENDBRANCH  14  15
BRANCH  14  18
ATOM     18  C   UNL     1      48.517   5.874  15.849  0.00  0.00    +0.000 C 
BRANCH  18  19
ATOM     19  C   UNL     1      48.807   5.408  17.256  0.00  0.00    +0.000 A 
ATOM     20  C   UNL     1      50.099   4.982  17.586  0.00  0.00    +0.000 A 
ATOM     21  C   UNL     1      50.417   4.671  18.904  0.00  0.00    +0.000 A 
ATOM     22  C   UNL     1      49.428   4.793  19.862  0.00  0.00    +0.000 A 
ATOM     23  N   UNL     1      48.167   5.185  19.588  0.00  0.00    +0.000 NA
ATOM     24  C   UNL     1      47.889   5.492  18.299  0.00  0.00    +0.000 A 
ENDBRANCH  18  19
ENDBRANCH  14  18
ENDBRANCH   1  14
TORSDOF 5
ENDMDL
