MODEL 1
REMARK VINA RESULT:    -8.405      0.000      0.000
REMARK INTER + INTRA:         -11.476
REMARK INTER:                 -11.353
REMARK INTRA:                  -0.123
REMARK UNBOUND:                -0.123
REMARK  Name = 
REMARK  8 active torsions:
REMARK  status: ('A' for Active; 'I' for Inactive)
REMARK    1  A    between atoms: C_1  and  C_2
REMARK    2  A    between atoms: C_6  and  C_7
REMARK    3  A    between atoms: C_7  and  N_8
REMARK    4  A    between atoms: N_8  and  C_9
REMARK    5  A    between atoms: C_12  and  C_13
REMARK    6  A    between atoms: C_13  and  N_14
REMARK    7  A    between atoms: N_14  and  C_15
REMARK    8  A    between atoms: C_16  and  C_18
REMARK                            x       y       z     vdW  Elec       q    Type
REMARK                         _______ _______ _______ _____ _____    ______ ____
ROOT
ATOM      1  C   UNL     1      45.412   5.001  10.827  0.00  0.00    +0.000 A 
ATOM      2  C   UNL     1      45.302   3.766  11.476  0.00  0.00    +0.000 A 
ATOM      3  C   UNL     1      45.623   3.623  12.835  0.00  0.00    +0.000 A 
ATOM      4  C   UNL     1      46.049   4.725  13.588  0.00  0.00    +0.000 A 
ATOM      5  C   UNL     1      46.291   5.924  12.913  0.00  0.00    +0.000 A 
ATOM      6  C   UNL     1      45.999   6.048  11.551  0.00  0.00    +0.000 A 
ENDROOT
BRANCH   1   7
ATOM      7  N   UNL     1      45.074   5.108   9.466  0.00  0.00    +0.000 N 
ATOM      8  H   UNL     1      45.848   5.504   8.936  0.00  0.00    +0.000 HD
BRANCH   7   9
ATOM      9  C   UNL     1      44.583   3.894   8.794  0.00  0.00    +0.000 C 
BRANCH   9  15
ATOM     10  C   UNL     1      46.735  -0.362   7.740  0.00  0.00    +0.000 C 
ATOM     11  C   UNL     1      46.728   1.127   7.568  0.00  0.00    +0.000 A 
ATOM     12  C   UNL     1      47.679   1.761   6.775  0.00  0.00    +0.000 A 
ATOM     13  C   UNL     1      47.625   3.145   6.644  0.00  0.00    +0.000 A 
ATOM     14  C   UNL     1      46.626   3.855   7.306  0.00  0.00    +0.000 A 
ATOM     15  C   UNL     1      45.708   3.157   8.087  0.00  0.00    +0.000 A 
ATOM     16  N   UNL     1      45.752   1.805   8.221  0.00  0.00    +0.000 NA
ENDBRANCH   9  15
ENDBRANCH   7   9
ENDBRANCH   1   7
BRANCH   4  17
ATOM     17  C   UNL     1      46.165   4.645  15.094  0.00  0.00    +0.000 C 
BRANCH  17  18
ATOM     18  N   UNL     1      47.526   4.761  15.600  0.00  0.00    +0.000 N 
ATOM     19  C   UNL     1      48.382   5.751  14.965  0.00  0.00    +0.000 C 
ATOM     20  C   UNL     1      47.859   3.999  16.724  0.00  0.00    +0.000 C 
ATOM     21  O   UNL     1      47.072   3.191  17.206  0.00  0.00    +0.000 OA
BRANCH  20  22
ATOM     22  C   UNL     1      49.158   4.220  17.380  0.00  0.00    +0.000 A 
ATOM     23  C   UNL     1      49.475   5.303  18.189  0.00  0.00    +0.000 A 
ATOM     24  S   UNL     1      51.043   5.236  18.849  0.00  0.00    +0.000 S 
ATOM     25  C   UNL     1      51.290   3.686  18.210  0.00  0.00    +0.000 A 
ATOM     26  N   UNL     1      52.412   2.979  18.524  0.00  0.00    +0.000 NA
ATOM     27  C   UNL     1      52.437   1.794  18.016  0.00  0.00    +0.000 A 
ATOM     28  N   UNL     1      51.478   1.273  17.187  0.00  0.00    +0.000 N 
ATOM     29  C   UNL     1      50.395   1.993  16.741  0.00  0.00    +0.000 A 
ATOM     30  O   UNL     1      49.692   1.568  15.828  0.00  0.00    +0.000 OA
ATOM     31  C   UNL     1      50.252   3.282  17.397  0.00  0.00    +0.000 A 
ATOM     32  H   UNL     1      51.601   0.362  16.760  0.00  0.00    +0.000 HD
ENDBRANCH  20  22
ENDBRANCH  17  18
ENDBRANCH   4  17
TORSDOF 6
ENDMDL
MODEL 2
REMARK VINA RESULT:    -8.291      4.359      6.755
REMARK INTER + INTRA:         -11.322
REMARK INTER:                 -10.292
REMARK INTRA:                  -1.030
REMARK UNBOUND:                -0.123
REMARK  Name = 
REMARK  8 active torsions:
REMARK  status: ('A' for Active; 'I' for Inactive)
REMARK    1  A    between atoms: C_1  and  C_2
REMARK    2  A    between atoms: C_6  and  C_7
REMARK    3  A    between atoms: C_7  and  N_8
REMARK    4  A    between atoms: N_8  and  C_9
REMARK    5  A    between atoms: C_12  and  C_13
REMARK    6  A    between atoms: C_13  and  N_14
REMARK    7  A    between atoms: N_14  and  C_15
REMARK    8  A    between atoms: C_16  and  C_18
REMARK                            x       y       z     vdW  Elec       q    Type
REMARK                         _______ _______ _______ _____ _____    ______ ____
ROOT
ATOM      1  C   UNL     1      45.203   3.679  12.113  0.00  0.00    +0.000 A 
ATOM      2  C   UNL     1      44.945   5.055  12.092  0.00  0.00    +0.000 A 
ATOM      3  C   UNL     1      45.757   5.962  12.791  0.00  0.00    +0.000 A 
ATOM      4  C   UNL     1      46.866   5.513  13.519  0.00  0.00    +0.000 A 
ATOM      5  C   UNL     1      47.045   4.135  13.655  0.00  0.00    +0.000 A 
ATOM      6  C   UNL     1      46.210   3.236  12.981  0.00  0.00    +0.000 A 
ENDROOT
BRANCH   1   7
ATOM      7  N   UNL     1      44.372   2.801  11.394  0.00  0.00    +0.000 N 
ATOM      8  H   UNL     1      43.551   2.555  11.945  0.00  0.00    +0.000 HD
BRANCH   7   9
ATOM      9  C   UNL     1      43.956   3.217  10.045  0.00  0.00    +0.000 C 
BRANCH   9  15
ATOM     10  C   UNL     1      46.773   0.002   7.680  0.00  0.00    +0.000 C 
ATOM     11  C   UNL     1      46.388   1.437   7.881  0.00  0.00    +0.000 A 
ATOM     12  C   UNL     1      46.986   2.450   7.139  0.00  0.00    +0.000 A 
ATOM     13  C   UNL     1      46.588   3.764   7.360  0.00  0.00    +0.000 A 
ATOM     14  C   UNL     1      45.608   4.031   8.314  0.00  0.00    +0.000 A 
ATOM     15  C   UNL     1      45.054   2.968   9.024  0.00  0.00    +0.000 A 
ATOM     16  N   UNL     1      45.435   1.680   8.815  0.00  0.00    +0.000 NA
ENDBRANCH   9  15
ENDBRANCH   7   9
ENDBRANCH   1   7
BRANCH   4  17
ATOM     17  C   UNL     1      47.884   6.486  14.072  0.00  0.00    +0.000 C 
BRANCH  17  18
ATOM     18  N   UNL     1      48.154   7.629  13.210  0.00  0.00    +0.000 N 
ATOM     19  C   UNL     1      48.486   7.344  11.823  0.00  0.00    +0.000 C 
ATOM     20  C   UNL     1      47.959   8.903  13.754  0.00  0.00    +0.000 C 
ATOM     21  O   UNL     1      47.670   9.056  14.936  0.00  0.00    +0.000 OA
BRANCH  20  22
ATOM     22  C   UNL     1      48.041  10.078  12.873  0.00  0.00    +0.000 A 
ATOM     23  C   UNL     1      49.196  10.802  12.605  0.00  0.00    +0.000 A 
ATOM     24  S   UNL     1      48.972  12.072  11.493  0.00  0.00    +0.000 S 
ATOM     25  C   UNL     1      47.371  11.596  11.211  0.00  0.00    +0.000 A 
ATOM     26  N   UNL     1      46.631  12.201  10.239  0.00  0.00    +0.000 NA
ATOM     27  C   UNL     1      45.453  11.698  10.095  0.00  0.00    +0.000 A 
ATOM     28  N   UNL     1      44.929  10.689  10.861  0.00  0.00    +0.000 N 
ATOM     29  C   UNL     1      45.590  10.137  11.934  0.00  0.00    +0.000 A 
ATOM     30  O   UNL     1      45.000   9.406  12.725  0.00  0.00    +0.000 OA
ATOM     31  C   UNL     1      46.971  10.574  12.045  0.00  0.00    +0.000 A 
ATOM     32  H   UNL     1      43.966  10.396  10.745  0.00  0.00    +0.000 HD
ENDBRANCH  20  22
ENDBRANCH  17  18
ENDBRANCH   4  17
TORSDOF 6
ENDMDL
MODEL 3
REMARK VINA RESULT:    -8.004      3.167      3.936
REMARK INTER + INTRA:         -10.934
REMARK INTER:                  -9.952
REMARK INTRA:                  -0.982
REMARK UNBOUND:                -0.123
REMARK  Name = 
REMARK  8 active torsions:
REMARK  status: ('A' for Active; 'I' for Inactive)
REMARK    1  A    between atoms: C_1  and  C_2
REMARK    2  A    between atoms: C_6  and  C_7
REMARK    3  A    between atoms: C_7  and  N_8
REMARK    4  A    between atoms: N_8  and  C_9
REMARK    5  A    between atoms: C_12  and  C_13
REMARK    6  A    between atoms: C_13  and  N_14
REMARK    7  A    between atoms: N_14  and  C_15
REMARK    8  A    between atoms: C_16  and  C_18
REMARK                            x       y       z     vdW  Elec       q    Type
REMARK                         _______ _______ _______ _____ _____    ______ ____
ROOT
ATOM      1  C   UNL     1      45.086   4.316  11.799  0.00  0.00    +0.000 A 
ATOM      2  C   UNL     1      44.577   5.486  11.223  0.00  0.00    +0.000 A 
ATOM      3  C   UNL     1      44.974   6.755  11.673  0.00  0.00    +0.000 A 
ATOM      4  C   UNL     1      45.911   6.886  12.706  0.00  0.00    +0.000 A 
ATOM      5  C   UNL     1      46.314   5.727  13.373  0.00  0.00    +0.000 A 
ATOM      6  C   UNL     1      45.888   4.467  12.939  0.00  0.00    +0.000 A 
ENDROOT
BRANCH   1   7
ATOM      7  N   UNL     1      44.671   3.062  11.316  0.00  0.00    +0.000 N 
ATOM      8  H   UNL     1      44.034   2.619  11.975  0.00  0.00    +0.000 HD
BRANCH   7   9
ATOM      9  C   UNL     1      44.096   3.015   9.963  0.00  0.00    +0.000 C 
BRANCH   9  15
ATOM     10  C   UNL     1      46.863  -0.281   7.652  0.00  0.00    +0.000 C 
ATOM     11  C   UNL     1      46.469   1.157   7.799  0.00  0.00    +0.000 A 
ATOM     12  C   UNL     1      47.030   2.139   6.990  0.00  0.00    +0.000 A 
ATOM     13  C   UNL     1      46.626   3.459   7.163  0.00  0.00    +0.000 A 
ATOM     14  C   UNL     1      45.677   3.761   8.137  0.00  0.00    +0.000 A 
ATOM     15  C   UNL     1      45.159   2.729   8.916  0.00  0.00    +0.000 A 
ATOM     16  N   UNL     1      45.547   1.436   8.754  0.00  0.00    +0.000 NA
ENDBRANCH   9  15
ENDBRANCH   7   9
ENDBRANCH   1   7
BRANCH   4  17
ATOM     17  C   UNL     1      46.527   8.227  13.037  0.00  0.00    +0.000 C 
BRANCH  17  18
ATOM     18  N   UNL     1      47.980   8.210  13.152  0.00  0.00    +0.000 N 
ATOM     19  C   UNL     1      48.729   7.806  11.972  0.00  0.00    +0.000 C 
ATOM     20  C   UNL     1      48.534   8.692  14.342  0.00  0.00    +0.000 C 
ATOM     21  O   UNL     1      47.828   9.023  15.289  0.00  0.00    +0.000 OA
BRANCH  20  22
ATOM     22  C   UNL     1      49.992   8.866  14.433  0.00  0.00    +0.000 A 
ATOM     23  C   UNL     1      50.701   9.962  13.959  0.00  0.00    +0.000 A 
ATOM     24  S   UNL     1      52.373   9.892  14.274  0.00  0.00    +0.000 S 
ATOM     25  C   UNL     1      52.181   8.480  15.192  0.00  0.00    +0.000 A 
ATOM     26  N   UNL     1      53.235   7.952  15.877  0.00  0.00    +0.000 NA
ATOM     27  C   UNL     1      52.930   6.915  16.579  0.00  0.00    +0.000 A 
ATOM     28  N   UNL     1      51.692   6.328  16.618  0.00  0.00    +0.000 N 
ATOM     29  C   UNL     1      50.634   6.747  15.846  0.00  0.00    +0.000 A 
ATOM     30  O   UNL     1      49.622   6.059  15.741  0.00  0.00    +0.000 OA
ATOM     31  C   UNL     1      50.891   7.996  15.148  0.00  0.00    +0.000 A 
ATOM     32  H   UNL     1      51.542   5.466  17.130  0.00  0.00    +0.000 HD
ENDBRANCH  20  22
ENDBRANCH  17  18
ENDBRANCH   4  17
TORSDOF 6
ENDMDL
MODEL 4
REMARK VINA RESULT:    -7.965      2.822      3.554
REMARK INTER + INTRA:         -10.882
REMARK INTER:                 -10.124
REMARK INTRA:                  -0.757
REMARK UNBOUND:                -0.123
REMARK  Name = 
REMARK  8 active torsions:
REMARK  status: ('A' for Active; 'I' for Inactive)
REMARK    1  A    between atoms: C_1  and  C_2
REMARK    2  A    between atoms: C_6  and  C_7
REMARK    3  A    between atoms: C_7  and  N_8
REMARK    4  A    between atoms: N_8  and  C_9
REMARK    5  A    between atoms: C_12  and  C_13
REMARK    6  A    between atoms: C_13  and  N_14
REMARK    7  A    between atoms: N_14  and  C_15
REMARK    8  A    between atoms: C_16  and  C_18
REMARK                            x       y       z     vdW  Elec       q    Type
REMARK                         _______ _______ _______ _____ _____    ______ ____
ROOT
ATOM      1  C   UNL     1      45.253   5.208  11.738  0.00  0.00    +0.000 A 
ATOM      2  C   UNL     1      45.801   6.378  11.201  0.00  0.00    +0.000 A 
ATOM      3  C   UNL     1      46.904   7.010  11.797  0.00  0.00    +0.000 A 
ATOM      4  C   UNL     1      47.501   6.471  12.944  0.00  0.00    +0.000 A 
ATOM      5  C   UNL     1      46.873   5.386  13.559  0.00  0.00    +0.000 A 
ATOM      6  C   UNL     1      45.754   4.782  12.976  0.00  0.00    +0.000 A 
ENDROOT
BRANCH   1   7
ATOM      7  N   UNL     1      44.152   4.599  11.108  0.00  0.00    +0.000 N 
ATOM      8  H   UNL     1      43.852   5.148  10.304  0.00  0.00    +0.000 HD
BRANCH   7   9
ATOM      9  C   UNL     1      44.292   3.187  10.719  0.00  0.00    +0.000 C 
BRANCH   9  15
ATOM     10  C   UNL     1      46.753   0.266   7.674  0.00  0.00    +0.000 C 
ATOM     11  C   UNL     1      46.251   1.647   7.971  0.00  0.00    +0.000 A 
ATOM     12  C   UNL     1      46.483   2.698   7.090  0.00  0.00    +0.000 A 
ATOM     13  C   UNL     1      45.991   3.959   7.410  0.00  0.00    +0.000 A 
ATOM     14  C   UNL     1      45.283   4.136   8.597  0.00  0.00    +0.000 A 
ATOM     15  C   UNL     1      45.090   3.040   9.435  0.00  0.00    +0.000 A 
ATOM     16  N   UNL     1      45.567   1.804   9.131  0.00  0.00    +0.000 NA
ENDBRANCH   9  15
ENDBRANCH   7   9
ENDBRANCH   1   7
BRANCH   4  17
ATOM     17  C   UNL     1      48.825   6.995  13.455  0.00  0.00    +0.000 C 
BRANCH  17  18
ATOM     18  N   UNL     1      48.760   7.608  14.776  0.00  0.00    +0.000 N 
ATOM     19  C   UNL     1      47.760   8.645  14.973  0.00  0.00    +0.000 C 
ATOM     20  C   UNL     1      49.580   7.069  15.772  0.00  0.00    +0.000 C 
ATOM     21  O   UNL     1      50.393   6.184  15.524  0.00  0.00    +0.000 OA
BRANCH  20  22
ATOM     22  C   UNL     1      49.417   7.530  17.160  0.00  0.00    +0.000 A 
ATOM     23  C   UNL     1      49.880   8.739  17.664  0.00  0.00    +0.000 A 
ATOM     24  S   UNL     1      49.477   9.005  19.297  0.00  0.00    +0.000 S 
ATOM     25  C   UNL     1      48.537   7.596  19.337  0.00  0.00    +0.000 A 
ATOM     26  N   UNL     1      47.786   7.297  20.434  0.00  0.00    +0.000 NA
ATOM     27  C   UNL     1      47.076   6.229  20.301  0.00  0.00    +0.000 A 
ATOM     28  N   UNL     1      47.086   5.409  19.203  0.00  0.00    +0.000 N 
ATOM     29  C   UNL     1      47.922   5.600  18.128  0.00  0.00    +0.000 A 
ATOM     30  O   UNL     1      48.063   4.723  17.279  0.00  0.00    +0.000 OA
ATOM     31  C   UNL     1      48.636   6.865  18.172  0.00  0.00    +0.000 A 
ATOM     32  H   UNL     1      46.563   4.541  19.198  0.00  0.00    +0.000 HD
ENDBRANCH  20  22
ENDBRANCH  17  18
ENDBRANCH   4  17
TORSDOF 6
ENDMDL
MODEL 5
REMARK VINA RESULT:    -7.876      4.759      5.658
REMARK INTER + INTRA:         -10.761
REMARK INTER:                  -9.800
REMARK INTRA:                  -0.961
REMARK UNBOUND:                -0.123
REMARK  Name = 
REMARK  8 active torsions:
REMARK  status: ('A' for Active; 'I' for Inactive)
REMARK    1  A    between atoms: C_1  and  C_2
REMARK    2  A    between atoms: C_6  and  C_7
REMARK    3  A    between atoms: C_7  and  N_8
REMARK    4  A    between atoms: N_8  and  C_9
REMARK    5  A    between atoms: C_12  and  C_13
REMARK    6  A    between atoms: C_13  and  N_14
REMARK    7  A    between atoms: N_14  and  C_15
REMARK    8  A    between atoms: C_16  and  C_18
REMARK                            x       y       z     vdW  Elec       q    Type
REMARK                         _______ _______ _______ _____ _____    ______ ____
ROOT
ATOM      1  C   UNL     1      45.247   4.568  11.711  0.00  0.00    +0.000 A 
ATOM      2  C   UNL     1      45.973   4.761  12.892  0.00  0.00    +0.000 A 
ATOM      3  C   UNL     1      46.262   6.049  13.370  0.00  0.00    +0.000 A 
ATOM      4  C   UNL     1      45.813   7.183  12.682  0.00  0.00    +0.000 A 
ATOM      5  C   UNL     1      45.211   6.996  11.436  0.00  0.00    +0.000 A 
ATOM      6  C   UNL     1      44.956   5.709  10.951  0.00  0.00    +0.000 A 
ENDROOT
BRANCH   1   7
ATOM      7  N   UNL     1      44.970   3.262  11.267  0.00  0.00    +0.000 N 
ATOM      8  H   UNL     1      44.470   2.740  11.984  0.00  0.00    +0.000 HD
BRANCH   7   9
ATOM      9  C   UNL     1      44.277   3.119   9.977  0.00  0.00    +0.000 C 
BRANCH   9  15
ATOM     10  C   UNL     1      46.846  -0.306   7.626  0.00  0.00    +0.000 C 
ATOM     11  C   UNL     1      46.461   1.140   7.725  0.00  0.00    +0.000 A 
ATOM     12  C   UNL     1      46.945   2.073   6.815  0.00  0.00    +0.000 A 
ATOM     13  C   UNL     1      46.553   3.401   6.948  0.00  0.00    +0.000 A 
ATOM     14  C   UNL     1      45.691   3.759   7.982  0.00  0.00    +0.000 A 
ATOM     15  C   UNL     1      45.246   2.773   8.860  0.00  0.00    +0.000 A 
ATOM     16  N   UNL     1      45.624   1.473   8.738  0.00  0.00    +0.000 NA
ENDBRANCH   9  15
ENDBRANCH   7   9
ENDBRANCH   1   7
BRANCH   4  17
ATOM     17  C   UNL     1      45.903   8.560  13.302  0.00  0.00    +0.000 C 
BRANCH  17  18
ATOM     18  N   UNL     1      47.253   9.105  13.363  0.00  0.00    +0.000 N 
ATOM     19  C   UNL     1      48.102   8.642  14.449  0.00  0.00    +0.000 C 
ATOM     20  C   UNL     1      47.657   9.935  12.312  0.00  0.00    +0.000 C 
ATOM     21  O   UNL     1      46.877  10.271  11.426  0.00  0.00    +0.000 OA
BRANCH  20  22
ATOM     22  C   UNL     1      49.064  10.359  12.234  0.00  0.00    +0.000 A 
ATOM     23  C   UNL     1      49.549  11.604  12.613  0.00  0.00    +0.000 A 
ATOM     24  S   UNL     1      51.237  11.763  12.460  0.00  0.00    +0.000 S 
ATOM     25  C   UNL     1      51.393  10.129  12.040  0.00  0.00    +0.000 A 
ATOM     26  N   UNL     1      52.626   9.565  11.899  0.00  0.00    +0.000 NA
ATOM     27  C   UNL     1      52.594   8.303  11.638  0.00  0.00    +0.000 A 
ATOM     28  N   UNL     1      51.452   7.567  11.454  0.00  0.00    +0.000 N 
ATOM     29  C   UNL     1      50.192   8.117  11.459  0.00  0.00    +0.000 A 
ATOM     30  O   UNL     1      49.224   7.472  11.065  0.00  0.00    +0.000 OA
ATOM     31  C   UNL     1      50.172   9.506  11.888  0.00  0.00    +0.000 A 
ATOM     32  H   UNL     1      51.501   6.595  11.173  0.00  0.00    +0.000 HD
ENDBRANCH  20  22
ENDBRANCH  17  18
ENDBRANCH   4  17
TORSDOF 6
ENDMDL
MODEL 6
REMARK VINA RESULT:    -7.833      2.388      3.684
REMARK INTER + INTRA:         -10.704
REMARK INTER:                  -9.572
REMARK INTRA:                  -1.132
REMARK UNBOUND:                -0.123
REMARK  Name = 
REMARK  8 active torsions:
REMARK  status: ('A' for Active; 'I' for Inactive)
REMARK    1  A    between atoms: C_1  and  C_2
REMARK    2  A    between atoms: C_6  and  C_7
REMARK    3  A    between atoms: C_7  and  N_8
REMARK    4  A    between atoms: N_8  and  C_9
REMARK    5  A    between atoms: C_12  and  C_13
REMARK    6  A    between atoms: C_13  and  N_14
REMARK    7  A    between atoms: N_14  and  C_15
REMARK    8  A    between atoms: C_16  and  C_18
REMARK                            x       y       z     vdW  Elec       q    Type
REMARK                         _______ _______ _______ _____ _____    ______ ____
ROOT
ATOM      1  C   UNL     1      45.693   7.351  11.726  0.00  0.00    +0.000 A 
ATOM      2  C   UNL     1      47.032   6.949  11.644  0.00  0.00    +0.000 A 
ATOM      3  C   UNL     1      48.028   7.561  12.421  0.00  0.00    +0.000 A 
ATOM      4  C   UNL     1      47.704   8.586  13.319  0.00  0.00    +0.000 A 
ATOM      5  C   UNL     1      46.398   9.081  13.303  0.00  0.00    +0.000 A 
ATOM      6  C   UNL     1      45.418   8.487  12.500  0.00  0.00    +0.000 A 
ENDROOT
BRANCH   1   7
ATOM      7  N   UNL     1      44.721   6.709  10.938  0.00  0.00    +0.000 N 
ATOM      8  H   UNL     1      45.025   6.661   9.967  0.00  0.00    +0.000 HD
BRANCH   7   9
ATOM      9  C   UNL     1      44.260   5.384  11.379  0.00  0.00    +0.000 C 
BRANCH   9  15
ATOM     10  C   UNL     1      46.587   4.141   7.268  0.00  0.00    +0.000 C 
ATOM     11  C   UNL     1      45.701   3.710   8.397  0.00  0.00    +0.000 A 
ATOM     12  C   UNL     1      45.247   2.399   8.492  0.00  0.00    +0.000 A 
ATOM     13  C   UNL     1      44.431   2.051   9.563  0.00  0.00    +0.000 A 
ATOM     14  C   UNL     1      44.092   3.017  10.508  0.00  0.00    +0.000 A 
ATOM     15  C   UNL     1      44.579   4.313  10.350  0.00  0.00    +0.000 A 
ATOM     16  N   UNL     1      45.377   4.663   9.306  0.00  0.00    +0.000 NA
ENDBRANCH   9  15
ENDBRANCH   7   9
ENDBRANCH   1   7
BRANCH   4  17
ATOM     17  C   UNL     1      48.712   9.086  14.331  0.00  0.00    +0.000 C 
BRANCH  17  18
ATOM     18  N   UNL     1      48.817   8.266  15.531  0.00  0.00    +0.000 N 
ATOM     19  C   UNL     1      47.885   8.553  16.609  0.00  0.00    +0.000 C 
ATOM     20  C   UNL     1      49.723   7.201  15.500  0.00  0.00    +0.000 C 
ATOM     21  O   UNL     1      50.470   7.022  14.544  0.00  0.00    +0.000 OA
BRANCH  20  22
ATOM     22  C   UNL     1      49.734   6.238  16.613  0.00  0.00    +0.000 A 
ATOM     23  C   UNL     1      50.520   6.338  17.754  0.00  0.00    +0.000 A 
ATOM     24  S   UNL     1      50.254   5.094  18.886  0.00  0.00    +0.000 S 
ATOM     25  C   UNL     1      48.971   4.477  17.968  0.00  0.00    +0.000 A 
ATOM     26  N   UNL     1      48.201   3.461  18.451  0.00  0.00    +0.000 NA
ATOM     27  C   UNL     1      47.226   3.135  17.673  0.00  0.00    +0.000 A 
ATOM     28  N   UNL     1      46.981   3.689  16.443  0.00  0.00    +0.000 N 
ATOM     29  C   UNL     1      47.804   4.624  15.860  0.00  0.00    +0.000 A 
ATOM     30  O   UNL     1      47.677   4.919  14.675  0.00  0.00    +0.000 OA
ATOM     31  C   UNL     1      48.833   5.122  16.757  0.00  0.00    +0.000 A 
ATOM     32  H   UNL     1      46.243   3.328  15.850  0.00  0.00    +0.000 HD
ENDBRANCH  20  22
ENDBRANCH  17  18
ENDBRANCH   4  17
TORSDOF 6
ENDMDL
MODEL 7
REMARK VINA RESULT:    -7.813      4.525      5.551
REMARK INTER + INTRA:         -10.676
REMARK INTER:                  -9.743
REMARK INTRA:                  -0.933
REMARK UNBOUND:                -0.123
REMARK  Name = 
REMARK  8 active torsions:
REMARK  status: ('A' for Active; 'I' for Inactive)
REMARK    1  A    between atoms: C_1  and  C_2
REMARK    2  A    between atoms: C_6  and  C_7
REMARK    3  A    between atoms: C_7  and  N_8
REMARK    4  A    between atoms: N_8  and  C_9
REMARK    5  A    between atoms: C_12  and  C_13
REMARK    6  A    between atoms: C_13  and  N_14
REMARK    7  A    between atoms: N_14  and  C_15
REMARK    8  A    between atoms: C_16  and  C_18
REMARK                            x       y       z     vdW  Elec       q    Type
REMARK                         _______ _______ _______ _____ _____    ______ ____
ROOT
ATOM      1  C   UNL     1      45.156   4.138  11.518  0.00  0.00    +0.000 A 
ATOM      2  C   UNL     1      45.007   5.396  10.923  0.00  0.00    +0.000 A 
ATOM      3  C   UNL     1      45.452   6.564  11.561  0.00  0.00    +0.000 A 
ATOM      4  C   UNL     1      46.077   6.500  12.813  0.00  0.00    +0.000 A 
ATOM      5  C   UNL     1      46.102   5.267  13.469  0.00  0.00    +0.000 A 
ATOM      6  C   UNL     1      45.627   4.112  12.838  0.00  0.00    +0.000 A 
ENDROOT
BRANCH   1   7
ATOM      7  N   UNL     1      44.706   2.988  10.844  0.00  0.00    +0.000 N 
ATOM      8  H   UNL     1      43.937   2.554  11.353  0.00  0.00    +0.000 HD
BRANCH   7   9
ATOM      9  C   UNL     1      44.341   3.135   9.427  0.00  0.00    +0.000 C 
BRANCH   9  15
ATOM     10  C   UNL     1      46.880  -0.655   7.679  0.00  0.00    +0.000 C 
ATOM     11  C   UNL     1      46.650   0.826   7.664  0.00  0.00    +0.000 A 
ATOM     12  C   UNL     1      47.388   1.658   6.829  0.00  0.00    +0.000 A 
ATOM     13  C   UNL     1      47.131   3.025   6.850  0.00  0.00    +0.000 A 
ATOM     14  C   UNL     1      46.147   3.522   7.701  0.00  0.00    +0.000 A 
ATOM     15  C   UNL     1      45.447   2.633   8.513  0.00  0.00    +0.000 A 
ATOM     16  N   UNL     1      45.691   1.296   8.500  0.00  0.00    +0.000 NA
ENDBRANCH   9  15
ENDBRANCH   7   9
ENDBRANCH   1   7
BRANCH   4  17
ATOM     17  C   UNL     1      46.773   7.707  13.402  0.00  0.00    +0.000 C 
BRANCH  17  18
ATOM     18  N   UNL     1      47.925   8.169  12.637  0.00  0.00    +0.000 N 
ATOM     19  C   UNL     1      47.733   9.346  11.804  0.00  0.00    +0.000 C 
ATOM     20  C   UNL     1      49.142   7.517  12.857  0.00  0.00    +0.000 C 
ATOM     21  O   UNL     1      49.220   6.534  13.586  0.00  0.00    +0.000 OA
BRANCH  20  22
ATOM     22  C   UNL     1      50.366   8.064  12.250  0.00  0.00    +0.000 A 
ATOM     23  C   UNL     1      50.898   7.675  11.027  0.00  0.00    +0.000 A 
ATOM     24  S   UNL     1      52.291   8.542  10.573  0.00  0.00    +0.000 S 
ATOM     25  C   UNL     1      52.136   9.570  11.911  0.00  0.00    +0.000 A 
ATOM     26  N   UNL     1      52.955  10.651  12.052  0.00  0.00    +0.000 NA
ATOM     27  C   UNL     1      52.684  11.377  13.082  0.00  0.00    +0.000 A 
ATOM     28  N   UNL     1      51.712  11.097  14.008  0.00  0.00    +0.000 N 
ATOM     29  C   UNL     1      50.949   9.953  13.977  0.00  0.00    +0.000 A 
ATOM     30  O   UNL     1      50.259   9.634  14.942  0.00  0.00    +0.000 OA
ATOM     31  C   UNL     1      51.122   9.179  12.760  0.00  0.00    +0.000 A 
ATOM     32  H   UNL     1      51.606  11.669  14.838  0.00  0.00    +0.000 HD
ENDBRANCH  20  22
ENDBRANCH  17  18
ENDBRANCH   4  17
TORSDOF 6
ENDMDL
MODEL 8
REMARK VINA RESULT:    -7.665      3.125      4.107
REMARK INTER + INTRA:         -10.476
REMARK INTER:                  -9.384
REMARK INTRA:                  -1.092
REMARK UNBOUND:                -0.123
REMARK  Name = 
REMARK  8 active torsions:
REMARK  status: ('A' for Active; 'I' for Inactive)
REMARK    1  A    between atoms: C_1  and  C_2
REMARK    2  A    between atoms: C_6  and  C_7
REMARK    3  A    between atoms: C_7  and  N_8
REMARK    4  A    between atoms: N_8  and  C_9
REMARK    5  A    between atoms: C_12  and  C_13
REMARK    6  A    between atoms: C_13  and  N_14
REMARK    7  A    between atoms: N_14  and  C_15
REMARK    8  A    between atoms: C_16  and  C_18
REMARK                            x       y       z     vdW  Elec       q    Type
REMARK                         _______ _______ _______ _____ _____    ______ ____
ROOT
ATOM      1  C   UNL     1      44.952   6.320  12.907  0.00  0.00    +0.000 A 
ATOM      2  C   UNL     1      45.859   5.400  13.447  0.00  0.00    +0.000 A 
ATOM      3  C   UNL     1      47.194   5.752  13.698  0.00  0.00    +0.000 A 
ATOM      4  C   UNL     1      47.654   7.048  13.430  0.00  0.00    +0.000 A 
ATOM      5  C   UNL     1      46.791   7.923  12.766  0.00  0.00    +0.000 A 
ATOM      6  C   UNL     1      45.471   7.553  12.490  0.00  0.00    +0.000 A 
ENDROOT
BRANCH   1   7
ATOM      7  N   UNL     1      43.619   5.933  12.677  0.00  0.00    +0.000 N 
ATOM      8  H   UNL     1      42.978   6.534  13.192  0.00  0.00    +0.000 HD
BRANCH   7   9
ATOM      9  C   UNL     1      43.179   5.825  11.277  0.00  0.00    +0.000 C 
BRANCH   9  15
ATOM     10  C   UNL     1      45.852   3.888   7.677  0.00  0.00    +0.000 C 
ATOM     11  C   UNL     1      45.027   3.652   8.906  0.00  0.00    +0.000 A 
ATOM     12  C   UNL     1      44.836   2.367   9.404  0.00  0.00    +0.000 A 
ATOM     13  C   UNL     1      44.066   2.203  10.551  0.00  0.00    +0.000 A 
ATOM     14  C   UNL     1      43.510   3.322  11.167  0.00  0.00    +0.000 A 
ATOM     15  C   UNL     1      43.739   4.579  10.612  0.00  0.00    +0.000 A 
ATOM     16  N   UNL     1      44.490   4.750   9.492  0.00  0.00    +0.000 NA
ENDBRANCH   9  15
ENDBRANCH   7   9
ENDBRANCH   1   7
BRANCH   4  17
ATOM     17  C   UNL     1      49.009   7.512  13.915  0.00  0.00    +0.000 C 
BRANCH  17  18
ATOM     18  N   UNL     1      49.044   7.908  15.317  0.00  0.00    +0.000 N 
ATOM     19  C   UNL     1      48.219   9.042  15.702  0.00  0.00    +0.000 C 
ATOM     20  C   UNL     1      49.772   7.096  16.193  0.00  0.00    +0.000 C 
ATOM     21  O   UNL     1      50.436   6.149  15.786  0.00  0.00    +0.000 OA
BRANCH  20  22
ATOM     22  C   UNL     1      49.686   7.348  17.641  0.00  0.00    +0.000 A 
ATOM     23  C   UNL     1      50.374   8.343  18.324  0.00  0.00    +0.000 A 
ATOM     24  S   UNL     1      50.011   8.415  19.986  0.00  0.00    +0.000 S 
ATOM     25  C   UNL     1      48.808   7.234  19.816  0.00  0.00    +0.000 A 
ATOM     26  N   UNL     1      47.998   6.916  20.865  0.00  0.00    +0.000 NA
ATOM     27  C   UNL     1      47.091   6.046  20.575  0.00  0.00    +0.000 A 
ATOM     28  N   UNL     1      46.952   5.430  19.358  0.00  0.00    +0.000 N 
ATOM     29  C   UNL     1      47.823   5.624  18.312  0.00  0.00    +0.000 A 
ATOM     30  O   UNL     1      47.797   4.887  17.330  0.00  0.00    +0.000 OA
ATOM     31  C   UNL     1      48.774   6.697  18.546  0.00  0.00    +0.000 A 
ATOM     32  H   UNL     1      46.266   4.697  19.223  0.00  0.00    +0.000 HD
ENDBRANCH  20  22
ENDBRANCH  17  18
ENDBRANCH   4  17
TORSDOF 6
ENDMDL
MODEL 9
REMARK VINA RESULT:    -7.428      2.253      3.672
REMARK INTER + INTRA:         -10.157
REMARK INTER:                  -9.205
REMARK INTRA:                  -0.951
REMARK UNBOUND:                -0.123
REMARK  Name = 
REMARK  8 active torsions:
REMARK  status: ('A' for Active; 'I' for Inactive)
REMARK    1  A    between atoms: C_1  and  C_2
REMARK    2  A    between atoms: C_6  and  C_7
REMARK    3  A    between atoms: C_7  and  N_8
REMARK    4  A    between atoms: N_8  and  C_9
REMARK    5  A    between atoms: C_12  and  C_13
REMARK    6  A    between atoms: C_13  and  N_14
REMARK    7  A    between atoms: N_14  and  C_15
REMARK    8  A    between atoms: C_16  and  C_18
REMARK                            x       y       z     vdW  Elec       q    Type
REMARK                         _______ _______ _______ _____ _____    ______ ____
ROOT
ATOM      1  C   UNL     1      47.353   6.692  12.715  0.00  0.00    +0.000 A 
ATOM      2  C   UNL     1      47.660   7.978  13.174  0.00  0.00    +0.000 A 
ATOM      3  C   UNL     1      48.167   8.191  14.466  0.00  0.00    +0.000 A 
ATOM      4  C   UNL     1      48.398   7.113  15.329  0.00  0.00    +0.000 A 
ATOM      5  C   UNL     1      47.965   5.848  14.926  0.00  0.00    +0.000 A 
ATOM      6  C   UNL     1      47.430   5.649  13.648  0.00  0.00    +0.000 A 
ENDROOT
BRANCH   1   7
ATOM      7  N   UNL     1      46.854   6.516  11.411  0.00  0.00    +0.000 N 
ATOM      8  H   UNL     1      47.171   5.629  11.024  0.00  0.00    +0.000 HD
BRANCH   7   9
ATOM      9  C   UNL     1      45.402   6.650  11.220  0.00  0.00    +0.000 C 
BRANCH   9  15
ATOM     10  C   UNL     1      44.645   2.211   9.328  0.00  0.00    +0.000 C 
ATOM     11  C   UNL     1      44.350   3.181  10.432  0.00  0.00    +0.000 A 
ATOM     12  C   UNL     1      43.516   2.831  11.488  0.00  0.00    +0.000 A 
ATOM     13  C   UNL     1      43.279   3.767  12.490  0.00  0.00    +0.000 A 
ATOM     14  C   UNL     1      43.879   5.021  12.410  0.00  0.00    +0.000 A 
ATOM     15  C   UNL     1      44.701   5.306  11.322  0.00  0.00    +0.000 A 
ATOM     16  N   UNL     1      44.939   4.399  10.338  0.00  0.00    +0.000 NA
ENDBRANCH   9  15
ENDBRANCH   7   9
ENDBRANCH   1   7
BRANCH   4  17
ATOM     17  C   UNL     1      49.164   7.296  16.621  0.00  0.00    +0.000 C 
BRANCH  17  18
ATOM     18  N   UNL     1      50.331   6.434  16.756  0.00  0.00    +0.000 N 
ATOM     19  C   UNL     1      51.492   6.766  15.946  0.00  0.00    +0.000 C 
ATOM     20  C   UNL     1      50.280   5.436  17.734  0.00  0.00    +0.000 C 
ATOM     21  O   UNL     1      49.260   5.227  18.384  0.00  0.00    +0.000 OA
BRANCH  20  22
ATOM     22  C   UNL     1      51.496   4.663  18.033  0.00  0.00    +0.000 A 
ATOM     23  C   UNL     1      52.610   5.149  18.705  0.00  0.00    +0.000 A 
ATOM     24  S   UNL     1      53.830   3.986  18.948  0.00  0.00    +0.000 S 
ATOM     25  C   UNL     1      52.847   2.762  18.312  0.00  0.00    +0.000 A 
ATOM     26  N   UNL     1      53.250   1.460  18.351  0.00  0.00    +0.000 NA
ATOM     27  C   UNL     1      52.376   0.633  17.887  0.00  0.00    +0.000 A 
ATOM     28  N   UNL     1      51.169   0.986  17.343  0.00  0.00    +0.000 N 
ATOM     29  C   UNL     1      50.776   2.292  17.165  0.00  0.00    +0.000 A 
ATOM     30  O   UNL     1      49.799   2.564  16.471  0.00  0.00    +0.000 OA
ATOM     31  C   UNL     1      51.663   3.251  17.799  0.00  0.00    +0.000 A 
ATOM     32  H   UNL     1      50.565   0.289  16.923  0.00  0.00    +0.000 HD
ENDBRANCH  20  22
ENDBRANCH  17  18
ENDBRANCH   4  17
TORSDOF 6
ENDMDL
