MODEL 1
REMARK VINA RESULT:    -7.622      0.000      0.000
REMARK INTER + INTRA:         -12.149
REMARK INTER:                 -10.742
REMARK INTRA:                  -1.407
REMARK UNBOUND:                -1.407
REMARK  Name = 
REMARK  8 active torsions:
REMARK  status: ('A' for Active; 'I' for Inactive)
REMARK    1  A    between atoms: C_1  and  N_2
REMARK    2  A    between atoms: N_2  and  C_3
REMARK    3  A    between atoms: C_3  and  C_4
REMARK    4  A    between atoms: C_8  and  C_9
REMARK    5  A    between atoms: C_9  and  N_10
REMARK    6  A    between atoms: N_10  and  C_11
REMARK    7  A    between atoms: C_11  and  C_12
REMARK    8  A    between atoms: C_19  and  C_21
REMARK                            x       y       z     vdW  Elec       q    Type
REMARK                         _______ _______ _______ _____ _____    ______ ____
ROOT
ATOM      1  C   UNL     1      47.519   7.718  13.407  0.00  0.00    +0.000 C 
ENDROOT
BRANCH   1   2
ATOM      2  C   UNL     1      46.814   6.432  13.074  0.00  0.00    +0.000 A 
ATOM      3  C   UNL     1      47.105   5.249  13.757  0.00  0.00    +0.000 A 
ATOM      4  C   UNL     1      46.380   4.090  13.483  0.00  0.00    +0.000 A 
ATOM      5  C   UNL     1      45.343   4.108  12.544  0.00  0.00    +0.000 A 
ATOM      6  C   UNL     1      45.034   5.282  11.846  0.00  0.00    +0.000 A 
ATOM      7  C   UNL     1      45.792   6.432  12.109  0.00  0.00    +0.000 A 
BRANCH   6   8
ATOM      8  C   UNL     1      43.837   5.347  10.920  0.00  0.00    +0.000 C 
BRANCH   8   9
ATOM      9  N   UNL     1      44.000   4.440   9.785  0.00  0.00    +0.000 NA
ATOM     10  H   UNL     1      43.171   4.531   9.199  0.00  0.00    +0.000 HD
BRANCH   9  11
ATOM     11  C   UNL     1      45.199   4.718   9.000  0.00  0.00    +0.000 C 
BRANCH  11  12
ATOM     12  C   UNL     1      45.534   3.529   8.070  0.00  0.00    +0.000 C 
ATOM     13  C   UNL     1      45.772   2.258   8.905  0.00  0.00    +0.000 C 
ATOM     14  C   UNL     1      46.170   1.063   8.040  0.00  0.00    +0.000 C 
ATOM     15  C   UNL     1      47.379   1.379   7.167  0.00  0.00    +0.000 C 
ATOM     16  C   UNL     1      47.130   2.612   6.311  0.00  0.00    +0.000 C 
ATOM     17  C   UNL     1      46.747   3.816   7.164  0.00  0.00    +0.000 C 
ENDBRANCH  11  12
ENDBRANCH   9  11
ENDBRANCH   8   9
ENDBRANCH   6   8
ENDBRANCH   1   2
BRANCH   1  19
ATOM     18  C   UNL     1      49.697   7.246  12.176  0.00  0.00    +0.000 C 
ATOM     19  N   UNL     1      48.987   7.696  13.370  0.00  0.00    +0.000 N 
ATOM     20  C   UNL     1      49.807   8.044  14.456  0.00  0.00    +0.000 C 
ATOM     21  O   UNL     1      51.034   8.001  14.362  0.00  0.00    +0.000 OA
BRANCH  20  22
ATOM     22  C   UNL     1      49.202   8.432  15.735  0.00  0.00    +0.000 A 
ATOM     23  C   UNL     1      48.760   9.708  16.048  0.00  0.00    +0.000 A 
ATOM     24  S   UNL     1      48.027   9.818  17.587  0.00  0.00    +0.000 S 
ATOM     25  C   UNL     1      48.141   8.137  17.819  0.00  0.00    +0.000 A 
ATOM     26  N   UNL     1      47.593   7.540  18.909  0.00  0.00    +0.000 NA
ATOM     27  C   UNL     1      47.695   6.251  18.913  0.00  0.00    +0.000 A 
ATOM     28  N   UNL     1      48.333   5.513  17.947  0.00  0.00    +0.000 N 
ATOM     29  C   UNL     1      49.023   6.087  16.898  0.00  0.00    +0.000 A 
ATOM     30  O   UNL     1      49.776   5.421  16.197  0.00  0.00    +0.000 OA
ATOM     31  C   UNL     1      48.823   7.519  16.788  0.00  0.00    +0.000 A 
ATOM     32  H   UNL     1      48.437   4.515  18.047  0.00  0.00    +0.000 HD
ENDBRANCH  20  22
ENDBRANCH   1  19
TORSDOF 7
ENDMDL
MODEL 2
REMARK VINA RESULT:    -7.466      2.395      3.568
REMARK INTER + INTRA:         -11.928
REMARK INTER:                 -10.382
REMARK INTRA:                  -1.546
REMARK UNBOUND:                -1.407
REMARK  Name = 
REMARK  8 active torsions:
REMARK  status: ('A' for Active; 'I' for Inactive)
REMARK    1  A    between atoms: C_1  and  N_2
REMARK    2  A    between atoms: N_2  and  C_3
REMARK    3  A    between atoms: C_3  and  C_4
REMARK    4  A    between atoms: C_8  and  C_9
REMARK    5  A    between atoms: C_9  and  N_10
REMARK    6  A    between atoms: N_10  and  C_11
REMARK    7  A    between atoms: C_11  and  C_12
REMARK    8  A    between atoms: C_19  and  C_21
REMARK                            x       y       z     vdW  Elec       q    Type
REMARK                         _______ _______ _______ _____ _____    ______ ____
ROOT
ATOM      1  C   UNL     1      49.073   6.647  14.808  0.00  0.00    +0.000 C 
ENDROOT
BRANCH   1   2
ATOM      2  C   UNL     1      48.006   6.594  13.750  0.00  0.00    +0.000 A 
ATOM      3  C   UNL     1      47.887   7.603  12.791  0.00  0.00    +0.000 A 
ATOM      4  C   UNL     1      46.942   7.489  11.773  0.00  0.00    +0.000 A 
ATOM      5  C   UNL     1      46.126   6.357  11.688  0.00  0.00    +0.000 A 
ATOM      6  C   UNL     1      46.226   5.333  12.637  0.00  0.00    +0.000 A 
ATOM      7  C   UNL     1      47.160   5.475  13.673  0.00  0.00    +0.000 A 
BRANCH   6   8
ATOM      8  C   UNL     1      45.437   4.048  12.486  0.00  0.00    +0.000 C 
BRANCH   8   9
ATOM      9  N   UNL     1      44.179   4.284  11.779  0.00  0.00    +0.000 NA
ATOM     10  H   UNL     1      44.228   5.217  11.371  0.00  0.00    +0.000 HD
BRANCH   9  11
ATOM     11  C   UNL     1      43.917   3.296  10.737  0.00  0.00    +0.000 C 
BRANCH  11  12
ATOM     12  C   UNL     1      45.130   3.166   9.787  0.00  0.00    +0.000 C 
ATOM     13  C   UNL     1      45.132   4.323   8.772  0.00  0.00    +0.000 C 
ATOM     14  C   UNL     1      46.275   4.210   7.766  0.00  0.00    +0.000 C 
ATOM     15  C   UNL     1      46.268   2.860   7.056  0.00  0.00    +0.000 C 
ATOM     16  C   UNL     1      46.308   1.715   8.058  0.00  0.00    +0.000 C 
ATOM     17  C   UNL     1      45.161   1.808   9.058  0.00  0.00    +0.000 C 
ENDBRANCH  11  12
ENDBRANCH   9  11
ENDBRANCH   8   9
ENDBRANCH   6   8
ENDBRANCH   1   2
BRANCH   1  19
ATOM     18  C   UNL     1      48.798   8.851  16.051  0.00  0.00    +0.000 C 
ATOM     19  N   UNL     1      48.753   7.393  16.033  0.00  0.00    +0.000 N 
ATOM     20  C   UNL     1      48.437   6.790  17.261  0.00  0.00    +0.000 C 
ATOM     21  O   UNL     1      48.182   7.472  18.253  0.00  0.00    +0.000 OA
BRANCH  20  22
ATOM     22  C   UNL     1      48.443   5.327  17.382  0.00  0.00    +0.000 A 
ATOM     23  C   UNL     1      47.331   4.515  17.227  0.00  0.00    +0.000 A 
ATOM     24  S   UNL     1      47.683   2.848  17.347  0.00  0.00    +0.000 S 
ATOM     25  C   UNL     1      49.351   3.154  17.457  0.00  0.00    +0.000 A 
ATOM     26  N   UNL     1      50.252   2.138  17.474  0.00  0.00    +0.000 NA
ATOM     27  C   UNL     1      51.486   2.524  17.487  0.00  0.00    +0.000 A 
ATOM     28  N   UNL     1      51.896   3.834  17.526  0.00  0.00    +0.000 N 
ATOM     29  C   UNL     1      51.016   4.891  17.650  0.00  0.00    +0.000 A 
ATOM     30  O   UNL     1      51.416   6.017  17.923  0.00  0.00    +0.000 OA
ATOM     31  C   UNL     1      49.626   4.508  17.509  0.00  0.00    +0.000 A 
ATOM     32  H   UNL     1      52.873   4.065  17.604  0.00  0.00    +0.000 HD
ENDBRANCH  20  22
ENDBRANCH   1  19
TORSDOF 7
ENDMDL
MODEL 3
REMARK VINA RESULT:    -7.440      2.859      4.668
REMARK INTER + INTRA:         -11.892
REMARK INTER:                 -10.582
REMARK INTRA:                  -1.310
REMARK UNBOUND:                -1.407
REMARK  Name = 
REMARK  8 active torsions:
REMARK  status: ('A' for Active; 'I' for Inactive)
REMARK    1  A    between atoms: C_1  and  N_2
REMARK    2  A    between atoms: N_2  and  C_3
REMARK    3  A    between atoms: C_3  and  C_4
REMARK    4  A    between atoms: C_8  and  C_9
REMARK    5  A    between atoms: C_9  and  N_10
REMARK    6  A    between atoms: N_10  and  C_11
REMARK    7  A    between atoms: C_11  and  C_12
REMARK    8  A    between atoms: C_19  and  C_21
REMARK                            x       y       z     vdW  Elec       q    Type
REMARK                         _______ _______ _______ _____ _____    ______ ____
ROOT
ATOM      1  C   UNL     1      47.026   6.708  11.520  0.00  0.00    +0.000 C 
ENDROOT
BRANCH   1   2
ATOM      2  C   UNL     1      45.561   6.369  11.513  0.00  0.00    +0.000 A 
ATOM      3  C   UNL     1      44.589   7.361  11.372  0.00  0.00    +0.000 A 
ATOM      4  C   UNL     1      43.242   7.011  11.287  0.00  0.00    +0.000 A 
ATOM      5  C   UNL     1      42.857   5.666  11.317  0.00  0.00    +0.000 A 
ATOM      6  C   UNL     1      43.813   4.654  11.458  0.00  0.00    +0.000 A 
ATOM      7  C   UNL     1      45.161   5.023  11.573  0.00  0.00    +0.000 A 
BRANCH   6   8
ATOM      8  C   UNL     1      43.422   3.193  11.367  0.00  0.00    +0.000 C 
BRANCH   8   9
ATOM      9  N   UNL     1      44.522   2.386  10.843  0.00  0.00    +0.000 NA
ATOM     10  H   UNL     1      44.547   1.519  11.379  0.00  0.00    +0.000 HD
BRANCH   9  11
ATOM     11  C   UNL     1      44.386   2.091   9.421  0.00  0.00    +0.000 C 
BRANCH  11  12
ATOM     12  C   UNL     1      45.715   2.356   8.676  0.00  0.00    +0.000 C 
ATOM     13  C   UNL     1      45.530   3.492   7.655  0.00  0.00    +0.000 C 
ATOM     14  C   UNL     1      46.797   3.754   6.843  0.00  0.00    +0.000 C 
ATOM     15  C   UNL     1      47.304   2.486   6.165  0.00  0.00    +0.000 C 
ATOM     16  C   UNL     1      47.527   1.374   7.180  0.00  0.00    +0.000 C 
ATOM     17  C   UNL     1      46.264   1.092   7.986  0.00  0.00    +0.000 C 
ENDBRANCH  11  12
ENDBRANCH   9  11
ENDBRANCH   8   9
ENDBRANCH   6   8
ENDBRANCH   1   2
BRANCH   1  19
ATOM     18  C   UNL     1      47.642   5.802  13.818  0.00  0.00    +0.000 C 
ATOM     19  N   UNL     1      47.658   6.881  12.834  0.00  0.00    +0.000 N 
ATOM     20  C   UNL     1      48.267   8.071  13.264  0.00  0.00    +0.000 C 
ATOM     21  O   UNL     1      48.777   8.153  14.382  0.00  0.00    +0.000 OA
BRANCH  20  22
ATOM     22  C   UNL     1      48.271   9.249  12.389  0.00  0.00    +0.000 A 
ATOM     23  C   UNL     1      47.276  10.213  12.353  0.00  0.00    +0.000 A 
ATOM     24  S   UNL     1      47.614  11.503  11.287  0.00  0.00    +0.000 S 
ATOM     25  C   UNL     1      49.165  10.892  10.956  0.00  0.00    +0.000 A 
ATOM     26  N   UNL     1      50.043  11.584  10.184  0.00  0.00    +0.000 NA
ATOM     27  C   UNL     1      51.206  11.030  10.080  0.00  0.00    +0.000 A 
ATOM     28  N   UNL     1      51.555   9.827  10.643  0.00  0.00    +0.000 N 
ATOM     29  C   UNL     1      50.654   9.026  11.316  0.00  0.00    +0.000 A 
ATOM     30  O   UNL     1      50.928   7.865  11.594  0.00  0.00    +0.000 OA
ATOM     31  C   UNL     1      49.379   9.670  11.564  0.00  0.00    +0.000 A 
ATOM     32  H   UNL     1      52.459   9.419  10.465  0.00  0.00    +0.000 HD
ENDBRANCH  20  22
ENDBRANCH   1  19
TORSDOF 7
ENDMDL
MODEL 4
REMARK VINA RESULT:    -7.365      3.332      8.349
REMARK INTER + INTRA:         -11.786
REMARK INTER:                 -10.383
REMARK INTRA:                  -1.403
REMARK UNBOUND:                -1.407
REMARK  Name = 
REMARK  8 active torsions:
REMARK  status: ('A' for Active; 'I' for Inactive)
REMARK    1  A    between atoms: C_1  and  N_2
REMARK    2  A    between atoms: N_2  and  C_3
REMARK    3  A    between atoms: C_3  and  C_4
REMARK    4  A    between atoms: C_8  and  C_9
REMARK    5  A    between atoms: C_9  and  N_10
REMARK    6  A    between atoms: N_10  and  C_11
REMARK    7  A    between atoms: C_11  and  C_12
REMARK    8  A    between atoms: C_19  and  C_21
REMARK                            x       y       z     vdW  Elec       q    Type
REMARK                         _______ _______ _______ _____ _____    ______ ____
ROOT
ATOM      1  C   UNL     1      46.771   5.962  12.765  0.00  0.00    +0.000 C 
ENDROOT
BRANCH   1   2
ATOM      2  C   UNL     1      48.043   6.624  13.218  0.00  0.00    +0.000 A 
ATOM      3  C   UNL     1      48.943   7.168  12.299  0.00  0.00    +0.000 A 
ATOM      4  C   UNL     1      50.073   7.847  12.750  0.00  0.00    +0.000 A 
ATOM      5  C   UNL     1      50.303   8.011  14.120  0.00  0.00    +0.000 A 
ATOM      6  C   UNL     1      49.415   7.474  15.060  0.00  0.00    +0.000 A 
ATOM      7  C   UNL     1      48.298   6.767  14.592  0.00  0.00    +0.000 A 
BRANCH   6   8
ATOM      8  C   UNL     1      49.585   7.751  16.540  0.00  0.00    +0.000 C 
BRANCH   8   9
ATOM      9  N   UNL     1      48.483   7.179  17.311  0.00  0.00    +0.000 NA
ATOM     10  H   UNL     1      47.980   6.539  16.698  0.00  0.00    +0.000 HD
BRANCH   9  11
ATOM     11  C   UNL     1      48.930   6.475  18.509  0.00  0.00    +0.000 C 
BRANCH  11  12
ATOM     12  C   UNL     1      48.725   4.950  18.358  0.00  0.00    +0.000 C 
ATOM     13  C   UNL     1      49.941   4.322  17.653  0.00  0.00    +0.000 C 
ATOM     14  C   UNL     1      49.765   2.823  17.419  0.00  0.00    +0.000 C 
ATOM     15  C   UNL     1      48.476   2.519  16.662  0.00  0.00    +0.000 C 
ATOM     16  C   UNL     1      47.269   3.104  17.380  0.00  0.00    +0.000 C 
ATOM     17  C   UNL     1      47.425   4.604  17.605  0.00  0.00    +0.000 C 
ENDBRANCH  11  12
ENDBRANCH   9  11
ENDBRANCH   8   9
ENDBRANCH   6   8
ENDBRANCH   1   2
BRANCH   1  19
ATOM     18  C   UNL     1      45.733   8.282  12.617  0.00  0.00    +0.000 C 
ATOM     19  N   UNL     1      45.676   6.848  12.349  0.00  0.00    +0.000 N 
ATOM     20  C   UNL     1      44.498   6.404  11.726  0.00  0.00    +0.000 C 
ATOM     21  O   UNL     1      43.614   7.199  11.405  0.00  0.00    +0.000 OA
BRANCH  20  22
ATOM     22  C   UNL     1      44.295   4.972  11.481  0.00  0.00    +0.000 A 
ATOM     23  C   UNL     1      43.529   4.132  12.274  0.00  0.00    +0.000 A 
ATOM     24  S   UNL     1      43.422   2.537  11.675  0.00  0.00    +0.000 S 
ATOM     25  C   UNL     1      44.268   2.956  10.261  0.00  0.00    +0.000 A 
ATOM     26  N   UNL     1      44.435   2.062   9.251  0.00  0.00    +0.000 NA
ATOM     27  C   UNL     1      45.033   2.544   8.212  0.00  0.00    +0.000 A 
ATOM     28  N   UNL     1      45.516   3.825   8.110  0.00  0.00    +0.000 N 
ATOM     29  C   UNL     1      45.492   4.721   9.160  0.00  0.00    +0.000 A 
ATOM     30  O   UNL     1      46.139   5.761   9.117  0.00  0.00    +0.000 OA
ATOM     31  C   UNL     1      44.716   4.263  10.295  0.00  0.00    +0.000 A 
ATOM     32  H   UNL     1      46.034   4.116   7.296  0.00  0.00    +0.000 HD
ENDBRANCH  20  22
ENDBRANCH   1  19
TORSDOF 7
ENDMDL
MODEL 5
REMARK VINA RESULT:    -7.323      1.334      2.081
REMARK INTER + INTRA:         -11.727
REMARK INTER:                 -10.430
REMARK INTRA:                  -1.297
REMARK UNBOUND:                -1.407
REMARK  Name = 
REMARK  8 active torsions:
REMARK  status: ('A' for Active; 'I' for Inactive)
REMARK    1  A    between atoms: C_1  and  N_2
REMARK    2  A    between atoms: N_2  and  C_3
REMARK    3  A    between atoms: C_3  and  C_4
REMARK    4  A    between atoms: C_8  and  C_9
REMARK    5  A    between atoms: C_9  and  N_10
REMARK    6  A    between atoms: N_10  and  C_11
REMARK    7  A    between atoms: C_11  and  C_12
REMARK    8  A    between atoms: C_19  and  C_21
REMARK                            x       y       z     vdW  Elec       q    Type
REMARK                         _______ _______ _______ _____ _____    ______ ____
ROOT
ATOM      1  C   UNL     1      47.331   7.743  13.136  0.00  0.00    +0.000 C 
ENDROOT
BRANCH   1   2
ATOM      2  C   UNL     1      46.614   6.458  12.826  0.00  0.00    +0.000 A 
ATOM      3  C   UNL     1      46.900   5.283  13.526  0.00  0.00    +0.000 A 
ATOM      4  C   UNL     1      46.164   4.126  13.274  0.00  0.00    +0.000 A 
ATOM      5  C   UNL     1      45.122   4.137  12.341  0.00  0.00    +0.000 A 
ATOM      6  C   UNL     1      44.817   5.302  11.628  0.00  0.00    +0.000 A 
ATOM      7  C   UNL     1      45.586   6.451  11.869  0.00  0.00    +0.000 A 
BRANCH   6   8
ATOM      8  C   UNL     1      43.615   5.362  10.708  0.00  0.00    +0.000 C 
BRANCH   8   9
ATOM      9  N   UNL     1      43.804   4.506   9.538  0.00  0.00    +0.000 NA
ATOM     10  H   UNL     1      43.085   4.753   8.860  0.00  0.00    +0.000 HD
BRANCH   9  11
ATOM     11  C   UNL     1      45.127   4.645   8.938  0.00  0.00    +0.000 C 
BRANCH  11  12
ATOM     12  C   UNL     1      45.443   3.439   8.023  0.00  0.00    +0.000 C 
ATOM     13  C   UNL     1      45.781   2.204   8.877  0.00  0.00    +0.000 C 
ATOM     14  C   UNL     1      46.165   0.997   8.024  0.00  0.00    +0.000 C 
ATOM     15  C   UNL     1      47.302   1.326   7.063  0.00  0.00    +0.000 C 
ATOM     16  C   UNL     1      46.952   2.522   6.189  0.00  0.00    +0.000 C 
ATOM     17  C   UNL     1      46.583   3.739   7.030  0.00  0.00    +0.000 C 
ENDBRANCH  11  12
ENDBRANCH   9  11
ENDBRANCH   8   9
ENDBRANCH   6   8
ENDBRANCH   1   2
BRANCH   1  19
ATOM     18  C   UNL     1      49.440   7.672  11.712  0.00  0.00    +0.000 C 
ATOM     19  N   UNL     1      48.795   7.728  13.020  0.00  0.00    +0.000 N 
ATOM     20  C   UNL     1      49.670   7.716  14.118  0.00  0.00    +0.000 C 
ATOM     21  O   UNL     1      50.890   7.700  13.954  0.00  0.00    +0.000 OA
BRANCH  20  22
ATOM     22  C   UNL     1      49.132   7.687  15.483  0.00  0.00    +0.000 A 
ATOM     23  C   UNL     1      49.083   6.564  16.293  0.00  0.00    +0.000 A 
ATOM     24  S   UNL     1      48.476   6.876  17.858  0.00  0.00    +0.000 S 
ATOM     25  C   UNL     1      48.403   8.547  17.552  0.00  0.00    +0.000 A 
ATOM     26  N   UNL     1      48.062   9.426  18.531  0.00  0.00    +0.000 NA
ATOM     27  C   UNL     1      48.121  10.666  18.172  0.00  0.00    +0.000 A 
ATOM     28  N   UNL     1      48.448  11.102  16.911  0.00  0.00    +0.000 N 
ATOM     29  C   UNL     1      48.663  10.242  15.853  0.00  0.00    +0.000 A 
ATOM     30  O   UNL     1      48.714  10.658  14.701  0.00  0.00    +0.000 OA
ATOM     31  C   UNL     1      48.734   8.848  16.245  0.00  0.00    +0.000 A 
ATOM     32  H   UNL     1      48.407  12.082  16.679  0.00  0.00    +0.000 HD
ENDBRANCH  20  22
ENDBRANCH   1  19
TORSDOF 7
ENDMDL
MODEL 6
REMARK VINA RESULT:    -7.291      2.310      3.491
REMARK INTER + INTRA:         -11.682
REMARK INTER:                 -10.828
REMARK INTRA:                  -0.854
REMARK UNBOUND:                -1.407
REMARK  Name = 
REMARK  8 active torsions:
REMARK  status: ('A' for Active; 'I' for Inactive)
REMARK    1  A    between atoms: C_1  and  N_2
REMARK    2  A    between atoms: N_2  and  C_3
REMARK    3  A    between atoms: C_3  and  C_4
REMARK    4  A    between atoms: C_8  and  C_9
REMARK    5  A    between atoms: C_9  and  N_10
REMARK    6  A    between atoms: N_10  and  C_11
REMARK    7  A    between atoms: C_11  and  C_12
REMARK    8  A    between atoms: C_19  and  C_21
REMARK                            x       y       z     vdW  Elec       q    Type
REMARK                         _______ _______ _______ _____ _____    ______ ____
ROOT
ATOM      1  C   UNL     1      48.256   6.006  15.360  0.00  0.00    +0.000 C 
ENDROOT
BRANCH   1   2
ATOM      2  C   UNL     1      48.045   6.641  14.013  0.00  0.00    +0.000 A 
ATOM      3  C   UNL     1      49.120   6.911  13.164  0.00  0.00    +0.000 A 
ATOM      4  C   UNL     1      48.889   7.425  11.889  0.00  0.00    +0.000 A 
ATOM      5  C   UNL     1      47.583   7.651  11.442  0.00  0.00    +0.000 A 
ATOM      6  C   UNL     1      46.489   7.389  12.276  0.00  0.00    +0.000 A 
ATOM      7  C   UNL     1      46.738   6.901  13.567  0.00  0.00    +0.000 A 
BRANCH   6   8
ATOM      8  C   UNL     1      45.069   7.511  11.762  0.00  0.00    +0.000 C 
BRANCH   8   9
ATOM      9  N   UNL     1      44.850   6.638  10.610  0.00  0.00    +0.000 NA
ATOM     10  H   UNL     1      45.714   6.621  10.070  0.00  0.00    +0.000 HD
BRANCH   9  11
ATOM     11  C   UNL     1      44.470   5.280  10.989  0.00  0.00    +0.000 C 
BRANCH  11  12
ATOM     12  C   UNL     1      44.537   4.332   9.769  0.00  0.00    +0.000 C 
ATOM     13  C   UNL     1      44.655   2.872  10.243  0.00  0.00    +0.000 C 
ATOM     14  C   UNL     1      44.789   1.894   9.077  0.00  0.00    +0.000 C 
ATOM     15  C   UNL     1      45.948   2.268   8.159  0.00  0.00    +0.000 C 
ATOM     16  C   UNL     1      45.810   3.698   7.657  0.00  0.00    +0.000 C 
ATOM     17  C   UNL     1      45.692   4.686   8.813  0.00  0.00    +0.000 C 
ENDBRANCH  11  12
ENDBRANCH   9  11
ENDBRANCH   8   9
ENDBRANCH   6   8
ENDBRANCH   1   2
BRANCH   1  19
ATOM     18  C   UNL     1      46.985   3.968  14.517  0.00  0.00    +0.000 C 
ATOM     19  N   UNL     1      47.541   4.749  15.617  0.00  0.00    +0.000 N 
ATOM     20  C   UNL     1      47.296   4.232  16.900  0.00  0.00    +0.000 C 
ATOM     21  O   UNL     1      46.687   3.172  17.049  0.00  0.00    +0.000 OA
BRANCH  20  22
ATOM     22  C   UNL     1      47.738   4.975  18.086  0.00  0.00    +0.000 A 
ATOM     23  C   UNL     1      46.918   5.759  18.882  0.00  0.00    +0.000 A 
ATOM     24  S   UNL     1      47.716   6.425  20.236  0.00  0.00    +0.000 S 
ATOM     25  C   UNL     1      49.141   5.565  19.885  0.00  0.00    +0.000 A 
ATOM     26  N   UNL     1      50.207   5.599  20.726  0.00  0.00    +0.000 NA
ATOM     27  C   UNL     1      51.189   4.840  20.365  0.00  0.00    +0.000 A 
ATOM     28  N   UNL     1      51.216   4.086  19.218  0.00  0.00    +0.000 N 
ATOM     29  C   UNL     1      50.216   4.130  18.268  0.00  0.00    +0.000 A 
ATOM     30  O   UNL     1      50.377   3.639  17.157  0.00  0.00    +0.000 OA
ATOM     31  C   UNL     1      49.043   4.867  18.696  0.00  0.00    +0.000 A 
ATOM     32  H   UNL     1      52.042   3.569  18.962  0.00  0.00    +0.000 HD
ENDBRANCH  20  22
ENDBRANCH   1  19
TORSDOF 7
ENDMDL
MODEL 7
REMARK VINA RESULT:    -7.289      2.330      3.059
REMARK INTER + INTRA:         -11.680
REMARK INTER:                 -10.375
REMARK INTRA:                  -1.305
REMARK UNBOUND:                -1.407
REMARK  Name = 
REMARK  8 active torsions:
REMARK  status: ('A' for Active; 'I' for Inactive)
REMARK    1  A    between atoms: C_1  and  N_2
REMARK    2  A    between atoms: N_2  and  C_3
REMARK    3  A    between atoms: C_3  and  C_4
REMARK    4  A    between atoms: C_8  and  C_9
REMARK    5  A    between atoms: C_9  and  N_10
REMARK    6  A    between atoms: N_10  and  C_11
REMARK    7  A    between atoms: C_11  and  C_12
REMARK    8  A    between atoms: C_19  and  C_21
REMARK                            x       y       z     vdW  Elec       q    Type
REMARK                         _______ _______ _______ _____ _____    ______ ____
ROOT
ATOM      1  C   UNL     1      47.846   7.420  11.799  0.00  0.00    +0.000 C 
ENDROOT
BRANCH   1   2
ATOM      2  C   UNL     1      46.850   6.350  12.156  0.00  0.00    +0.000 A 
ATOM      3  C   UNL     1      46.921   5.674  13.375  0.00  0.00    +0.000 A 
ATOM      4  C   UNL     1      45.938   4.744  13.714  0.00  0.00    +0.000 A 
ATOM      5  C   UNL     1      44.865   4.501  12.851  0.00  0.00    +0.000 A 
ATOM      6  C   UNL     1      44.773   5.167  11.623  0.00  0.00    +0.000 A 
ATOM      7  C   UNL     1      45.785   6.076  11.282  0.00  0.00    +0.000 A 
BRANCH   6   8
ATOM      8  C   UNL     1      43.555   5.006  10.737  0.00  0.00    +0.000 C 
BRANCH   8   9
ATOM      9  N   UNL     1      43.925   4.477   9.425  0.00  0.00    +0.000 NA
ATOM     10  H   UNL     1      44.703   5.036   9.079  0.00  0.00    +0.000 HD
BRANCH   9  11
ATOM     11  C   UNL     1      44.299   3.067   9.464  0.00  0.00    +0.000 C 
BRANCH  11  12
ATOM     12  C   UNL     1      45.117   2.682   8.209  0.00  0.00    +0.000 C 
ATOM     13  C   UNL     1      45.989   1.449   8.506  0.00  0.00    +0.000 C 
ATOM     14  C   UNL     1      46.868   1.062   7.318  0.00  0.00    +0.000 C 
ATOM     15  C   UNL     1      47.720   2.233   6.844  0.00  0.00    +0.000 C 
ATOM     16  C   UNL     1      46.855   3.440   6.510  0.00  0.00    +0.000 C 
ATOM     17  C   UNL     1      45.985   3.847   7.694  0.00  0.00    +0.000 C 
ENDBRANCH  11  12
ENDBRANCH   9  11
ENDBRANCH   8   9
ENDBRANCH   6   8
ENDBRANCH   1   2
BRANCH   1  19
ATOM     18  C   UNL     1      46.226   9.343  12.199  0.00  0.00    +0.000 C 
ATOM     19  N   UNL     1      47.567   8.774  12.295  0.00  0.00    +0.000 N 
ATOM     20  C   UNL     1      48.540   9.629  12.839  0.00  0.00    +0.000 C 
ATOM     21  O   UNL     1      48.242  10.756  13.234  0.00  0.00    +0.000 OA
BRANCH  20  22
ATOM     22  C   UNL     1      49.940   9.194  12.909  0.00  0.00    +0.000 A 
ATOM     23  C   UNL     1      50.926   9.547  12.002  0.00  0.00    +0.000 A 
ATOM     24  S   UNL     1      52.472   8.945  12.408  0.00  0.00    +0.000 S 
ATOM     25  C   UNL     1      51.901   8.324  13.884  0.00  0.00    +0.000 A 
ATOM     26  N   UNL     1      52.749   7.765  14.786  0.00  0.00    +0.000 NA
ATOM     27  C   UNL     1      52.183   7.404  15.890  0.00  0.00    +0.000 A 
ATOM     28  N   UNL     1      50.840   7.513  16.155  0.00  0.00    +0.000 N 
ATOM     29  C   UNL     1      49.924   7.944  15.216  0.00  0.00    +0.000 A 
ATOM     30  O   UNL     1      48.720   7.804  15.397  0.00  0.00    +0.000 OA
ATOM     31  C   UNL     1      50.534   8.479  14.015  0.00  0.00    +0.000 A 
ATOM     32  H   UNL     1      50.453   7.148  17.011  0.00  0.00    +0.000 HD
ENDBRANCH  20  22
ENDBRANCH   1  19
TORSDOF 7
ENDMDL
MODEL 8
REMARK VINA RESULT:    -6.718      2.122      3.031
REMARK INTER + INTRA:         -10.875
REMARK INTER:                  -9.724
REMARK INTRA:                  -1.151
REMARK UNBOUND:                -1.407
REMARK  Name = 
REMARK  8 active torsions:
REMARK  status: ('A' for Active; 'I' for Inactive)
REMARK    1  A    between atoms: C_1  and  N_2
REMARK    2  A    between atoms: N_2  and  C_3
REMARK    3  A    between atoms: C_3  and  C_4
REMARK    4  A    between atoms: C_8  and  C_9
REMARK    5  A    between atoms: C_9  and  N_10
REMARK    6  A    between atoms: N_10  and  C_11
REMARK    7  A    between atoms: C_11  and  C_12
REMARK    8  A    between atoms: C_19  and  C_21
REMARK                            x       y       z     vdW  Elec       q    Type
REMARK                         _______ _______ _______ _____ _____    ______ ____
ROOT
ATOM      1  C   UNL     1      47.298   4.437  16.421  0.00  0.00    +0.000 C 
ENDROOT
BRANCH   1   2
ATOM      2  C   UNL     1      47.072   4.876  15.000  0.00  0.00    +0.000 A 
ATOM      3  C   UNL     1      47.875   5.853  14.408  0.00  0.00    +0.000 A 
ATOM      4  C   UNL     1      47.695   6.183  13.065  0.00  0.00    +0.000 A 
ATOM      5  C   UNL     1      46.731   5.522  12.296  0.00  0.00    +0.000 A 
ATOM      6  C   UNL     1      45.914   4.540  12.868  0.00  0.00    +0.000 A 
ATOM      7  C   UNL     1      46.085   4.240  14.227  0.00  0.00    +0.000 A 
BRANCH   6   8
ATOM      8  C   UNL     1      44.954   3.732  12.018  0.00  0.00    +0.000 C 
BRANCH   8   9
ATOM      9  N   UNL     1      45.159   3.999  10.596  0.00  0.00    +0.000 NA
ATOM     10  H   UNL     1      46.145   3.839  10.393  0.00  0.00    +0.000 HD
BRANCH   9  11
ATOM     11  C   UNL     1      44.330   3.163   9.734  0.00  0.00    +0.000 C 
BRANCH  11  12
ATOM     12  C   UNL     1      45.078   2.809   8.427  0.00  0.00    +0.000 C 
ATOM     13  C   UNL     1      45.914   1.533   8.628  0.00  0.00    +0.000 C 
ATOM     14  C   UNL     1      46.727   1.172   7.386  0.00  0.00    +0.000 C 
ATOM     15  C   UNL     1      47.602   2.333   6.929  0.00  0.00    +0.000 C 
ATOM     16  C   UNL     1      46.771   3.585   6.691  0.00  0.00    +0.000 C 
ATOM     17  C   UNL     1      45.967   3.966   7.930  0.00  0.00    +0.000 C 
ENDBRANCH  11  12
ENDBRANCH   9  11
ENDBRANCH   8   9
ENDBRANCH   6   8
ENDBRANCH   1   2
BRANCH   1  19
ATOM     18  C   UNL     1      48.713   2.321  16.352  0.00  0.00    +0.000 C 
ATOM     19  N   UNL     1      48.554   3.730  16.702  0.00  0.00    +0.000 N 
ATOM     20  C   UNL     1      49.655   4.309  17.354  0.00  0.00    +0.000 C 
ATOM     21  O   UNL     1      50.680   3.661  17.564  0.00  0.00    +0.000 OA
BRANCH  20  22
ATOM     22  C   UNL     1      49.578   5.697  17.826  0.00  0.00    +0.000 A 
ATOM     23  C   UNL     1      49.949   6.808  17.085  0.00  0.00    +0.000 A 
ATOM     24  S   UNL     1      49.661   8.289  17.886  0.00  0.00    +0.000 S 
ATOM     25  C   UNL     1      48.895   7.499  19.181  0.00  0.00    +0.000 A 
ATOM     26  N   UNL     1      48.305   8.203  20.183  0.00  0.00    +0.000 NA
ATOM     27  C   UNL     1      47.700   7.470  21.059  0.00  0.00    +0.000 A 
ATOM     28  N   UNL     1      47.669   6.097  21.045  0.00  0.00    +0.000 N 
ATOM     29  C   UNL     1      48.370   5.341  20.128  0.00  0.00    +0.000 A 
ATOM     30  O   UNL     1      48.518   4.135  20.284  0.00  0.00    +0.000 OA
ATOM     31  C   UNL     1      48.953   6.124  19.055  0.00  0.00    +0.000 A 
ATOM     32  H   UNL     1      47.237   5.585  21.798  0.00  0.00    +0.000 HD
ENDBRANCH  20  22
ENDBRANCH   1  19
TORSDOF 7
ENDMDL
MODEL 9
REMARK VINA RESULT:    -6.644      2.353      3.725
REMARK INTER + INTRA:         -10.771
REMARK INTER:                  -9.481
REMARK INTRA:                  -1.290
REMARK UNBOUND:                -1.407
REMARK  Name = 
REMARK  8 active torsions:
REMARK  status: ('A' for Active; 'I' for Inactive)
REMARK    1  A    between atoms: C_1  and  N_2
REMARK    2  A    between atoms: N_2  and  C_3
REMARK    3  A    between atoms: C_3  and  C_4
REMARK    4  A    between atoms: C_8  and  C_9
REMARK    5  A    between atoms: C_9  and  N_10
REMARK    6  A    between atoms: N_10  and  C_11
REMARK    7  A    between atoms: C_11  and  C_12
REMARK    8  A    between atoms: C_19  and  C_21
REMARK                            x       y       z     vdW  Elec       q    Type
REMARK                         _______ _______ _______ _____ _____    ______ ____
ROOT
ATOM      1  C   UNL     1      49.635   7.783  15.399  0.00  0.00    +0.000 C 
ENDROOT
BRANCH   1   2
ATOM      2  C   UNL     1      48.788   7.898  14.161  0.00  0.00    +0.000 A 
ATOM      3  C   UNL     1      48.995   8.924  13.236  0.00  0.00    +0.000 A 
ATOM      4  C   UNL     1      48.250   8.960  12.058  0.00  0.00    +0.000 A 
ATOM      5  C   UNL     1      47.310   7.961  11.783  0.00  0.00    +0.000 A 
ATOM      6  C   UNL     1      47.084   6.924  12.696  0.00  0.00    +0.000 A 
ATOM      7  C   UNL     1      47.819   6.917  13.890  0.00  0.00    +0.000 A 
BRANCH   6   8
ATOM      8  C   UNL     1      46.162   5.772  12.355  0.00  0.00    +0.000 C 
BRANCH   8   9
ATOM      9  N   UNL     1      45.538   5.967  11.047  0.00  0.00    +0.000 NA
ATOM     10  H   UNL     1      46.237   5.745  10.339  0.00  0.00    +0.000 HD
BRANCH   9  11
ATOM     11  C   UNL     1      44.350   5.141  10.853  0.00  0.00    +0.000 C 
BRANCH  11  12
ATOM     12  C   UNL     1      44.517   4.221   9.622  0.00  0.00    +0.000 C 
ATOM     13  C   UNL     1      44.649   2.755  10.073  0.00  0.00    +0.000 C 
ATOM     14  C   UNL     1      44.881   1.806   8.899  0.00  0.00    +0.000 C 
ATOM     15  C   UNL     1      46.082   2.230   8.061  0.00  0.00    +0.000 C 
ATOM     16  C   UNL     1      45.933   3.666   7.580  0.00  0.00    +0.000 C 
ATOM     17  C   UNL     1      45.718   4.626   8.744  0.00  0.00    +0.000 C 
ENDBRANCH  11  12
ENDBRANCH   9  11
ENDBRANCH   8   9
ENDBRANCH   6   8
ENDBRANCH   1   2
BRANCH   1  19
ATOM     18  C   UNL     1      48.103   9.128  16.924  0.00  0.00    +0.000 C 
ATOM     19  N   UNL     1      48.952   7.964  16.687  0.00  0.00    +0.000 N 
ATOM     20  C   UNL     1      49.090   7.093  17.780  0.00  0.00    +0.000 C 
ATOM     21  O   UNL     1      48.492   7.303  18.835  0.00  0.00    +0.000 OA
BRANCH  20  22
ATOM     22  C   UNL     1      49.983   5.933  17.683  0.00  0.00    +0.000 A 
ATOM     23  C   UNL     1      51.292   5.900  18.136  0.00  0.00    +0.000 A 
ATOM     24  S   UNL     1      52.039   4.375  17.953  0.00  0.00    +0.000 S 
ATOM     25  C   UNL     1      50.591   3.673  17.404  0.00  0.00    +0.000 A 
ATOM     26  N   UNL     1      50.504   2.339  17.164  0.00  0.00    +0.000 NA
ATOM     27  C   UNL     1      49.324   1.939  16.822  0.00  0.00    +0.000 A 
ATOM     28  N   UNL     1      48.235   2.760  16.658  0.00  0.00    +0.000 N 
ATOM     29  C   UNL     1      48.313   4.135  16.753  0.00  0.00    +0.000 A 
ATOM     30  O   UNL     1      47.393   4.848  16.369  0.00  0.00    +0.000 OA
ATOM     31  C   UNL     1      49.585   4.610  17.261  0.00  0.00    +0.000 A 
ATOM     32  H   UNL     1      47.360   2.392  16.322  0.00  0.00    +0.000 HD
ENDBRANCH  20  22
ENDBRANCH   1  19
TORSDOF 7
ENDMDL
