MODEL 1
REMARK VINA RESULT:    -8.012      0.000      0.000
REMARK INTER + INTRA:         -11.517
REMARK INTER:                 -11.290
REMARK INTRA:                  -0.227
REMARK UNBOUND:                -0.227
REMARK  Name = 
REMARK  9 active torsions:
REMARK  status: ('A' for Active; 'I' for Inactive)
REMARK    1  A    between atoms: C_1  and  C_2
REMARK    2  A    between atoms: C_2  and  C_3
REMARK    3  A    between atoms: C_2  and  N_4
REMARK    4  A    between atoms: N_4  and  C_5
REMARK    5  A    between atoms: C_5  and  C_6
REMARK    6  A    between atoms: C_6  and  C_7
REMARK    7  A    between atoms: C_11  and  N_12
REMARK    8  A    between atoms: N_12  and  C_13
REMARK    9  A    between atoms: C_21  and  C_22
REMARK                            x       y       z     vdW  Elec       q    Type
REMARK                         _______ _______ _______ _____ _____    ______ ____
ROOT
ATOM      1  N   UNL     1      44.373   4.842  10.397  0.00  0.00    +0.000 N 
ATOM      2  C   UNL     1      45.016   4.031   9.450  0.00  0.00    +0.000 A 
ATOM      3  C   UNL     1      45.748   4.639   8.425  0.00  0.00    +0.000 A 
ATOM      4  C   UNL     1      46.497   3.868   7.537  0.00  0.00    +0.000 A 
ATOM      5  C   UNL     1      46.520   2.484   7.677  0.00  0.00    +0.000 A 
ATOM      6  C   UNL     1      45.761   1.952   8.708  0.00  0.00    +0.000 A 
ATOM      7  N   UNL     1      45.006   2.688   9.575  0.00  0.00    +0.000 NA
ENDROOT
BRANCH   5   8
ATOM      8  C   UNL     1      47.339   1.692   6.729  0.00  0.00    +0.000 C 
ATOM      9  N   UNL     1      48.371   2.299   6.059  0.00  0.00    +0.000 N 
ATOM     10  O   UNL     1      47.117   0.501   6.536  0.00  0.00    +0.000 OA
ATOM     11  H   UNL     1      48.649   3.265   6.152  0.00  0.00    +0.000 HD
ATOM     12  H   UNL     1      48.902   1.708   5.431  0.00  0.00    +0.000 HD
ENDBRANCH   5   8
BRANCH   1  14
ATOM     13  C   UNL     1      43.359   3.101  11.929  0.00  0.00    +0.000 C 
ATOM     14  C   UNL     1      43.143   4.303  11.015  0.00  0.00    +0.000 C 
ATOM     15  C   UNL     1      42.398   5.412  11.773  0.00  0.00    +0.000 C 
ENDBRANCH   1  14
BRANCH   1  16
ATOM     16  C   UNL     1      45.286   5.734  11.153  0.00  0.00    +0.000 C 
BRANCH  16  17
ATOM     17  C   UNL     1      46.083   4.993  12.246  0.00  0.00    +0.000 C 
BRANCH  17  18
ATOM     18  C   UNL     1      47.155   5.762  12.988  0.00  0.00    +0.000 A 
ATOM     19  C   UNL     1      47.811   6.801  12.314  0.00  0.00    +0.000 A 
ATOM     20  C   UNL     1      48.701   7.637  12.984  0.00  0.00    +0.000 A 
ATOM     21  C   UNL     1      48.959   7.442  14.341  0.00  0.00    +0.000 A 
ATOM     22  C   UNL     1      48.318   6.420  15.043  0.00  0.00    +0.000 A 
ATOM     23  C   UNL     1      47.411   5.590  14.358  0.00  0.00    +0.000 A 
BRANCH  22  24
ATOM     24  N   UNL     1      48.534   6.189  16.420  0.00  0.00    +0.000 N 
ATOM     25  H   UNL     1      49.451   6.547  16.693  0.00  0.00    +0.000 HD
BRANCH  24  26
ATOM     26  C   UNL     1      48.125   5.017  17.152  0.00  0.00    +0.000 C 
ATOM     27  C   UNL     1      47.459   5.353  18.496  0.00  0.00    +0.000 C 
ATOM     28  O   UNL     1      48.404   4.528  19.219  0.00  0.00    +0.000 OA
ATOM     29  C   UNL     1      49.192   4.340  18.017  0.00  0.00    +0.000 C 
ENDBRANCH  24  26
ENDBRANCH  22  24
ENDBRANCH  17  18
ENDBRANCH  16  17
ENDBRANCH   1  16
TORSDOF 7
ENDMDL
MODEL 2
REMARK VINA RESULT:    -7.460      2.016      2.298
REMARK INTER + INTRA:         -10.741
REMARK INTER:                  -9.940
REMARK INTRA:                  -0.801
REMARK UNBOUND:                -0.227
REMARK  Name = 
REMARK  9 active torsions:
REMARK  status: ('A' for Active; 'I' for Inactive)
REMARK    1  A    between atoms: C_1  and  C_2
REMARK    2  A    between atoms: C_2  and  C_3
REMARK    3  A    between atoms: C_2  and  N_4
REMARK    4  A    between atoms: N_4  and  C_5
REMARK    5  A    between atoms: C_5  and  C_6
REMARK    6  A    between atoms: C_6  and  C_7
REMARK    7  A    between atoms: C_11  and  N_12
REMARK    8  A    between atoms: N_12  and  C_13
REMARK    9  A    between atoms: C_21  and  C_22
REMARK                            x       y       z     vdW  Elec       q    Type
REMARK                         _______ _______ _______ _____ _____    ______ ____
ROOT
ATOM      1  N   UNL     1      44.600   4.789  10.928  0.00  0.00    +0.000 N 
ATOM      2  C   UNL     1      45.076   4.149   9.775  0.00  0.00    +0.000 A 
ATOM      3  C   UNL     1      45.837   4.883   8.859  0.00  0.00    +0.000 A 
ATOM      4  C   UNL     1      46.426   4.253   7.763  0.00  0.00    +0.000 A 
ATOM      5  C   UNL     1      46.260   2.883   7.585  0.00  0.00    +0.000 A 
ATOM      6  C   UNL     1      45.485   2.224   8.526  0.00  0.00    +0.000 A 
ATOM      7  N   UNL     1      44.884   2.826   9.594  0.00  0.00    +0.000 NA
ENDROOT
BRANCH   5   8
ATOM      8  C   UNL     1      46.913   2.239   6.421  0.00  0.00    +0.000 C 
ATOM      9  N   UNL     1      47.185   2.984   5.302  0.00  0.00    +0.000 N 
ATOM     10  O   UNL     1      47.223   1.052   6.441  0.00  0.00    +0.000 OA
ATOM     11  H   UNL     1      46.987   3.968   5.184  0.00  0.00    +0.000 HD
ATOM     12  H   UNL     1      47.639   2.495   4.540  0.00  0.00    +0.000 HD
ENDBRANCH   5   8
BRANCH   1  14
ATOM     13  C   UNL     1      43.499   3.482  12.795  0.00  0.00    +0.000 C 
ATOM     14  C   UNL     1      43.338   4.280  11.504  0.00  0.00    +0.000 C 
ATOM     15  C   UNL     1      42.348   5.435  11.721  0.00  0.00    +0.000 C 
ENDBRANCH   1  14
BRANCH   1  16
ATOM     16  C   UNL     1      45.665   5.357  11.791  0.00  0.00    +0.000 C 
BRANCH  16  17
ATOM     17  C   UNL     1      45.759   6.893  11.701  0.00  0.00    +0.000 C 
BRANCH  17  18
ATOM     18  C   UNL     1      46.993   7.565  12.264  0.00  0.00    +0.000 A 
ATOM     19  C   UNL     1      48.165   7.543  11.496  0.00  0.00    +0.000 A 
ATOM     20  C   UNL     1      49.290   8.265  11.890  0.00  0.00    +0.000 A 
ATOM     21  C   UNL     1      49.265   9.016  13.065  0.00  0.00    +0.000 A 
ATOM     22  C   UNL     1      48.111   9.063  13.849  0.00  0.00    +0.000 A 
ATOM     23  C   UNL     1      46.978   8.340  13.435  0.00  0.00    +0.000 A 
BRANCH  22  24
ATOM     24  N   UNL     1      48.030   9.817  15.041  0.00  0.00    +0.000 N 
ATOM     25  H   UNL     1      48.399  10.756  14.884  0.00  0.00    +0.000 HD
BRANCH  24  26
ATOM     26  C   UNL     1      48.259   9.315  16.372  0.00  0.00    +0.000 C 
ATOM     27  C   UNL     1      49.584   9.805  16.977  0.00  0.00    +0.000 C 
ATOM     28  O   UNL     1      50.024   8.448  17.223  0.00  0.00    +0.000 OA
ATOM     29  C   UNL     1      48.893   7.925  16.483  0.00  0.00    +0.000 C 
ENDBRANCH  24  26
ENDBRANCH  22  24
ENDBRANCH  17  18
ENDBRANCH  16  17
ENDBRANCH   1  16
TORSDOF 7
ENDMDL
MODEL 3
REMARK VINA RESULT:    -7.281      3.086      4.963
REMARK INTER + INTRA:         -10.488
REMARK INTER:                  -9.259
REMARK INTRA:                  -1.230
REMARK UNBOUND:                -0.227
REMARK  Name = 
REMARK  9 active torsions:
REMARK  status: ('A' for Active; 'I' for Inactive)
REMARK    1  A    between atoms: C_1  and  C_2
REMARK    2  A    between atoms: C_2  and  C_3
REMARK    3  A    between atoms: C_2  and  N_4
REMARK    4  A    between atoms: N_4  and  C_5
REMARK    5  A    between atoms: C_5  and  C_6
REMARK    6  A    between atoms: C_6  and  C_7
REMARK    7  A    between atoms: C_11  and  N_12
REMARK    8  A    between atoms: N_12  and  C_13
REMARK    9  A    between atoms: C_21  and  C_22
REMARK                            x       y       z     vdW  Elec       q    Type
REMARK                         _______ _______ _______ _____ _____    ______ ____
ROOT
ATOM      1  N   UNL     1      47.835   7.375  12.804  0.00  0.00    +0.000 N 
ATOM      2  C   UNL     1      46.987   6.324  12.423  0.00  0.00    +0.000 A 
ATOM      3  C   UNL     1      46.746   5.287  13.331  0.00  0.00    +0.000 A 
ATOM      4  C   UNL     1      45.819   4.289  13.035  0.00  0.00    +0.000 A 
ATOM      5  C   UNL     1      45.124   4.331  11.830  0.00  0.00    +0.000 A 
ATOM      6  C   UNL     1      45.423   5.381  10.976  0.00  0.00    +0.000 A 
ATOM      7  N   UNL     1      46.342   6.356  11.239  0.00  0.00    +0.000 NA
ENDROOT
BRANCH   5   8
ATOM      8  C   UNL     1      44.132   3.266  11.551  0.00  0.00    +0.000 C 
ATOM      9  N   UNL     1      43.783   2.390  12.547  0.00  0.00    +0.000 N 
ATOM     10  O   UNL     1      43.608   3.156  10.446  0.00  0.00    +0.000 OA
ATOM     11  H   UNL     1      44.139   2.398  13.493  0.00  0.00    +0.000 HD
ATOM     12  H   UNL     1      43.095   1.688  12.303  0.00  0.00    +0.000 HD
ENDBRANCH   5   8
BRANCH   1  14
ATOM     13  C   UNL     1      48.509   9.576  11.753  0.00  0.00    +0.000 C 
ATOM     14  C   UNL     1      48.587   8.053  11.727  0.00  0.00    +0.000 C 
ATOM     15  C   UNL     1      50.055   7.601  11.736  0.00  0.00    +0.000 C 
ENDBRANCH   1  14
BRANCH   1  16
ATOM     16  C   UNL     1      47.384   8.113  14.009  0.00  0.00    +0.000 C 
BRANCH  16  17
ATOM     17  C   UNL     1      48.543   8.492  14.953  0.00  0.00    +0.000 C 
BRANCH  17  18
ATOM     18  C   UNL     1      49.306   7.372  15.626  0.00  0.00    +0.000 A 
ATOM     19  C   UNL     1      50.706   7.388  15.552  0.00  0.00    +0.000 A 
ATOM     20  C   UNL     1      51.470   6.470  16.271  0.00  0.00    +0.000 A 
ATOM     21  C   UNL     1      50.846   5.513  17.069  0.00  0.00    +0.000 A 
ATOM     22  C   UNL     1      49.454   5.473  17.169  0.00  0.00    +0.000 A 
ATOM     23  C   UNL     1      48.694   6.413  16.449  0.00  0.00    +0.000 A 
BRANCH  22  24
ATOM     24  N   UNL     1      48.774   4.531  17.974  0.00  0.00    +0.000 N 
ATOM     25  H   UNL     1      49.015   4.674  18.955  0.00  0.00    +0.000 HD
BRANCH  24  26
ATOM     26  C   UNL     1      48.523   3.155  17.629  0.00  0.00    +0.000 C 
ATOM     27  C   UNL     1      49.804   2.385  17.270  0.00  0.00    +0.000 C 
ATOM     28  O   UNL     1      49.263   2.000  15.983  0.00  0.00    +0.000 OA
ATOM     29  C   UNL     1      48.122   2.872  16.178  0.00  0.00    +0.000 C 
ENDBRANCH  24  26
ENDBRANCH  22  24
ENDBRANCH  17  18
ENDBRANCH  16  17
ENDBRANCH   1  16
TORSDOF 7
ENDMDL
MODEL 4
REMARK VINA RESULT:    -7.009      2.894      7.701
REMARK INTER + INTRA:         -10.104
REMARK INTER:                  -8.651
REMARK INTRA:                  -1.454
REMARK UNBOUND:                -0.227
REMARK  Name = 
REMARK  9 active torsions:
REMARK  status: ('A' for Active; 'I' for Inactive)
REMARK    1  A    between atoms: C_1  and  C_2
REMARK    2  A    between atoms: C_2  and  C_3
REMARK    3  A    between atoms: C_2  and  N_4
REMARK    4  A    between atoms: N_4  and  C_5
REMARK    5  A    between atoms: C_5  and  C_6
REMARK    6  A    between atoms: C_6  and  C_7
REMARK    7  A    between atoms: C_11  and  N_12
REMARK    8  A    between atoms: N_12  and  C_13
REMARK    9  A    between atoms: C_21  and  C_22
REMARK                            x       y       z     vdW  Elec       q    Type
REMARK                         _______ _______ _______ _____ _____    ______ ____
ROOT
ATOM      1  N   UNL     1      49.220   7.623  14.180  0.00  0.00    +0.000 N 
ATOM      2  C   UNL     1      48.796   6.647  15.094  0.00  0.00    +0.000 A 
ATOM      3  C   UNL     1      47.688   5.856  14.775  0.00  0.00    +0.000 A 
ATOM      4  C   UNL     1      47.310   4.799  15.601  0.00  0.00    +0.000 A 
ATOM      5  C   UNL     1      48.047   4.527  16.750  0.00  0.00    +0.000 A 
ATOM      6  C   UNL     1      49.125   5.359  17.008  0.00  0.00    +0.000 A 
ATOM      7  N   UNL     1      49.499   6.410  16.221  0.00  0.00    +0.000 NA
ENDROOT
BRANCH   5   8
ATOM      8  C   UNL     1      47.632   3.386  17.600  0.00  0.00    +0.000 C 
ATOM      9  N   UNL     1      48.439   2.986  18.635  0.00  0.00    +0.000 N 
ATOM     10  O   UNL     1      46.575   2.795  17.402  0.00  0.00    +0.000 OA
ATOM     11  H   UNL     1      49.319   3.409  18.896  0.00  0.00    +0.000 HD
ATOM     12  H   UNL     1      48.101   2.208  19.188  0.00  0.00    +0.000 HD
ENDBRANCH   5   8
BRANCH   1  14
ATOM     13  C   UNL     1      51.099   9.303  13.950  0.00  0.00    +0.000 C 
ATOM     14  C   UNL     1      49.885   8.820  14.738  0.00  0.00    +0.000 C 
ATOM     15  C   UNL     1      48.873   9.964  14.899  0.00  0.00    +0.000 C 
ENDBRANCH   1  14
BRANCH   1  16
ATOM     16  C   UNL     1      49.593   7.086  12.848  0.00  0.00    +0.000 C 
BRANCH  16  17
ATOM     17  C   UNL     1      48.740   7.668  11.703  0.00  0.00    +0.000 C 
BRANCH  17  18
ATOM     18  C   UNL     1      47.248   7.415  11.728  0.00  0.00    +0.000 A 
ATOM     19  C   UNL     1      46.420   8.399  12.285  0.00  0.00    +0.000 A 
ATOM     20  C   UNL     1      45.033   8.292  12.208  0.00  0.00    +0.000 A 
ATOM     21  C   UNL     1      44.449   7.192  11.579  0.00  0.00    +0.000 A 
ATOM     22  C   UNL     1      45.246   6.197  11.010  0.00  0.00    +0.000 A 
ATOM     23  C   UNL     1      46.645   6.323  11.083  0.00  0.00    +0.000 A 
BRANCH  22  24
ATOM     24  N   UNL     1      44.704   5.071  10.352  0.00  0.00    +0.000 N 
ATOM     25  H   UNL     1      43.914   5.354   9.770  0.00  0.00    +0.000 HD
BRANCH  24  26
ATOM     26  C   UNL     1      44.570   3.751  10.915  0.00  0.00    +0.000 C 
ATOM     27  C   UNL     1      43.211   3.527  11.598  0.00  0.00    +0.000 C 
ATOM     28  O   UNL     1      43.850   3.152  12.843  0.00  0.00    +0.000 OA
ATOM     29  C   UNL     1      45.145   3.541  12.319  0.00  0.00    +0.000 C 
ENDBRANCH  24  26
ENDBRANCH  22  24
ENDBRANCH  17  18
ENDBRANCH  16  17
ENDBRANCH   1  16
TORSDOF 7
ENDMDL
MODEL 5
REMARK VINA RESULT:    -6.652      1.816      8.487
REMARK INTER + INTRA:          -9.601
REMARK INTER:                  -8.755
REMARK INTRA:                  -0.846
REMARK UNBOUND:                -0.227
REMARK  Name = 
REMARK  9 active torsions:
REMARK  status: ('A' for Active; 'I' for Inactive)
REMARK    1  A    between atoms: C_1  and  C_2
REMARK    2  A    between atoms: C_2  and  C_3
REMARK    3  A    between atoms: C_2  and  N_4
REMARK    4  A    between atoms: N_4  and  C_5
REMARK    5  A    between atoms: C_5  and  C_6
REMARK    6  A    between atoms: C_6  and  C_7
REMARK    7  A    between atoms: C_11  and  N_12
REMARK    8  A    between atoms: N_12  and  C_13
REMARK    9  A    between atoms: C_21  and  C_22
REMARK                            x       y       z     vdW  Elec       q    Type
REMARK                         _______ _______ _______ _____ _____    ______ ____
ROOT
ATOM      1  N   UNL     1      48.725   7.388  14.261  0.00  0.00    +0.000 N 
ATOM      2  C   UNL     1      48.839   6.447  15.296  0.00  0.00    +0.000 A 
ATOM      3  C   UNL     1      47.765   5.587  15.550  0.00  0.00    +0.000 A 
ATOM      4  C   UNL     1      47.886   4.563  16.487  0.00  0.00    +0.000 A 
ATOM      5  C   UNL     1      49.086   4.393  17.171  0.00  0.00    +0.000 A 
ATOM      6  C   UNL     1      50.101   5.289  16.876  0.00  0.00    +0.000 A 
ATOM      7  N   UNL     1      49.996   6.310  15.975  0.00  0.00    +0.000 NA
ENDROOT
BRANCH   5   8
ATOM      8  C   UNL     1      49.189   3.284  18.150  0.00  0.00    +0.000 C 
ATOM      9  N   UNL     1      48.451   3.332  19.305  0.00  0.00    +0.000 N 
ATOM     10  O   UNL     1      49.918   2.319  17.944  0.00  0.00    +0.000 OA
ATOM     11  H   UNL     1      47.811   4.069  19.567  0.00  0.00    +0.000 HD
ATOM     12  H   UNL     1      48.554   2.545  19.932  0.00  0.00    +0.000 HD
ENDBRANCH   5   8
BRANCH   1  14
ATOM     13  C   UNL     1      50.391   8.990  13.233  0.00  0.00    +0.000 C 
ATOM     14  C   UNL     1      49.487   8.645  14.412  0.00  0.00    +0.000 C 
ATOM     15  C   UNL     1      48.534   9.814  14.703  0.00  0.00    +0.000 C 
ENDBRANCH   1  14
BRANCH   1  16
ATOM     16  C   UNL     1      48.479   6.793  12.924  0.00  0.00    +0.000 C 
BRANCH  16  17
ATOM     17  C   UNL     1      47.136   7.233  12.307  0.00  0.00    +0.000 C 
BRANCH  17  18
ATOM     18  C   UNL     1      46.146   6.157  11.916  0.00  0.00    +0.000 A 
ATOM     19  C   UNL     1      45.372   5.572  12.927  0.00  0.00    +0.000 A 
ATOM     20  C   UNL     1      44.345   4.683  12.616  0.00  0.00    +0.000 A 
ATOM     21  C   UNL     1      44.080   4.357  11.286  0.00  0.00    +0.000 A 
ATOM     22  C   UNL     1      44.829   4.927  10.255  0.00  0.00    +0.000 A 
ATOM     23  C   UNL     1      45.854   5.832  10.581  0.00  0.00    +0.000 A 
BRANCH  22  24
ATOM     24  N   UNL     1      44.592   4.639   8.892  0.00  0.00    +0.000 N 
ATOM     25  H   UNL     1      43.816   5.205   8.547  0.00  0.00    +0.000 HD
BRANCH  24  26
ATOM     26  C   UNL     1      44.684   3.338   8.278  0.00  0.00    +0.000 C 
ATOM     27  C   UNL     1      45.457   2.325   9.137  0.00  0.00    +0.000 C 
ATOM     28  O   UNL     1      46.380   2.047   8.056  0.00  0.00    +0.000 OA
ATOM     29  C   UNL     1      45.821   3.132   7.274  0.00  0.00    +0.000 C 
ENDBRANCH  24  26
ENDBRANCH  22  24
ENDBRANCH  17  18
ENDBRANCH  16  17
ENDBRANCH   1  16
TORSDOF 7
ENDMDL
MODEL 6
REMARK VINA RESULT:    -6.542      3.010      8.585
REMARK INTER + INTRA:          -9.447
REMARK INTER:                  -8.742
REMARK INTRA:                  -0.705
REMARK UNBOUND:                -0.227
REMARK  Name = 
REMARK  9 active torsions:
REMARK  status: ('A' for Active; 'I' for Inactive)
REMARK    1  A    between atoms: C_1  and  C_2
REMARK    2  A    between atoms: C_2  and  C_3
REMARK    3  A    between atoms: C_2  and  N_4
REMARK    4  A    between atoms: N_4  and  C_5
REMARK    5  A    between atoms: C_5  and  C_6
REMARK    6  A    between atoms: C_6  and  C_7
REMARK    7  A    between atoms: C_11  and  N_12
REMARK    8  A    between atoms: N_12  and  C_13
REMARK    9  A    between atoms: C_21  and  C_22
REMARK                            x       y       z     vdW  Elec       q    Type
REMARK                         _______ _______ _______ _____ _____    ______ ____
ROOT
ATOM      1  N   UNL     1      48.720   4.797  17.207  0.00  0.00    +0.000 N 
ATOM      2  C   UNL     1      49.739   3.861  17.442  0.00  0.00    +0.000 A 
ATOM      3  C   UNL     1      49.649   2.599  16.846  0.00  0.00    +0.000 A 
ATOM      4  C   UNL     1      50.697   1.687  16.959  0.00  0.00    +0.000 A 
ATOM      5  C   UNL     1      51.843   2.040  17.664  0.00  0.00    +0.000 A 
ATOM      6  C   UNL     1      51.857   3.302  18.237  0.00  0.00    +0.000 A 
ATOM      7  N   UNL     1      50.833   4.201  18.154  0.00  0.00    +0.000 NA
ENDROOT
BRANCH   5   8
ATOM      8  C   UNL     1      52.948   1.055  17.752  0.00  0.00    +0.000 C 
ATOM      9  N   UNL     1      52.708  -0.183  18.291  0.00  0.00    +0.000 N 
ATOM     10  O   UNL     1      54.074   1.324  17.345  0.00  0.00    +0.000 OA
ATOM     11  H   UNL     1      51.819  -0.513  18.642  0.00  0.00    +0.000 HD
ATOM     12  H   UNL     1      53.496  -0.818  18.318  0.00  0.00    +0.000 HD
ENDBRANCH   5   8
BRANCH   1  14
ATOM     13  C   UNL     1      48.628   7.243  17.850  0.00  0.00    +0.000 C 
ATOM     14  C   UNL     1      48.461   5.787  18.273  0.00  0.00    +0.000 C 
ATOM     15  C   UNL     1      47.063   5.571  18.872  0.00  0.00    +0.000 C 
ENDBRANCH   1  14
BRANCH   1  16
ATOM     16  C   UNL     1      48.529   5.140  15.776  0.00  0.00    +0.000 C 
BRANCH  16  17
ATOM     17  C   UNL     1      47.156   4.699  15.229  0.00  0.00    +0.000 C 
BRANCH  17  18
ATOM     18  C   UNL     1      46.633   5.383  13.984  0.00  0.00    +0.000 A 
ATOM     19  C   UNL     1      47.526   6.158  13.232  0.00  0.00    +0.000 A 
ATOM     20  C   UNL     1      47.147   6.693  12.002  0.00  0.00    +0.000 A 
ATOM     21  C   UNL     1      45.863   6.468  11.507  0.00  0.00    +0.000 A 
ATOM     22  C   UNL     1      44.951   5.696  12.229  0.00  0.00    +0.000 A 
ATOM     23  C   UNL     1      45.350   5.151  13.463  0.00  0.00    +0.000 A 
BRANCH  22  24
ATOM     24  N   UNL     1      43.644   5.428  11.766  0.00  0.00    +0.000 N 
ATOM     25  H   UNL     1      42.969   5.589  12.516  0.00  0.00    +0.000 HD
BRANCH  24  26
ATOM     26  C   UNL     1      43.270   4.369  10.864  0.00  0.00    +0.000 C 
ATOM     27  C   UNL     1      43.601   2.971  11.412  0.00  0.00    +0.000 C 
ATOM     28  O   UNL     1      44.384   2.648  10.238  0.00  0.00    +0.000 OA
ATOM     29  C   UNL     1      44.278   4.014   9.766  0.00  0.00    +0.000 C 
ENDBRANCH  24  26
ENDBRANCH  22  24
ENDBRANCH  17  18
ENDBRANCH  16  17
ENDBRANCH   1  16
TORSDOF 7
ENDMDL
MODEL 7
REMARK VINA RESULT:    -6.411      3.765      8.165
REMARK INTER + INTRA:          -9.262
REMARK INTER:                  -8.060
REMARK INTRA:                  -1.202
REMARK UNBOUND:                -0.227
REMARK  Name = 
REMARK  9 active torsions:
REMARK  status: ('A' for Active; 'I' for Inactive)
REMARK    1  A    between atoms: C_1  and  C_2
REMARK    2  A    between atoms: C_2  and  C_3
REMARK    3  A    between atoms: C_2  and  N_4
REMARK    4  A    between atoms: N_4  and  C_5
REMARK    5  A    between atoms: C_5  and  C_6
REMARK    6  A    between atoms: C_6  and  C_7
REMARK    7  A    between atoms: C_11  and  N_12
REMARK    8  A    between atoms: N_12  and  C_13
REMARK    9  A    between atoms: C_21  and  C_22
REMARK                            x       y       z     vdW  Elec       q    Type
REMARK                         _______ _______ _______ _____ _____    ______ ____
ROOT
ATOM      1  N   UNL     1      48.571   7.372  18.429  0.00  0.00    +0.000 N 
ATOM      2  C   UNL     1      48.968   6.048  18.192  0.00  0.00    +0.000 A 
ATOM      3  C   UNL     1      48.176   5.243  17.366  0.00  0.00    +0.000 A 
ATOM      4  C   UNL     1      48.598   3.962  17.011  0.00  0.00    +0.000 A 
ATOM      5  C   UNL     1      49.820   3.486  17.478  0.00  0.00    +0.000 A 
ATOM      6  C   UNL     1      50.544   4.336  18.300  0.00  0.00    +0.000 A 
ATOM      7  N   UNL     1      50.139   5.584  18.674  0.00  0.00    +0.000 NA
ENDROOT
BRANCH   5   8
ATOM      8  C   UNL     1      50.250   2.128  17.069  0.00  0.00    +0.000 C 
ATOM      9  N   UNL     1      51.120   1.428  17.865  0.00  0.00    +0.000 N 
ATOM     10  O   UNL     1      49.836   1.613  16.035  0.00  0.00    +0.000 OA
ATOM     11  H   UNL     1      51.510   1.748  18.741  0.00  0.00    +0.000 HD
ATOM     12  H   UNL     1      51.373   0.502  17.542  0.00  0.00    +0.000 HD
ENDBRANCH   5   8
BRANCH   1  14
ATOM     13  C   UNL     1      49.951   9.131  19.616  0.00  0.00    +0.000 C 
ATOM     14  C   UNL     1      48.968   7.969  19.722  0.00  0.00    +0.000 C 
ATOM     15  C   UNL     1      47.725   8.403  20.513  0.00  0.00    +0.000 C 
ENDBRANCH   1  14
BRANCH   1  16
ATOM     16  C   UNL     1      48.455   8.201  17.204  0.00  0.00    +0.000 C 
BRANCH  16  17
ATOM     17  C   UNL     1      49.661   8.048  16.256  0.00  0.00    +0.000 C 
BRANCH  17  18
ATOM     18  C   UNL     1      49.387   7.837  14.783  0.00  0.00    +0.000 A 
ATOM     19  C   UNL     1      50.340   8.293  13.861  0.00  0.00    +0.000 A 
ATOM     20  C   UNL     1      50.216   8.003  12.504  0.00  0.00    +0.000 A 
ATOM     21  C   UNL     1      49.131   7.258  12.043  0.00  0.00    +0.000 A 
ATOM     22  C   UNL     1      48.168   6.785  12.935  0.00  0.00    +0.000 A 
ATOM     23  C   UNL     1      48.310   7.073  14.305  0.00  0.00    +0.000 A 
BRANCH  22  24
ATOM     24  N   UNL     1      47.057   6.016  12.521  0.00  0.00    +0.000 N 
ATOM     25  H   UNL     1      46.518   6.532  11.824  0.00  0.00    +0.000 HD
BRANCH  24  26
ATOM     26  C   UNL     1      46.257   5.168  13.368  0.00  0.00    +0.000 C 
ATOM     27  C   UNL     1      46.871   3.774  13.571  0.00  0.00    +0.000 C 
ATOM     28  O   UNL     1      45.666   3.127  13.095  0.00  0.00    +0.000 OA
ATOM     29  C   UNL     1      45.114   4.405  12.692  0.00  0.00    +0.000 C 
ENDBRANCH  24  26
ENDBRANCH  22  24
ENDBRANCH  17  18
ENDBRANCH  16  17
ENDBRANCH   1  16
TORSDOF 7
ENDMDL
MODEL 8
REMARK VINA RESULT:    -6.274      4.003      6.273
REMARK INTER + INTRA:          -9.069
REMARK INTER:                  -7.986
REMARK INTRA:                  -1.083
REMARK UNBOUND:                -0.227
REMARK  Name = 
REMARK  9 active torsions:
REMARK  status: ('A' for Active; 'I' for Inactive)
REMARK    1  A    between atoms: C_1  and  C_2
REMARK    2  A    between atoms: C_2  and  C_3
REMARK    3  A    between atoms: C_2  and  N_4
REMARK    4  A    between atoms: N_4  and  C_5
REMARK    5  A    between atoms: C_5  and  C_6
REMARK    6  A    between atoms: C_6  and  C_7
REMARK    7  A    between atoms: C_11  and  N_12
REMARK    8  A    between atoms: N_12  and  C_13
REMARK    9  A    between atoms: C_21  and  C_22
REMARK                            x       y       z     vdW  Elec       q    Type
REMARK                         _______ _______ _______ _____ _____    ______ ____
ROOT
ATOM      1  N   UNL     1      49.068   7.974  13.341  0.00  0.00    +0.000 N 
ATOM      2  C   UNL     1      47.781   7.530  13.004  0.00  0.00    +0.000 A 
ATOM      3  C   UNL     1      47.604   6.196  12.623  0.00  0.00    +0.000 A 
ATOM      4  C   UNL     1      46.325   5.688  12.397  0.00  0.00    +0.000 A 
ATOM      5  C   UNL     1      45.218   6.515  12.558  0.00  0.00    +0.000 A 
ATOM      6  C   UNL     1      45.471   7.827  12.927  0.00  0.00    +0.000 A 
ATOM      7  N   UNL     1      46.716   8.348  13.134  0.00  0.00    +0.000 NA
ENDROOT
BRANCH   5   8
ATOM      8  C   UNL     1      43.870   5.943  12.328  0.00  0.00    +0.000 C 
ATOM      9  N   UNL     1      43.316   6.005  11.075  0.00  0.00    +0.000 N 
ATOM     10  O   UNL     1      43.242   5.406  13.235  0.00  0.00    +0.000 OA
ATOM     11  H   UNL     1      43.748   6.409  10.256  0.00  0.00    +0.000 HD
ATOM     12  H   UNL     1      42.397   5.590  10.973  0.00  0.00    +0.000 HD
ENDBRANCH   5   8
BRANCH   1  14
ATOM     13  C   UNL     1      50.333  10.032  14.095  0.00  0.00    +0.000 C 
ATOM     14  C   UNL     1      49.371   9.399  13.095  0.00  0.00    +0.000 C 
ATOM     15  C   UNL     1      49.897   9.593  11.665  0.00  0.00    +0.000 C 
ENDBRANCH   1  14
BRANCH   1  16
ATOM     16  C   UNL     1      49.686   7.241  14.474  0.00  0.00    +0.000 C 
BRANCH  16  17
ATOM     17  C   UNL     1      48.725   7.049  15.664  0.00  0.00    +0.000 C 
BRANCH  17  18
ATOM     18  C   UNL     1      48.693   5.696  16.342  0.00  0.00    +0.000 A 
ATOM     19  C   UNL     1      47.612   4.847  16.072  0.00  0.00    +0.000 A 
ATOM     20  C   UNL     1      47.596   3.538  16.548  0.00  0.00    +0.000 A 
ATOM     21  C   UNL     1      48.659   3.057  17.312  0.00  0.00    +0.000 A 
ATOM     22  C   UNL     1      49.754   3.876  17.594  0.00  0.00    +0.000 A 
ATOM     23  C   UNL     1      49.765   5.192  17.096  0.00  0.00    +0.000 A 
BRANCH  22  24
ATOM     24  N   UNL     1      50.862   3.433  18.351  0.00  0.00    +0.000 N 
ATOM     25  H   UNL     1      51.010   4.056  19.146  0.00  0.00    +0.000 HD
BRANCH  24  26
ATOM     26  C   UNL     1      52.075   2.869  17.817  0.00  0.00    +0.000 C 
ATOM     27  C   UNL     1      52.022   1.337  17.700  0.00  0.00    +0.000 C 
ATOM     28  O   UNL     1      53.220   1.191  18.500  0.00  0.00    +0.000 OA
ATOM     29  C   UNL     1      53.207   2.606  18.815  0.00  0.00    +0.000 C 
ENDBRANCH  24  26
ENDBRANCH  22  24
ENDBRANCH  17  18
ENDBRANCH  16  17
ENDBRANCH   1  16
TORSDOF 7
ENDMDL
MODEL 9
REMARK VINA RESULT:    -6.007      3.330      5.356
REMARK INTER + INTRA:          -8.693
REMARK INTER:                  -7.870
REMARK INTRA:                  -0.822
REMARK UNBOUND:                -0.227
REMARK  Name = 
REMARK  9 active torsions:
REMARK  status: ('A' for Active; 'I' for Inactive)
REMARK    1  A    between atoms: C_1  and  C_2
REMARK    2  A    between atoms: C_2  and  C_3
REMARK    3  A    between atoms: C_2  and  N_4
REMARK    4  A    between atoms: N_4  and  C_5
REMARK    5  A    between atoms: C_5  and  C_6
REMARK    6  A    between atoms: C_6  and  C_7
REMARK    7  A    between atoms: C_11  and  N_12
REMARK    8  A    between atoms: N_12  and  C_13
REMARK    9  A    between atoms: C_21  and  C_22
REMARK                            x       y       z     vdW  Elec       q    Type
REMARK                         _______ _______ _______ _____ _____    ______ ____
ROOT
ATOM      1  N   UNL     1      48.085   7.092  12.858  0.00  0.00    +0.000 N 
ATOM      2  C   UNL     1      47.055   6.204  12.516  0.00  0.00    +0.000 A 
ATOM      3  C   UNL     1      46.934   5.003  13.222  0.00  0.00    +0.000 A 
ATOM      4  C   UNL     1      45.854   4.152  12.992  0.00  0.00    +0.000 A 
ATOM      5  C   UNL     1      44.887   4.504  12.055  0.00  0.00    +0.000 A 
ATOM      6  C   UNL     1      45.080   5.703  11.386  0.00  0.00    +0.000 A 
ATOM      7  N   UNL     1      46.139   6.540  11.584  0.00  0.00    +0.000 NA
ENDROOT
BRANCH   5   8
ATOM      8  C   UNL     1      43.742   3.588  11.844  0.00  0.00    +0.000 C 
ATOM      9  N   UNL     1      43.687   2.405  12.537  0.00  0.00    +0.000 N 
ATOM     10  O   UNL     1      42.836   3.869  11.066  0.00  0.00    +0.000 OA
ATOM     11  H   UNL     1      44.368   2.082  13.210  0.00  0.00    +0.000 HD
ATOM     12  H   UNL     1      42.878   1.822  12.360  0.00  0.00    +0.000 HD
ENDBRANCH   5   8
BRANCH   1  14
ATOM     13  C   UNL     1      48.417   9.450  12.003  0.00  0.00    +0.000 C 
ATOM     14  C   UNL     1      48.613   7.954  11.780  0.00  0.00    +0.000 C 
ATOM     15  C   UNL     1      50.098   7.650  11.534  0.00  0.00    +0.000 C 
ENDBRANCH   1  14
BRANCH   1  16
ATOM     16  C   UNL     1      48.040   7.561  14.265  0.00  0.00    +0.000 C 
BRANCH  16  17
ATOM     17  C   UNL     1      49.139   6.933  15.146  0.00  0.00    +0.000 C 
BRANCH  17  18
ATOM     18  C   UNL     1      48.726   6.304  16.459  0.00  0.00    +0.000 A 
ATOM     19  C   UNL     1      48.118   5.042  16.425  0.00  0.00    +0.000 A 
ATOM     20  C   UNL     1      47.847   4.348  17.603  0.00  0.00    +0.000 A 
ATOM     21  C   UNL     1      48.172   4.910  18.837  0.00  0.00    +0.000 A 
ATOM     22  C   UNL     1      48.783   6.163  18.905  0.00  0.00    +0.000 A 
ATOM     23  C   UNL     1      49.063   6.848  17.709  0.00  0.00    +0.000 A 
BRANCH  22  24
ATOM     24  N   UNL     1      49.143   6.770  20.129  0.00  0.00    +0.000 N 
ATOM     25  H   UNL     1      48.946   7.771  20.092  0.00  0.00    +0.000 HD
BRANCH  24  26
ATOM     26  C   UNL     1      50.291   6.430  20.931  0.00  0.00    +0.000 C 
ATOM     27  C   UNL     1      51.485   5.946  20.093  0.00  0.00    +0.000 C 
ATOM     28  O   UNL     1      51.563   4.709  20.840  0.00  0.00    +0.000 OA
ATOM     29  C   UNL     1      50.323   5.018  21.523  0.00  0.00    +0.000 C 
ENDBRANCH  24  26
ENDBRANCH  22  24
ENDBRANCH  17  18
ENDBRANCH  16  17
ENDBRANCH   1  16
TORSDOF 7
ENDMDL
