MODEL 1
REMARK VINA RESULT:    -8.007      0.000      0.000
REMARK INTER + INTRA:         -11.615
REMARK INTER:                 -10.815
REMARK INTRA:                  -0.799
REMARK UNBOUND:                -0.799
REMARK  Name = 
REMARK  6 active torsions:
REMARK  status: ('A' for Active; 'I' for Inactive)
REMARK    1  A    between atoms: C_2  and  C_4
REMARK    2  A    between atoms: C_7  and  O_8
REMARK    3  A    between atoms: O_8  and  C_9
REMARK    4  A    between atoms: C_9  and  C_10
REMARK    5  A    between atoms: C_10  and  C_11
REMARK    6  A    between atoms: C_16  and  N_17
REMARK                            x       y       z     vdW  Elec       q    Type
REMARK                         _______ _______ _______ _____ _____    ______ ____
ROOT
ATOM      1  C   UNL     1      43.871   4.617  12.602  0.00  0.00    +0.000 C 
ENDROOT
BRANCH   1   2
ATOM      2  C   UNL     1      45.272   5.136  12.833  0.00  0.00    +0.000 A 
ATOM      3  C   UNL     1      45.827   6.099  11.984  0.00  0.00    +0.000 A 
ATOM      4  C   UNL     1      47.106   6.592  12.228  0.00  0.00    +0.000 A 
ATOM      5  C   UNL     1      47.822   6.151  13.339  0.00  0.00    +0.000 A 
ATOM      6  F   UNL     1      49.058   6.649  13.515  0.00  0.00    +0.000 F 
ATOM      7  C   UNL     1      47.299   5.205  14.236  0.00  0.00    +0.000 A 
ATOM      8  C   UNL     1      46.019   4.698  13.943  0.00  0.00    +0.000 A 
BRANCH   7   9
ATOM      9  N   UNL     1      47.951   4.801  15.389  0.00  0.00    +0.000 N 
ATOM     10  C   UNL     1      47.746   3.465  15.967  0.00  0.00    +0.000 C 
ATOM     11  C   UNL     1      47.114   3.556  17.361  0.00  0.00    +0.000 C 
ATOM     12  O   UNL     1      47.856   4.439  18.221  0.00  0.00    +0.000 OA
ATOM     13  C   UNL     1      47.881   5.763  17.661  0.00  0.00    +0.000 C 
ATOM     14  C   UNL     1      48.572   5.786  16.286  0.00  0.00    +0.000 C 
ENDBRANCH   7   9
ENDBRANCH   1   2
BRANCH   1  15
ATOM     15  C   UNL     1      43.451   4.758  11.139  0.00  0.00    +0.000 C 
BRANCH  15  16
ATOM     16  O   UNL     1      43.460   3.475  10.493  0.00  0.00    +0.000 OA
BRANCH  16  20
ATOM     17  C   UNL     1      46.367   2.650   7.695  0.00  0.00    +0.000 A 
ATOM     18  C   UNL     1      45.982   3.981   7.827  0.00  0.00    +0.000 A 
ATOM     19  C   UNL     1      45.002   4.301   8.764  0.00  0.00    +0.000 A 
ATOM     20  C   UNL     1      44.434   3.297   9.547  0.00  0.00    +0.000 A 
ATOM     21  C   UNL     1      44.889   1.996   9.339  0.00  0.00    +0.000 A 
ATOM     22  N   UNL     1      45.841   1.639   8.435  0.00  0.00    +0.000 NA
BRANCH  17  24
ATOM     23  N   UNL     1      47.491   3.075   5.567  0.00  0.00    +0.000 N 
ATOM     24  C   UNL     1      47.412   2.291   6.685  0.00  0.00    +0.000 C 
ATOM     25  O   UNL     1      48.187   1.350   6.850  0.00  0.00    +0.000 OA
ATOM     26  H   UNL     1      48.237   2.895   4.911  0.00  0.00    +0.000 HD
ATOM     27  H   UNL     1      46.968   3.943   5.517  0.00  0.00    +0.000 HD
ENDBRANCH  17  24
ENDBRANCH  16  20
ENDBRANCH  15  16
ENDBRANCH   1  15
TORSDOF 6
ENDMDL
MODEL 2
REMARK VINA RESULT:    -7.755      2.363      3.343
REMARK INTER + INTRA:         -11.274
REMARK INTER:                 -10.325
REMARK INTRA:                  -0.949
REMARK UNBOUND:                -0.799
REMARK  Name = 
REMARK  6 active torsions:
REMARK  status: ('A' for Active; 'I' for Inactive)
REMARK    1  A    between atoms: C_2  and  C_4
REMARK    2  A    between atoms: C_7  and  O_8
REMARK    3  A    between atoms: O_8  and  C_9
REMARK    4  A    between atoms: C_9  and  C_10
REMARK    5  A    between atoms: C_10  and  C_11
REMARK    6  A    between atoms: C_16  and  N_17
REMARK                            x       y       z     vdW  Elec       q    Type
REMARK                         _______ _______ _______ _____ _____    ______ ____
ROOT
ATOM      1  C   UNL     1      43.311   5.408  12.221  0.00  0.00    +0.000 C 
ENDROOT
BRANCH   1   2
ATOM      2  C   UNL     1      44.715   5.629  12.737  0.00  0.00    +0.000 A 
ATOM      3  C   UNL     1      45.328   4.687  13.568  0.00  0.00    +0.000 A 
ATOM      4  C   UNL     1      46.634   4.889  14.008  0.00  0.00    +0.000 A 
ATOM      5  C   UNL     1      47.343   6.013  13.594  0.00  0.00    +0.000 A 
ATOM      6  F   UNL     1      48.593   6.165  14.063  0.00  0.00    +0.000 F 
ATOM      7  C   UNL     1      46.781   6.976  12.739  0.00  0.00    +0.000 A 
ATOM      8  C   UNL     1      45.448   6.764  12.340  0.00  0.00    +0.000 A 
BRANCH   7   9
ATOM      9  N   UNL     1      47.480   8.065  12.248  0.00  0.00    +0.000 N 
ATOM     10  C   UNL     1      48.697   7.904  11.438  0.00  0.00    +0.000 C 
ATOM     11  C   UNL     1      49.916   8.504  12.147  0.00  0.00    +0.000 C 
ATOM     12  O   UNL     1      49.678   9.865  12.548  0.00  0.00    +0.000 OA
ATOM     13  C   UNL     1      48.567   9.920  13.459  0.00  0.00    +0.000 C 
ATOM     14  C   UNL     1      47.271   9.408  12.807  0.00  0.00    +0.000 C 
ENDBRANCH   7   9
ENDBRANCH   1   2
BRANCH   1  15
ATOM     15  C   UNL     1      43.302   5.104  10.723  0.00  0.00    +0.000 C 
BRANCH  15  16
ATOM     16  O   UNL     1      43.472   3.696  10.501  0.00  0.00    +0.000 OA
BRANCH  16  20
ATOM     17  C   UNL     1      46.334   2.385   7.844  0.00  0.00    +0.000 A 
ATOM     18  C   UNL     1      46.066   3.751   7.856  0.00  0.00    +0.000 A 
ATOM     19  C   UNL     1      45.105   4.233   8.742  0.00  0.00    +0.000 A 
ATOM     20  C   UNL     1      44.439   3.354   9.593  0.00  0.00    +0.000 A 
ATOM     21  C   UNL     1      44.781   2.004   9.504  0.00  0.00    +0.000 A 
ATOM     22  N   UNL     1      45.710   1.491   8.655  0.00  0.00    +0.000 NA
BRANCH  17  24
ATOM     23  N   UNL     1      48.378   2.692   6.541  0.00  0.00    +0.000 N 
ATOM     24  C   UNL     1      47.357   1.852   6.890  0.00  0.00    +0.000 C 
ATOM     25  O   UNL     1      47.307   0.705   6.450  0.00  0.00    +0.000 OA
ATOM     26  H   UNL     1      49.118   2.326   5.959  0.00  0.00    +0.000 HD
ATOM     27  H   UNL     1      48.506   3.569   7.035  0.00  0.00    +0.000 HD
ENDBRANCH  17  24
ENDBRANCH  16  20
ENDBRANCH  15  16
ENDBRANCH   1  15
TORSDOF 6
ENDMDL
MODEL 3
REMARK VINA RESULT:    -7.481      2.753      3.337
REMARK INTER + INTRA:         -10.904
REMARK INTER:                 -10.276
REMARK INTRA:                  -0.628
REMARK UNBOUND:                -0.799
REMARK  Name = 
REMARK  6 active torsions:
REMARK  status: ('A' for Active; 'I' for Inactive)
REMARK    1  A    between atoms: C_2  and  C_4
REMARK    2  A    between atoms: C_7  and  O_8
REMARK    3  A    between atoms: O_8  and  C_9
REMARK    4  A    between atoms: C_9  and  C_10
REMARK    5  A    between atoms: C_10  and  C_11
REMARK    6  A    between atoms: C_16  and  N_17
REMARK                            x       y       z     vdW  Elec       q    Type
REMARK                         _______ _______ _______ _____ _____    ______ ____
ROOT
ATOM      1  C   UNL     1      43.516   3.810  12.784  0.00  0.00    +0.000 C 
ENDROOT
BRANCH   1   2
ATOM      2  C   UNL     1      44.043   5.165  12.367  0.00  0.00    +0.000 A 
ATOM      3  C   UNL     1      43.253   6.038  11.612  0.00  0.00    +0.000 A 
ATOM      4  C   UNL     1      43.740   7.295  11.264  0.00  0.00    +0.000 A 
ATOM      5  C   UNL     1      45.001   7.699  11.695  0.00  0.00    +0.000 A 
ATOM      6  F   UNL     1      45.425   8.916  11.316  0.00  0.00    +0.000 F 
ATOM      7  C   UNL     1      45.822   6.869  12.477  0.00  0.00    +0.000 A 
ATOM      8  C   UNL     1      45.319   5.590  12.783  0.00  0.00    +0.000 A 
BRANCH   7   9
ATOM      9  N   UNL     1      47.047   7.265  12.986  0.00  0.00    +0.000 N 
ATOM     10  C   UNL     1      47.181   8.441  13.859  0.00  0.00    +0.000 C 
ATOM     11  C   UNL     1      48.050   9.520  13.204  0.00  0.00    +0.000 C 
ATOM     12  O   UNL     1      49.314   8.990  12.770  0.00  0.00    +0.000 OA
ATOM     13  C   UNL     1      49.102   7.947  11.803  0.00  0.00    +0.000 C 
ATOM     14  C   UNL     1      48.301   6.775  12.396  0.00  0.00    +0.000 C 
ENDBRANCH   7   9
ENDBRANCH   1   2
BRANCH   1  15
ATOM     15  C   UNL     1      43.640   2.785  11.656  0.00  0.00    +0.000 C 
BRANCH  15  16
ATOM     16  O   UNL     1      43.420   3.416  10.385  0.00  0.00    +0.000 OA
BRANCH  16  20
ATOM     17  C   UNL     1      46.406   2.626   7.660  0.00  0.00    +0.000 A 
ATOM     18  C   UNL     1      45.995   3.951   7.775  0.00  0.00    +0.000 A 
ATOM     19  C   UNL     1      44.988   4.259   8.687  0.00  0.00    +0.000 A 
ATOM     20  C   UNL     1      44.419   3.250   9.462  0.00  0.00    +0.000 A 
ATOM     21  C   UNL     1      44.901   1.955   9.273  0.00  0.00    +0.000 A 
ATOM     22  N   UNL     1      45.880   1.611   8.394  0.00  0.00    +0.000 NA
BRANCH  17  24
ATOM     23  N   UNL     1      47.579   3.067   5.562  0.00  0.00    +0.000 N 
ATOM     24  C   UNL     1      47.480   2.280   6.677  0.00  0.00    +0.000 C 
ATOM     25  O   UNL     1      48.261   1.348   6.860  0.00  0.00    +0.000 OA
ATOM     26  H   UNL     1      48.344   2.896   4.925  0.00  0.00    +0.000 HD
ATOM     27  H   UNL     1      47.048   3.929   5.500  0.00  0.00    +0.000 HD
ENDBRANCH  17  24
ENDBRANCH  16  20
ENDBRANCH  15  16
ENDBRANCH   1  15
TORSDOF 6
ENDMDL
MODEL 4
REMARK VINA RESULT:    -7.331      3.210      4.873
REMARK INTER + INTRA:         -10.701
REMARK INTER:                 -10.267
REMARK INTRA:                  -0.434
REMARK UNBOUND:                -0.799
REMARK  Name = 
REMARK  6 active torsions:
REMARK  status: ('A' for Active; 'I' for Inactive)
REMARK    1  A    between atoms: C_2  and  C_4
REMARK    2  A    between atoms: C_7  and  O_8
REMARK    3  A    between atoms: O_8  and  C_9
REMARK    4  A    between atoms: C_9  and  C_10
REMARK    5  A    between atoms: C_10  and  C_11
REMARK    6  A    between atoms: C_16  and  N_17
REMARK                            x       y       z     vdW  Elec       q    Type
REMARK                         _______ _______ _______ _____ _____    ______ ____
ROOT
ATOM      1  C   UNL     1      44.467   4.726  12.222  0.00  0.00    +0.000 C 
ENDROOT
BRANCH   1   2
ATOM      2  C   UNL     1      45.294   5.991  12.184  0.00  0.00    +0.000 A 
ATOM      3  C   UNL     1      46.687   5.939  12.288  0.00  0.00    +0.000 A 
ATOM      4  C   UNL     1      47.437   7.110  12.218  0.00  0.00    +0.000 A 
ATOM      5  C   UNL     1      46.803   8.332  12.012  0.00  0.00    +0.000 A 
ATOM      6  F   UNL     1      47.576   9.431  11.970  0.00  0.00    +0.000 F 
ATOM      7  C   UNL     1      45.409   8.435  11.876  0.00  0.00    +0.000 A 
ATOM      8  C   UNL     1      44.674   7.240  11.987  0.00  0.00    +0.000 A 
BRANCH   7   9
ATOM      9  N   UNL     1      44.752   9.622  11.595  0.00  0.00    +0.000 N 
ATOM     10  C   UNL     1      43.510   9.653  10.809  0.00  0.00    +0.000 C 
ATOM     11  C   UNL     1      43.704  10.427   9.500  0.00  0.00    +0.000 C 
ATOM     12  O   UNL     1      44.259  11.733   9.735  0.00  0.00    +0.000 OA
ATOM     13  C   UNL     1      45.543  11.612  10.370  0.00  0.00    +0.000 C 
ATOM     14  C   UNL     1      45.439  10.913  11.737  0.00  0.00    +0.000 C 
ENDBRANCH   7   9
ENDBRANCH   1   2
BRANCH   1  15
ATOM     15  C   UNL     1      43.455   4.679  11.077  0.00  0.00    +0.000 C 
BRANCH  15  16
ATOM     16  O   UNL     1      43.497   3.398  10.429  0.00  0.00    +0.000 OA
BRANCH  16  20
ATOM     17  C   UNL     1      46.408   2.657   7.611  0.00  0.00    +0.000 A 
ATOM     18  C   UNL     1      46.030   3.984   7.790  0.00  0.00    +0.000 A 
ATOM     19  C   UNL     1      45.049   4.276   8.735  0.00  0.00    +0.000 A 
ATOM     20  C   UNL     1      44.472   3.249   9.479  0.00  0.00    +0.000 A 
ATOM     21  C   UNL     1      44.921   1.953   9.226  0.00  0.00    +0.000 A 
ATOM     22  N   UNL     1      45.873   1.624   8.313  0.00  0.00    +0.000 NA
BRANCH  17  24
ATOM     23  N   UNL     1      47.370   2.970   5.387  0.00  0.00    +0.000 N 
ATOM     24  C   UNL     1      47.454   2.329   6.592  0.00  0.00    +0.000 C 
ATOM     25  O   UNL     1      48.367   1.537   6.821  0.00  0.00    +0.000 OA
ATOM     26  H   UNL     1      48.109   2.818   4.715  0.00  0.00    +0.000 HD
ATOM     27  H   UNL     1      46.722   3.741   5.266  0.00  0.00    +0.000 HD
ENDBRANCH  17  24
ENDBRANCH  16  20
ENDBRANCH  15  16
ENDBRANCH   1  15
TORSDOF 6
ENDMDL
MODEL 5
REMARK VINA RESULT:    -7.264      2.343      7.737
REMARK INTER + INTRA:         -10.611
REMARK INTER:                 -10.009
REMARK INTRA:                  -0.602
REMARK UNBOUND:                -0.799
REMARK  Name = 
REMARK  6 active torsions:
REMARK  status: ('A' for Active; 'I' for Inactive)
REMARK    1  A    between atoms: C_2  and  C_4
REMARK    2  A    between atoms: C_7  and  O_8
REMARK    3  A    between atoms: O_8  and  C_9
REMARK    4  A    between atoms: C_9  and  C_10
REMARK    5  A    between atoms: C_10  and  C_11
REMARK    6  A    between atoms: C_16  and  N_17
REMARK                            x       y       z     vdW  Elec       q    Type
REMARK                         _______ _______ _______ _____ _____    ______ ____
ROOT
ATOM      1  C   UNL     1      45.322   7.312  11.710  0.00  0.00    +0.000 C 
ENDROOT
BRANCH   1   2
ATOM      2  C   UNL     1      44.740   5.920  11.620  0.00  0.00    +0.000 A 
ATOM      3  C   UNL     1      43.960   5.402  12.659  0.00  0.00    +0.000 A 
ATOM      4  C   UNL     1      43.403   4.131  12.547  0.00  0.00    +0.000 A 
ATOM      5  C   UNL     1      43.593   3.386  11.386  0.00  0.00    +0.000 A 
ATOM      6  F   UNL     1      43.046   2.160  11.341  0.00  0.00    +0.000 F 
ATOM      7  C   UNL     1      44.346   3.872  10.304  0.00  0.00    +0.000 A 
ATOM      8  C   UNL     1      44.927   5.144  10.460  0.00  0.00    +0.000 A 
BRANCH   7   9
ATOM      9  N   UNL     1      44.493   3.191   9.107  0.00  0.00    +0.000 N 
ATOM     10  C   UNL     1      44.787   1.751   9.066  0.00  0.00    +0.000 C 
ATOM     11  C   UNL     1      46.150   1.482   8.418  0.00  0.00    +0.000 C 
ATOM     12  O   UNL     1      46.260   2.121   7.134  0.00  0.00    +0.000 OA
ATOM     13  C   UNL     1      46.113   3.544   7.280  0.00  0.00    +0.000 C 
ATOM     14  C   UNL     1      44.735   3.918   7.853  0.00  0.00    +0.000 C 
ENDBRANCH   7   9
ENDBRANCH   1   2
BRANCH   1  15
ATOM     15  C   UNL     1      46.271   7.451  12.900  0.00  0.00    +0.000 C 
BRANCH  15  16
ATOM     16  O   UNL     1      47.257   6.407  12.874  0.00  0.00    +0.000 OA
BRANCH  16  20
ATOM     17  C   UNL     1      47.773   4.273  16.359  0.00  0.00    +0.000 A 
ATOM     18  C   UNL     1      48.406   5.510  16.280  0.00  0.00    +0.000 A 
ATOM     19  C   UNL     1      48.254   6.263  15.118  0.00  0.00    +0.000 A 
ATOM     20  C   UNL     1      47.479   5.774  14.068  0.00  0.00    +0.000 A 
ATOM     21  C   UNL     1      46.886   4.524  14.246  0.00  0.00    +0.000 A 
ATOM     22  N   UNL     1      47.008   3.756  15.361  0.00  0.00    +0.000 NA
BRANCH  17  24
ATOM     23  N   UNL     1      46.932   2.568  17.894  0.00  0.00    +0.000 N 
ATOM     24  C   UNL     1      47.936   3.449  17.598  0.00  0.00    +0.000 C 
ATOM     25  O   UNL     1      48.931   3.533  18.314  0.00  0.00    +0.000 OA
ATOM     26  H   UNL     1      47.059   1.951  18.684  0.00  0.00    +0.000 HD
ATOM     27  H   UNL     1      46.202   2.382  17.215  0.00  0.00    +0.000 HD
ENDBRANCH  17  24
ENDBRANCH  16  20
ENDBRANCH  15  16
ENDBRANCH   1  15
TORSDOF 6
ENDMDL
MODEL 6
REMARK VINA RESULT:    -7.204      3.024      8.285
REMARK INTER + INTRA:         -10.531
REMARK INTER:                 -10.083
REMARK INTRA:                  -0.448
REMARK UNBOUND:                -0.799
REMARK  Name = 
REMARK  6 active torsions:
REMARK  status: ('A' for Active; 'I' for Inactive)
REMARK    1  A    between atoms: C_2  and  C_4
REMARK    2  A    between atoms: C_7  and  O_8
REMARK    3  A    between atoms: O_8  and  C_9
REMARK    4  A    between atoms: C_9  and  C_10
REMARK    5  A    between atoms: C_10  and  C_11
REMARK    6  A    between atoms: C_16  and  N_17
REMARK                            x       y       z     vdW  Elec       q    Type
REMARK                         _______ _______ _______ _____ _____    ______ ____
ROOT
ATOM      1  C   UNL     1      46.925   3.640  13.835  0.00  0.00    +0.000 C 
ENDROOT
BRANCH   1   2
ATOM      2  C   UNL     1      45.809   4.076  12.914  0.00  0.00    +0.000 A 
ATOM      3  C   UNL     1      44.905   5.068  13.305  0.00  0.00    +0.000 A 
ATOM      4  C   UNL     1      43.902   5.483  12.433  0.00  0.00    +0.000 A 
ATOM      5  C   UNL     1      43.818   4.934  11.156  0.00  0.00    +0.000 A 
ATOM      6  F   UNL     1      42.821   5.360  10.363  0.00  0.00    +0.000 F 
ATOM      7  C   UNL     1      44.718   3.953  10.706  0.00  0.00    +0.000 A 
ATOM      8  C   UNL     1      45.698   3.528  11.622  0.00  0.00    +0.000 A 
BRANCH   7   9
ATOM      9  N   UNL     1      44.711   3.440   9.419  0.00  0.00    +0.000 N 
ATOM     10  C   UNL     1      44.684   1.993   9.162  0.00  0.00    +0.000 C 
ATOM     11  C   UNL     1      45.955   1.536   8.437  0.00  0.00    +0.000 C 
ATOM     12  O   UNL     1      46.198   2.317   7.254  0.00  0.00    +0.000 OA
ATOM     13  C   UNL     1      46.365   3.701   7.607  0.00  0.00    +0.000 C 
ATOM     14  C   UNL     1      45.103   4.275   8.275  0.00  0.00    +0.000 C 
ENDBRANCH   7   9
ENDBRANCH   1   2
BRANCH   1  15
ATOM     15  C   UNL     1      47.033   4.548  15.060  0.00  0.00    +0.000 C 
BRANCH  15  16
ATOM     16  O   UNL     1      47.059   3.761  16.261  0.00  0.00    +0.000 OA
BRANCH  16  20
ATOM     17  C   UNL     1      50.756   2.311  17.352  0.00  0.00    +0.000 A 
ATOM     18  C   UNL     1      50.416   3.577  17.817  0.00  0.00    +0.000 A 
ATOM     19  C   UNL     1      49.173   4.102  17.471  0.00  0.00    +0.000 A 
ATOM     20  C   UNL     1      48.300   3.359  16.678  0.00  0.00    +0.000 A 
ATOM     21  C   UNL     1      48.735   2.101  16.264  0.00  0.00    +0.000 A 
ATOM     22  N   UNL     1      49.938   1.551  16.577  0.00  0.00    +0.000 NA
BRANCH  17  24
ATOM     23  N   UNL     1      52.124   0.427  18.093  0.00  0.00    +0.000 N 
ATOM     24  C   UNL     1      52.093   1.739  17.708  0.00  0.00    +0.000 C 
ATOM     25  O   UNL     1      53.127   2.400  17.640  0.00  0.00    +0.000 OA
ATOM     26  H   UNL     1      53.025   0.003  18.265  0.00  0.00    +0.000 HD
ATOM     27  H   UNL     1      51.301  -0.155  17.984  0.00  0.00    +0.000 HD
ENDBRANCH  17  24
ENDBRANCH  16  20
ENDBRANCH  15  16
ENDBRANCH   1  15
TORSDOF 6
ENDMDL
MODEL 7
REMARK VINA RESULT:    -6.951      2.020      2.654
REMARK INTER + INTRA:         -10.189
REMARK INTER:                  -9.316
REMARK INTRA:                  -0.873
REMARK UNBOUND:                -0.799
REMARK  Name = 
REMARK  6 active torsions:
REMARK  status: ('A' for Active; 'I' for Inactive)
REMARK    1  A    between atoms: C_2  and  C_4
REMARK    2  A    between atoms: C_7  and  O_8
REMARK    3  A    between atoms: O_8  and  C_9
REMARK    4  A    between atoms: C_9  and  C_10
REMARK    5  A    between atoms: C_10  and  C_11
REMARK    6  A    between atoms: C_16  and  N_17
REMARK                            x       y       z     vdW  Elec       q    Type
REMARK                         _______ _______ _______ _____ _____    ______ ____
ROOT
ATOM      1  C   UNL     1      45.463   5.144  12.455  0.00  0.00    +0.000 C 
ENDROOT
BRANCH   1   2
ATOM      2  C   UNL     1      46.681   6.029  12.600  0.00  0.00    +0.000 A 
ATOM      3  C   UNL     1      47.206   6.709  11.497  0.00  0.00    +0.000 A 
ATOM      4  C   UNL     1      48.307   7.546  11.652  0.00  0.00    +0.000 A 
ATOM      5  C   UNL     1      48.868   7.734  12.913  0.00  0.00    +0.000 A 
ATOM      6  F   UNL     1      49.939   8.540  13.001  0.00  0.00    +0.000 F 
ATOM      7  C   UNL     1      48.361   7.094  14.057  0.00  0.00    +0.000 A 
ATOM      8  C   UNL     1      47.270   6.226  13.863  0.00  0.00    +0.000 A 
BRANCH   7   9
ATOM      9  N   UNL     1      48.845   7.315  15.335  0.00  0.00    +0.000 N 
ATOM     10  C   UNL     1      48.580   8.568  16.059  0.00  0.00    +0.000 C 
ATOM     11  C   UNL     1      49.880   9.329  16.341  0.00  0.00    +0.000 C 
ATOM     12  O   UNL     1      50.851   8.492  16.993  0.00  0.00    +0.000 OA
ATOM     13  C   UNL     1      51.171   7.368  16.156  0.00  0.00    +0.000 C 
ATOM     14  C   UNL     1      49.936   6.494  15.879  0.00  0.00    +0.000 C 
ENDBRANCH   7   9
ENDBRANCH   1   2
BRANCH   1  15
ATOM     15  C   UNL     1      44.639   5.515  11.222  0.00  0.00    +0.000 C 
BRANCH  15  16
ATOM     16  O   UNL     1      44.071   4.337  10.630  0.00  0.00    +0.000 OA
BRANCH  16  20
ATOM     17  C   UNL     1      46.430   2.812   7.618  0.00  0.00    +0.000 A 
ATOM     18  C   UNL     1      45.821   1.892   8.466  0.00  0.00    +0.000 A 
ATOM     19  C   UNL     1      45.014   2.368   9.497  0.00  0.00    +0.000 A 
ATOM     20  C   UNL     1      44.829   3.740   9.658  0.00  0.00    +0.000 A 
ATOM     21  C   UNL     1      45.482   4.579   8.755  0.00  0.00    +0.000 A 
ATOM     22  N   UNL     1      46.279   4.157   7.737  0.00  0.00    +0.000 NA
BRANCH  17  24
ATOM     23  N   UNL     1      47.350   3.061   5.368  0.00  0.00    +0.000 N 
ATOM     24  C   UNL     1      47.308   2.314   6.512  0.00  0.00    +0.000 C 
ATOM     25  O   UNL     1      47.984   1.293   6.623  0.00  0.00    +0.000 OA
ATOM     26  H   UNL     1      47.993   2.782   4.641  0.00  0.00    +0.000 HD
ATOM     27  H   UNL     1      46.927   3.983   5.347  0.00  0.00    +0.000 HD
ENDBRANCH  17  24
ENDBRANCH  16  20
ENDBRANCH  15  16
ENDBRANCH   1  15
TORSDOF 6
ENDMDL
MODEL 8
REMARK VINA RESULT:    -6.939      2.538      3.743
REMARK INTER + INTRA:         -10.172
REMARK INTER:                  -9.388
REMARK INTRA:                  -0.785
REMARK UNBOUND:                -0.799
REMARK  Name = 
REMARK  6 active torsions:
REMARK  status: ('A' for Active; 'I' for Inactive)
REMARK    1  A    between atoms: C_2  and  C_4
REMARK    2  A    between atoms: C_7  and  O_8
REMARK    3  A    between atoms: O_8  and  C_9
REMARK    4  A    between atoms: C_9  and  C_10
REMARK    5  A    between atoms: C_10  and  C_11
REMARK    6  A    between atoms: C_16  and  N_17
REMARK                            x       y       z     vdW  Elec       q    Type
REMARK                         _______ _______ _______ _____ _____    ______ ____
ROOT
ATOM      1  C   UNL     1      45.635   4.402  12.493  0.00  0.00    +0.000 C 
ENDROOT
BRANCH   1   2
ATOM      2  C   UNL     1      46.564   5.067  13.483  0.00  0.00    +0.000 A 
ATOM      3  C   UNL     1      46.851   4.463  14.711  0.00  0.00    +0.000 A 
ATOM      4  C   UNL     1      47.735   5.072  15.599  0.00  0.00    +0.000 A 
ATOM      5  C   UNL     1      48.361   6.267  15.251  0.00  0.00    +0.000 A 
ATOM      6  F   UNL     1      49.191   6.817  16.153  0.00  0.00    +0.000 F 
ATOM      7  C   UNL     1      48.125   6.899  14.019  0.00  0.00    +0.000 A 
ATOM      8  C   UNL     1      47.200   6.280  13.157  0.00  0.00    +0.000 A 
BRANCH   7   9
ATOM      9  N   UNL     1      48.785   8.046  13.609  0.00  0.00    +0.000 N 
ATOM     10  C   UNL     1      48.062   9.289  13.302  0.00  0.00    +0.000 C 
ATOM     11  C   UNL     1      48.227   9.676  11.828  0.00  0.00    +0.000 C 
ATOM     12  O   UNL     1      49.613   9.718  11.446  0.00  0.00    +0.000 OA
ATOM     13  C   UNL     1      50.212   8.424  11.631  0.00  0.00    +0.000 C 
ATOM     14  C   UNL     1      50.164   7.981  13.104  0.00  0.00    +0.000 C 
ENDBRANCH   7   9
ENDBRANCH   1   2
BRANCH   1  15
ATOM     15  C   UNL     1      45.254   5.348  11.353  0.00  0.00    +0.000 C 
BRANCH  15  16
ATOM     16  O   UNL     1      44.456   4.657  10.380  0.00  0.00    +0.000 OA
BRANCH  16  20
ATOM     17  C   UNL     1      46.660   2.881   7.388  0.00  0.00    +0.000 A 
ATOM     18  C   UNL     1      45.972   2.032   8.250  0.00  0.00    +0.000 A 
ATOM     19  C   UNL     1      45.213   2.595   9.275  0.00  0.00    +0.000 A 
ATOM     20  C   UNL     1      45.154   3.980   9.416  0.00  0.00    +0.000 A 
ATOM     21  C   UNL     1      45.878   4.743   8.501  0.00  0.00    +0.000 A 
ATOM     22  N   UNL     1      46.631   4.236   7.488  0.00  0.00    +0.000 NA
BRANCH  17  24
ATOM     23  N   UNL     1      47.719   3.076   5.195  0.00  0.00    +0.000 N 
ATOM     24  C   UNL     1      47.487   2.289   6.290  0.00  0.00    +0.000 C 
ATOM     25  O   UNL     1      47.961   1.158   6.364  0.00  0.00    +0.000 OA
ATOM     26  H   UNL     1      48.336   2.722   4.478  0.00  0.00    +0.000 HD
ATOM     27  H   UNL     1      47.471   4.059   5.214  0.00  0.00    +0.000 HD
ENDBRANCH  17  24
ENDBRANCH  16  20
ENDBRANCH  15  16
ENDBRANCH   1  15
TORSDOF 6
ENDMDL
MODEL 9
REMARK VINA RESULT:    -6.649      2.808      7.641
REMARK INTER + INTRA:          -9.780
REMARK INTER:                  -8.828
REMARK INTRA:                  -0.952
REMARK UNBOUND:                -0.799
REMARK  Name = 
REMARK  6 active torsions:
REMARK  status: ('A' for Active; 'I' for Inactive)
REMARK    1  A    between atoms: C_2  and  C_4
REMARK    2  A    between atoms: C_7  and  O_8
REMARK    3  A    between atoms: O_8  and  C_9
REMARK    4  A    between atoms: C_9  and  C_10
REMARK    5  A    between atoms: C_10  and  C_11
REMARK    6  A    between atoms: C_16  and  N_17
REMARK                            x       y       z     vdW  Elec       q    Type
REMARK                         _______ _______ _______ _____ _____    ______ ____
ROOT
ATOM      1  C   UNL     1      48.899   8.557  12.311  0.00  0.00    +0.000 C 
ENDROOT
BRANCH   1   2
ATOM      2  C   UNL     1      47.458   8.168  12.076  0.00  0.00    +0.000 A 
ATOM      3  C   UNL     1      46.448   9.135  12.069  0.00  0.00    +0.000 A 
ATOM      4  C   UNL     1      45.129   8.765  11.818  0.00  0.00    +0.000 A 
ATOM      5  C   UNL     1      44.818   7.436  11.541  0.00  0.00    +0.000 A 
ATOM      6  F   UNL     1      43.527   7.135  11.323  0.00  0.00    +0.000 F 
ATOM      7  C   UNL     1      45.800   6.432  11.511  0.00  0.00    +0.000 A 
ATOM      8  C   UNL     1      47.118   6.829  11.804  0.00  0.00    +0.000 A 
BRANCH   7   9
ATOM      9  N   UNL     1      45.539   5.116  11.167  0.00  0.00    +0.000 N 
ATOM     10  C   UNL     1      45.377   4.700   9.766  0.00  0.00    +0.000 C 
ATOM     11  C   UNL     1      43.963   4.168   9.507  0.00  0.00    +0.000 C 
ATOM     12  O   UNL     1      43.604   3.141  10.448  0.00  0.00    +0.000 OA
ATOM     13  C   UNL     1      43.638   3.669  11.785  0.00  0.00    +0.000 C 
ATOM     14  C   UNL     1      45.046   4.160  12.168  0.00  0.00    +0.000 C 
ENDBRANCH   7   9
ENDBRANCH   1   2
BRANCH   1  15
ATOM     15  C   UNL     1      49.560   7.668  13.365  0.00  0.00    +0.000 C 
BRANCH  15  16
ATOM     16  O   UNL     1      49.084   8.013  14.675  0.00  0.00    +0.000 OA
BRANCH  16  20
ATOM     17  C   UNL     1      48.074   4.694  16.894  0.00  0.00    +0.000 A 
ATOM     18  C   UNL     1      48.727   5.724  17.566  0.00  0.00    +0.000 A 
ATOM     19  C   UNL     1      49.084   6.864  16.850  0.00  0.00    +0.000 A 
ATOM     20  C   UNL     1      48.783   6.956  15.492  0.00  0.00    +0.000 A 
ATOM     21  C   UNL     1      48.126   5.871  14.913  0.00  0.00    +0.000 A 
ATOM     22  N   UNL     1      47.761   4.740  15.573  0.00  0.00    +0.000 NA
BRANCH  17  24
ATOM     23  N   UNL     1      48.582   3.004  18.584  0.00  0.00    +0.000 N 
ATOM     24  C   UNL     1      47.694   3.459  17.649  0.00  0.00    +0.000 C 
ATOM     25  O   UNL     1      46.624   2.882  17.465  0.00  0.00    +0.000 OA
ATOM     26  H   UNL     1      48.310   2.216  19.156  0.00  0.00    +0.000 HD
ATOM     27  H   UNL     1      49.377   3.575  18.850  0.00  0.00    +0.000 HD
ENDBRANCH  17  24
ENDBRANCH  16  20
ENDBRANCH  15  16
ENDBRANCH   1  15
TORSDOF 6
ENDMDL
