MODEL 1
REMARK VINA RESULT:    -6.799      0.000      0.000
REMARK INTER + INTRA:          -9.046
REMARK INTER:                  -8.587
REMARK INTRA:                  -0.459
REMARK UNBOUND:                -0.459
REMARK  Name = 
REMARK  5 active torsions:
REMARK  status: ('A' for Active; 'I' for Inactive)
REMARK    1  A    between atoms: N_1  and  C_2
REMARK    2  A    between atoms: C_2  and  C_3
REMARK    3  A    between atoms: C_7  and  C_8
REMARK    4  A    between atoms: C_9  and  C_10
REMARK    5  A    between atoms: C_10  and  C_11
REMARK                            x       y       z     vdW  Elec       q    Type
REMARK                         _______ _______ _______ _____ _____    ______ ____
ROOT
ATOM      1  C   UNL     1      45.154   8.440  11.802  0.00  0.00    +0.000 A 
ATOM      2  C   UNL     1      46.082   8.456  12.838  0.00  0.00    +0.000 A 
ATOM      3  N   UNL     1      46.673   7.351  13.343  0.00  0.00    +0.000 NA
ATOM      4  C   UNL     1      46.314   6.166  12.790  0.00  0.00    +0.000 A 
ATOM      5  C   UNL     1      45.392   6.020  11.756  0.00  0.00    +0.000 A 
ATOM      6  C   UNL     1      44.825   7.194  11.253  0.00  0.00    +0.000 A 
ENDROOT
BRANCH   5   7
ATOM      7  C   UNL     1      45.107   4.690  11.201  0.00  0.00    +0.000 C 
ATOM      8  C   UNL     1      44.779   4.459   9.918  0.00  0.00    +0.000 C 
BRANCH   8   9
ATOM      9  C   UNL     1      44.519   3.091   9.352  0.00  0.00    +0.000 C 
BRANCH   9  10
ATOM     10  C   UNL     1      45.527   2.694   8.301  0.00  0.00    +0.000 A 
ATOM     11  C   UNL     1      45.914   3.601   7.304  0.00  0.00    +0.000 A 
ATOM     12  C   UNL     1      46.850   3.232   6.335  0.00  0.00    +0.000 A 
ATOM     13  C   UNL     1      47.404   1.954   6.351  0.00  0.00    +0.000 A 
ATOM     14  C   UNL     1      47.016   1.040   7.329  0.00  0.00    +0.000 A 
ATOM     15  C   UNL     1      46.080   1.406   8.297  0.00  0.00    +0.000 A 
ENDBRANCH   9  10
ENDBRANCH   8   9
ENDBRANCH   5   7
BRANCH   1  16
ATOM     16  C   UNL     1      44.547   9.709  11.277  0.00  0.00    +0.000 C 
BRANCH  16  17
ATOM     17  N   UNL     1      43.584  10.271  12.218  0.00  0.00    +0.000 NA
ATOM     18  H   UNL     1      42.694   9.787  12.117  0.00  0.00    +0.000 HD
ATOM     19  H   UNL     1      43.411  11.246  11.977  0.00  0.00    +0.000 HD
ENDBRANCH  16  17
ENDBRANCH   1  16
TORSDOF 5
ENDMDL
MODEL 2
REMARK VINA RESULT:    -6.755      1.127      2.724
REMARK INTER + INTRA:          -8.991
REMARK INTER:                  -8.593
REMARK INTRA:                  -0.399
REMARK UNBOUND:                -0.459
REMARK  Name = 
REMARK  5 active torsions:
REMARK  status: ('A' for Active; 'I' for Inactive)
REMARK    1  A    between atoms: N_1  and  C_2
REMARK    2  A    between atoms: C_2  and  C_3
REMARK    3  A    between atoms: C_7  and  C_8
REMARK    4  A    between atoms: C_9  and  C_10
REMARK    5  A    between atoms: C_10  and  C_11
REMARK                            x       y       z     vdW  Elec       q    Type
REMARK                         _______ _______ _______ _____ _____    ______ ____
ROOT
ATOM      1  C   UNL     1      46.931   6.799  13.052  0.00  0.00    +0.000 A 
ATOM      2  C   UNL     1      46.176   7.965  13.124  0.00  0.00    +0.000 A 
ATOM      3  N   UNL     1      45.112   8.229  12.334  0.00  0.00    +0.000 NA
ATOM      4  C   UNL     1      44.788   7.283  11.419  0.00  0.00    +0.000 A 
ATOM      5  C   UNL     1      45.470   6.082  11.244  0.00  0.00    +0.000 A 
ATOM      6  C   UNL     1      46.549   5.844  12.099  0.00  0.00    +0.000 A 
ENDROOT
BRANCH   5   7
ATOM      7  C   UNL     1      45.007   5.106  10.248  0.00  0.00    +0.000 C 
ATOM      8  C   UNL     1      45.001   3.775  10.436  0.00  0.00    +0.000 C 
BRANCH   8   9
ATOM      9  C   UNL     1      44.498   2.787   9.423  0.00  0.00    +0.000 C 
BRANCH   9  10
ATOM     10  C   UNL     1      45.490   2.533   8.313  0.00  0.00    +0.000 A 
ATOM     11  C   UNL     1      46.234   1.345   8.279  0.00  0.00    +0.000 A 
ATOM     12  C   UNL     1      47.149   1.111   7.250  0.00  0.00    +0.000 A 
ATOM     13  C   UNL     1      47.331   2.063   6.249  0.00  0.00    +0.000 A 
ATOM     14  C   UNL     1      46.607   3.252   6.280  0.00  0.00    +0.000 A 
ATOM     15  C   UNL     1      45.694   3.489   7.309  0.00  0.00    +0.000 A 
ENDBRANCH   9  10
ENDBRANCH   8   9
ENDBRANCH   5   7
BRANCH   1  16
ATOM     16  C   UNL     1      48.093   6.561  13.972  0.00  0.00    +0.000 C 
BRANCH  16  17
ATOM     17  N   UNL     1      49.360   6.590  13.251  0.00  0.00    +0.000 NA
ATOM     18  H   UNL     1      49.254   7.145  12.404  0.00  0.00    +0.000 HD
ATOM     19  H   UNL     1      49.594   5.645  12.948  0.00  0.00    +0.000 HD
ENDBRANCH  16  17
ENDBRANCH   1  16
TORSDOF 5
ENDMDL
MODEL 3
REMARK VINA RESULT:    -6.636      3.241      7.232
REMARK INTER + INTRA:          -8.841
REMARK INTER:                  -8.427
REMARK INTRA:                  -0.414
REMARK UNBOUND:                -0.459
REMARK  Name = 
REMARK  5 active torsions:
REMARK  status: ('A' for Active; 'I' for Inactive)
REMARK    1  A    between atoms: N_1  and  C_2
REMARK    2  A    between atoms: C_2  and  C_3
REMARK    3  A    between atoms: C_7  and  C_8
REMARK    4  A    between atoms: C_9  and  C_10
REMARK    5  A    between atoms: C_10  and  C_11
REMARK                            x       y       z     vdW  Elec       q    Type
REMARK                         _______ _______ _______ _____ _____    ______ ____
ROOT
ATOM      1  C   UNL     1      46.608   2.557   6.741  0.00  0.00    +0.000 A 
ATOM      2  C   UNL     1      46.623   1.316   7.367  0.00  0.00    +0.000 A 
ATOM      3  N   UNL     1      45.981   1.043   8.524  0.00  0.00    +0.000 NA
ATOM      4  C   UNL     1      45.295   2.066   9.091  0.00  0.00    +0.000 A 
ATOM      5  C   UNL     1      45.212   3.353   8.566  0.00  0.00    +0.000 A 
ATOM      6  C   UNL     1      45.873   3.580   7.357  0.00  0.00    +0.000 A 
ENDROOT
BRANCH   5   7
ATOM      7  C   UNL     1      44.403   4.377   9.241  0.00  0.00    +0.000 C 
ATOM      8  C   UNL     1      44.559   4.741  10.526  0.00  0.00    +0.000 C 
BRANCH   8   9
ATOM      9  C   UNL     1      43.748   5.811  11.199  0.00  0.00    +0.000 C 
BRANCH   9  10
ATOM     10  C   UNL     1      44.593   6.968  11.678  0.00  0.00    +0.000 A 
ATOM     11  C   UNL     1      44.298   8.280  11.277  0.00  0.00    +0.000 A 
ATOM     12  C   UNL     1      45.079   9.349  11.724  0.00  0.00    +0.000 A 
ATOM     13  C   UNL     1      46.161   9.117  12.570  0.00  0.00    +0.000 A 
ATOM     14  C   UNL     1      46.471   7.816  12.963  0.00  0.00    +0.000 A 
ATOM     15  C   UNL     1      45.694   6.746  12.516  0.00  0.00    +0.000 A 
ENDBRANCH   9  10
ENDBRANCH   8   9
ENDBRANCH   5   7
BRANCH   1  16
ATOM     16  C   UNL     1      47.331   2.788   5.445  0.00  0.00    +0.000 C 
BRANCH  16  17
ATOM     17  N   UNL     1      48.489   1.911   5.315  0.00  0.00    +0.000 NA
ATOM     18  H   UNL     1      48.174   0.948   5.221  0.00  0.00    +0.000 HD
ATOM     19  H   UNL     1      49.038   1.952   6.174  0.00  0.00    +0.000 HD
ENDBRANCH  16  17
ENDBRANCH   1  16
TORSDOF 5
ENDMDL
MODEL 4
REMARK VINA RESULT:    -6.564      1.818      3.172
REMARK INTER + INTRA:          -8.749
REMARK INTER:                  -8.281
REMARK INTRA:                  -0.468
REMARK UNBOUND:                -0.459
REMARK  Name = 
REMARK  5 active torsions:
REMARK  status: ('A' for Active; 'I' for Inactive)
REMARK    1  A    between atoms: N_1  and  C_2
REMARK    2  A    between atoms: C_2  and  C_3
REMARK    3  A    between atoms: C_7  and  C_8
REMARK    4  A    between atoms: C_9  and  C_10
REMARK    5  A    between atoms: C_10  and  C_11
REMARK                            x       y       z     vdW  Elec       q    Type
REMARK                         _______ _______ _______ _____ _____    ______ ____
ROOT
ATOM      1  C   UNL     1      47.103   5.425  14.195  0.00  0.00    +0.000 A 
ATOM      2  C   UNL     1      47.603   6.719  14.297  0.00  0.00    +0.000 A 
ATOM      3  N   UNL     1      47.563   7.628  13.298  0.00  0.00    +0.000 NA
ATOM      4  C   UNL     1      47.001   7.222  12.133  0.00  0.00    +0.000 A 
ATOM      5  C   UNL     1      46.474   5.953  11.906  0.00  0.00    +0.000 A 
ATOM      6  C   UNL     1      46.519   5.056  12.976  0.00  0.00    +0.000 A 
ENDROOT
BRANCH   5   7
ATOM      7  C   UNL     1      45.849   5.631  10.616  0.00  0.00    +0.000 C 
ATOM      8  C   UNL     1      45.415   4.407  10.268  0.00  0.00    +0.000 C 
BRANCH   8   9
ATOM      9  C   UNL     1      44.749   4.094   8.959  0.00  0.00    +0.000 C 
BRANCH   9  10
ATOM     10  C   UNL     1      45.572   3.172   8.092  0.00  0.00    +0.000 A 
ATOM     11  C   UNL     1      46.069   3.609   6.855  0.00  0.00    +0.000 A 
ATOM     12  C   UNL     1      46.833   2.756   6.057  0.00  0.00    +0.000 A 
ATOM     13  C   UNL     1      47.105   1.457   6.484  0.00  0.00    +0.000 A 
ATOM     14  C   UNL     1      46.605   1.008   7.704  0.00  0.00    +0.000 A 
ATOM     15  C   UNL     1      45.839   1.858   8.503  0.00  0.00    +0.000 A 
ENDBRANCH   9  10
ENDBRANCH   8   9
ENDBRANCH   5   7
BRANCH   1  16
ATOM     16  C   UNL     1      47.166   4.469  15.351  0.00  0.00    +0.000 C 
BRANCH  16  17
ATOM     17  N   UNL     1      47.606   3.145  14.927  0.00  0.00    +0.000 NA
ATOM     18  H   UNL     1      48.031   2.663  15.717  0.00  0.00    +0.000 HD
ATOM     19  H   UNL     1      48.337   3.245  14.224  0.00  0.00    +0.000 HD
ENDBRANCH  16  17
ENDBRANCH   1  16
TORSDOF 5
ENDMDL
MODEL 5
REMARK VINA RESULT:    -6.302      2.712      4.385
REMARK INTER + INTRA:          -8.419
REMARK INTER:                  -7.959
REMARK INTRA:                  -0.460
REMARK UNBOUND:                -0.459
REMARK  Name = 
REMARK  5 active torsions:
REMARK  status: ('A' for Active; 'I' for Inactive)
REMARK    1  A    between atoms: N_1  and  C_2
REMARK    2  A    between atoms: C_2  and  C_3
REMARK    3  A    between atoms: C_7  and  C_8
REMARK    4  A    between atoms: C_9  and  C_10
REMARK    5  A    between atoms: C_10  and  C_11
REMARK                            x       y       z     vdW  Elec       q    Type
REMARK                         _______ _______ _______ _____ _____    ______ ____
ROOT
ATOM      1  C   UNL     1      47.594   4.773  15.896  0.00  0.00    +0.000 A 
ATOM      2  C   UNL     1      48.411   5.848  15.560  0.00  0.00    +0.000 A 
ATOM      3  N   UNL     1      48.431   6.432  14.342  0.00  0.00    +0.000 NA
ATOM      4  C   UNL     1      47.599   5.911  13.407  0.00  0.00    +0.000 A 
ATOM      5  C   UNL     1      46.742   4.834  13.619  0.00  0.00    +0.000 A 
ATOM      6  C   UNL     1      46.740   4.278  14.901  0.00  0.00    +0.000 A 
ENDROOT
BRANCH   5   7
ATOM      7  C   UNL     1      45.849   4.376  12.546  0.00  0.00    +0.000 C 
ATOM      8  C   UNL     1      44.601   4.838  12.349  0.00  0.00    +0.000 C 
BRANCH   8   9
ATOM      9  C   UNL     1      43.707   4.386  11.230  0.00  0.00    +0.000 C 
BRANCH   9  10
ATOM     10  C   UNL     1      44.475   3.794  10.073  0.00  0.00    +0.000 A 
ATOM     11  C   UNL     1      44.553   2.404   9.904  0.00  0.00    +0.000 A 
ATOM     12  C   UNL     1      45.261   1.859   8.831  0.00  0.00    +0.000 A 
ATOM     13  C   UNL     1      45.901   2.697   7.919  0.00  0.00    +0.000 A 
ATOM     14  C   UNL     1      45.841   4.079   8.085  0.00  0.00    +0.000 A 
ATOM     15  C   UNL     1      45.135   4.626   9.158  0.00  0.00    +0.000 A 
ENDBRANCH   9  10
ENDBRANCH   8   9
ENDBRANCH   5   7
BRANCH   1  16
ATOM     16  C   UNL     1      47.609   4.182  17.276  0.00  0.00    +0.000 C 
BRANCH  16  17
ATOM     17  N   UNL     1      46.594   3.144  17.424  0.00  0.00    +0.000 NA
ATOM     18  H   UNL     1      47.047   2.233  17.463  0.00  0.00    +0.000 HD
ATOM     19  H   UNL     1      46.001   3.136  16.596  0.00  0.00    +0.000 HD
ENDBRANCH  16  17
ENDBRANCH   1  16
TORSDOF 5
ENDMDL
MODEL 6
REMARK VINA RESULT:    -5.999      2.882      6.794
REMARK INTER + INTRA:          -8.036
REMARK INTER:                  -7.530
REMARK INTRA:                  -0.506
REMARK UNBOUND:                -0.459
REMARK  Name = 
REMARK  5 active torsions:
REMARK  status: ('A' for Active; 'I' for Inactive)
REMARK    1  A    between atoms: N_1  and  C_2
REMARK    2  A    between atoms: C_2  and  C_3
REMARK    3  A    between atoms: C_7  and  C_8
REMARK    4  A    between atoms: C_9  and  C_10
REMARK    5  A    between atoms: C_10  and  C_11
REMARK                            x       y       z     vdW  Elec       q    Type
REMARK                         _______ _______ _______ _____ _____    ______ ____
ROOT
ATOM      1  C   UNL     1      45.316   3.436   8.493  0.00  0.00    +0.000 A 
ATOM      2  C   UNL     1      44.536   2.450   9.088  0.00  0.00    +0.000 A 
ATOM      3  N   UNL     1      43.909   2.594  10.276  0.00  0.00    +0.000 NA
ATOM      4  C   UNL     1      44.074   3.782  10.908  0.00  0.00    +0.000 A 
ATOM      5  C   UNL     1      44.836   4.841  10.420  0.00  0.00    +0.000 A 
ATOM      6  C   UNL     1      45.447   4.652   9.178  0.00  0.00    +0.000 A 
ENDROOT
BRANCH   5   7
ATOM      7  C   UNL     1      44.914   6.103  11.167  0.00  0.00    +0.000 C 
ATOM      8  C   UNL     1      45.775   6.336  12.174  0.00  0.00    +0.000 C 
BRANCH   8   9
ATOM      9  C   UNL     1      45.868   7.641  12.912  0.00  0.00    +0.000 C 
BRANCH   9  10
ATOM     10  C   UNL     1      46.927   8.557  12.346  0.00  0.00    +0.000 A 
ATOM     11  C   UNL     1      46.633   9.897  12.059  0.00  0.00    +0.000 A 
ATOM     12  C   UNL     1      47.616  10.743  11.539  0.00  0.00    +0.000 A 
ATOM     13  C   UNL     1      48.899  10.256  11.297  0.00  0.00    +0.000 A 
ATOM     14  C   UNL     1      49.198   8.922  11.566  0.00  0.00    +0.000 A 
ATOM     15  C   UNL     1      48.217   8.074  12.084  0.00  0.00    +0.000 A 
ENDBRANCH   9  10
ENDBRANCH   8   9
ENDBRANCH   5   7
BRANCH   1  16
ATOM     16  C   UNL     1      45.974   3.215   7.162  0.00  0.00    +0.000 C 
BRANCH  16  17
ATOM     17  N   UNL     1      46.955   4.254   6.871  0.00  0.00    +0.000 NA
ATOM     18  H   UNL     1      46.970   4.433   5.868  0.00  0.00    +0.000 HD
ATOM     19  H   UNL     1      47.884   3.915   7.117  0.00  0.00    +0.000 HD
ENDBRANCH  16  17
ENDBRANCH   1  16
TORSDOF 5
ENDMDL
MODEL 7
REMARK VINA RESULT:    -5.986      2.256      3.138
REMARK INTER + INTRA:          -8.019
REMARK INTER:                  -7.563
REMARK INTRA:                  -0.456
REMARK UNBOUND:                -0.459
REMARK  Name = 
REMARK  5 active torsions:
REMARK  status: ('A' for Active; 'I' for Inactive)
REMARK    1  A    between atoms: N_1  and  C_2
REMARK    2  A    between atoms: C_2  and  C_3
REMARK    3  A    between atoms: C_7  and  C_8
REMARK    4  A    between atoms: C_9  and  C_10
REMARK    5  A    between atoms: C_10  and  C_11
REMARK                            x       y       z     vdW  Elec       q    Type
REMARK                         _______ _______ _______ _____ _____    ______ ____
ROOT
ATOM      1  C   UNL     1      48.076   7.183  14.575  0.00  0.00    +0.000 A 
ATOM      2  C   UNL     1      48.258   6.058  15.372  0.00  0.00    +0.000 A 
ATOM      3  N   UNL     1      47.763   4.835  15.081  0.00  0.00    +0.000 NA
ATOM      4  C   UNL     1      47.043   4.730  13.937  0.00  0.00    +0.000 A 
ATOM      5  C   UNL     1      46.785   5.783  13.063  0.00  0.00    +0.000 A 
ATOM      6  C   UNL     1      47.336   7.023  13.396  0.00  0.00    +0.000 A 
ENDROOT
BRANCH   5   7
ATOM      7  C   UNL     1      46.026   5.550  11.827  0.00  0.00    +0.000 C 
ATOM      8  C   UNL     1      45.126   4.565  11.664  0.00  0.00    +0.000 C 
BRANCH   8   9
ATOM      9  C   UNL     1      44.332   4.353  10.406  0.00  0.00    +0.000 C 
BRANCH   9  10
ATOM     10  C   UNL     1      45.132   3.674   9.320  0.00  0.00    +0.000 A 
ATOM     11  C   UNL     1      45.234   2.276   9.278  0.00  0.00    +0.000 A 
ATOM     12  C   UNL     1      45.972   1.650   8.271  0.00  0.00    +0.000 A 
ATOM     13  C   UNL     1      46.616   2.414   7.300  0.00  0.00    +0.000 A 
ATOM     14  C   UNL     1      46.531   3.804   7.340  0.00  0.00    +0.000 A 
ATOM     15  C   UNL     1      45.797   4.432   8.347  0.00  0.00    +0.000 A 
ENDBRANCH   9  10
ENDBRANCH   8   9
ENDBRANCH   5   7
BRANCH   1  16
ATOM     16  C   UNL     1      48.668   8.511  14.951  0.00  0.00    +0.000 C 
BRANCH  16  17
ATOM     17  N   UNL     1      47.704   9.345  15.660  0.00  0.00    +0.000 NA
ATOM     18  H   UNL     1      47.881  10.324  15.441  0.00  0.00    +0.000 HD
ATOM     19  H   UNL     1      47.850   9.244  16.664  0.00  0.00    +0.000 HD
ENDBRANCH  16  17
ENDBRANCH   1  16
TORSDOF 5
ENDMDL
MODEL 8
REMARK VINA RESULT:    -5.717      2.813      3.796
REMARK INTER + INTRA:          -7.680
REMARK INTER:                  -7.194
REMARK INTRA:                  -0.486
REMARK UNBOUND:                -0.459
REMARK  Name = 
REMARK  5 active torsions:
REMARK  status: ('A' for Active; 'I' for Inactive)
REMARK    1  A    between atoms: N_1  and  C_2
REMARK    2  A    between atoms: C_2  and  C_3
REMARK    3  A    between atoms: C_7  and  C_8
REMARK    4  A    between atoms: C_9  and  C_10
REMARK    5  A    between atoms: C_10  and  C_11
REMARK                            x       y       z     vdW  Elec       q    Type
REMARK                         _______ _______ _______ _____ _____    ______ ____
ROOT
ATOM      1  C   UNL     1      48.297   6.088  15.442  0.00  0.00    +0.000 A 
ATOM      2  C   UNL     1      48.120   4.860  16.071  0.00  0.00    +0.000 A 
ATOM      3  N   UNL     1      47.414   3.834  15.546  0.00  0.00    +0.000 NA
ATOM      4  C   UNL     1      46.847   4.048  14.333  0.00  0.00    +0.000 A 
ATOM      5  C   UNL     1      46.945   5.234  13.610  0.00  0.00    +0.000 A 
ATOM      6  C   UNL     1      47.704   6.257  14.183  0.00  0.00    +0.000 A 
ENDROOT
BRANCH   5   7
ATOM      7  C   UNL     1      46.326   5.344  12.282  0.00  0.00    +0.000 C 
ATOM      8  C   UNL     1      45.107   4.870  11.972  0.00  0.00    +0.000 C 
BRANCH   8   9
ATOM      9  C   UNL     1      44.470   5.015  10.619  0.00  0.00    +0.000 C 
BRANCH   9  10
ATOM     10  C   UNL     1      45.080   4.098   9.586  0.00  0.00    +0.000 A 
ATOM     11  C   UNL     1      45.793   4.623   8.499  0.00  0.00    +0.000 A 
ATOM     12  C   UNL     1      46.360   3.772   7.546  0.00  0.00    +0.000 A 
ATOM     13  C   UNL     1      46.216   2.392   7.670  0.00  0.00    +0.000 A 
ATOM     14  C   UNL     1      45.499   1.860   8.740  0.00  0.00    +0.000 A 
ATOM     15  C   UNL     1      44.929   2.708   9.691  0.00  0.00    +0.000 A 
ENDBRANCH   9  10
ENDBRANCH   8   9
ENDBRANCH   5   7
BRANCH   1  16
ATOM     16  C   UNL     1      49.109   7.180  16.075  0.00  0.00    +0.000 C 
BRANCH  16  17
ATOM     17  N   UNL     1      48.426   7.755  17.229  0.00  0.00    +0.000 NA
ATOM     18  H   UNL     1      47.761   8.458  16.911  0.00  0.00    +0.000 HD
ATOM     19  H   UNL     1      49.106   8.243  17.811  0.00  0.00    +0.000 HD
ENDBRANCH  16  17
ENDBRANCH   1  16
TORSDOF 5
ENDMDL
MODEL 9
REMARK VINA RESULT:    -5.544      2.586      3.990
REMARK INTER + INTRA:          -7.461
REMARK INTER:                  -7.013
REMARK INTRA:                  -0.448
REMARK UNBOUND:                -0.459
REMARK  Name = 
REMARK  5 active torsions:
REMARK  status: ('A' for Active; 'I' for Inactive)
REMARK    1  A    between atoms: N_1  and  C_2
REMARK    2  A    between atoms: C_2  and  C_3
REMARK    3  A    between atoms: C_7  and  C_8
REMARK    4  A    between atoms: C_9  and  C_10
REMARK    5  A    between atoms: C_10  and  C_11
REMARK                            x       y       z     vdW  Elec       q    Type
REMARK                         _______ _______ _______ _____ _____    ______ ____
ROOT
ATOM      1  C   UNL     1      49.779   7.652  13.795  0.00  0.00    +0.000 A 
ATOM      2  C   UNL     1      49.501   6.911  14.938  0.00  0.00    +0.000 A 
ATOM      3  N   UNL     1      48.434   6.092  15.070  0.00  0.00    +0.000 NA
ATOM      4  C   UNL     1      47.596   6.015  14.007  0.00  0.00    +0.000 A 
ATOM      5  C   UNL     1      47.762   6.712  12.813  0.00  0.00    +0.000 A 
ATOM      6  C   UNL     1      48.892   7.528  12.717  0.00  0.00    +0.000 A 
ENDROOT
BRANCH   5   7
ATOM      7  C   UNL     1      46.814   6.522  11.707  0.00  0.00    +0.000 C 
ATOM      8  C   UNL     1      45.816   5.621  11.710  0.00  0.00    +0.000 C 
BRANCH   8   9
ATOM      9  C   UNL     1      44.833   5.455  10.586  0.00  0.00    +0.000 C 
BRANCH   9  10
ATOM     10  C   UNL     1      45.238   4.374   9.613  0.00  0.00    +0.000 A 
ATOM     11  C   UNL     1      44.938   3.030   9.873  0.00  0.00    +0.000 A 
ATOM     12  C   UNL     1      45.311   2.033   8.969  0.00  0.00    +0.000 A 
ATOM     13  C   UNL     1      45.991   2.369   7.800  0.00  0.00    +0.000 A 
ATOM     14  C   UNL     1      46.306   3.701   7.538  0.00  0.00    +0.000 A 
ATOM     15  C   UNL     1      45.936   4.699   8.441  0.00  0.00    +0.000 A 
ENDBRANCH   9  10
ENDBRANCH   8   9
ENDBRANCH   5   7
BRANCH   1  16
ATOM     16  C   UNL     1      50.993   8.531  13.709  0.00  0.00    +0.000 C 
BRANCH  16  17
ATOM     17  N   UNL     1      51.941   8.039  12.715  0.00  0.00    +0.000 NA
ATOM     18  H   UNL     1      52.749   8.658  12.686  0.00  0.00    +0.000 HD
ATOM     19  H   UNL     1      51.510   8.083  11.792  0.00  0.00    +0.000 HD
ENDBRANCH  16  17
ENDBRANCH   1  16
TORSDOF 5
ENDMDL
