MODEL 1
REMARK VINA RESULT:    -8.480      0.000      0.000
REMARK INTER + INTRA:         -12.359
REMARK INTER:                 -11.454
REMARK INTRA:                  -0.905
REMARK UNBOUND:                -0.905
REMARK  Name = 
REMARK  6 active torsions:
REMARK  status: ('A' for Active; 'I' for Inactive)
REMARK    1  A    between atoms: C_2  and  C_20
REMARK    2  A    between atoms: N_3  and  C_4
REMARK    3  A    between atoms: C_4  and  C_5
REMARK    4  A    between atoms: C_8  and  C_9
REMARK    5  A    between atoms: C_9  and  C_10
REMARK    6  A    between atoms: C_10  and  N_11
REMARK                            x       y       z     vdW  Elec       q    Type
REMARK                         _______ _______ _______ _____ _____    ______ ____
ROOT
ATOM      1  C   UNL     1      47.384   8.030  13.607  0.00  0.00    +0.000 C 
ENDROOT
BRANCH   1   2
ATOM      2  C   UNL     1      46.406   7.222  12.798  0.00  0.00    +0.000 A 
ATOM      3  C   UNL     1      45.316   7.856  12.197  0.00  0.00    +0.000 A 
ATOM      4  C   UNL     1      44.402   7.128  11.436  0.00  0.00    +0.000 A 
ATOM      5  C   UNL     1      44.544   5.742  11.258  0.00  0.00    +0.000 A 
ATOM      6  C   UNL     1      45.638   5.109  11.868  0.00  0.00    +0.000 A 
ATOM      7  C   UNL     1      46.553   5.840  12.637  0.00  0.00    +0.000 A 
BRANCH   5   8
ATOM      8  C   UNL     1      43.570   4.911  10.439  0.00  0.00    +0.000 C 
BRANCH   8   9
ATOM      9  C   UNL     1      44.224   3.792   9.622  0.00  0.00    +0.000 C 
BRANCH   9  10
ATOM     10  N   UNL     1      44.923   4.296   8.424  0.00  0.00    +0.000 N 
ATOM     11  C   UNL     1      45.739   3.286   7.868  0.00  0.00    +0.000 A 
ATOM     12  C   UNL     1      46.495   3.549   6.721  0.00  0.00    +0.000 A 
ATOM     13  C   UNL     1      47.273   2.527   6.176  0.00  0.00    +0.000 A 
ATOM     14  C   UNL     1      47.312   1.295   6.808  0.00  0.00    +0.000 A 
ATOM     15  C   UNL     1      46.545   1.125   7.943  0.00  0.00    +0.000 A 
ATOM     16  N   UNL     1      45.776   2.078   8.472  0.00  0.00    +0.000 NA
ATOM     17  H   UNL     1      45.548   5.065   8.645  0.00  0.00    +0.000 HD
ENDBRANCH   9  10
ENDBRANCH   8   9
ENDBRANCH   5   8
ENDBRANCH   1   2
BRANCH   1  20
ATOM     18  O   UNL     1      49.872   6.915  14.196  0.00  0.00    +0.000 OA
ATOM     19  C   UNL     1      48.997   6.907  15.051  0.00  0.00    +0.000 C 
ATOM     20  N   UNL     1      47.732   7.397  14.846  0.00  0.00    +0.000 N 
ATOM     21  H   UNL     1      47.138   7.600  15.644  0.00  0.00    +0.000 HD
BRANCH  19  22
ATOM     22  C   UNL     1      49.222   6.327  16.378  0.00  0.00    +0.000 A 
ATOM     23  C   UNL     1      50.016   6.946  17.335  0.00  0.00    +0.000 A 
ATOM     24  S   UNL     1      50.075   6.077  18.810  0.00  0.00    +0.000 S 
ATOM     25  C   UNL     1      49.042   4.866  18.205  0.00  0.00    +0.000 A 
ATOM     26  N   UNL     1      48.671   3.802  18.965  0.00  0.00    +0.000 NA
ATOM     27  C   UNL     1      47.871   2.979  18.373  0.00  0.00    +0.000 A 
ATOM     28  N   UNL     1      47.409   3.120  17.089  0.00  0.00    +0.000 N 
ATOM     29  C   UNL     1      47.793   4.137  16.250  0.00  0.00    +0.000 A 
ATOM     30  O   UNL     1      47.478   4.135  15.076  0.00  0.00    +0.000 OA
ATOM     31  C   UNL     1      48.672   5.109  16.896  0.00  0.00    +0.000 A 
ATOM     32  H   UNL     1      46.817   2.417  16.675  0.00  0.00    +0.000 HD
ENDBRANCH  19  22
ENDBRANCH   1  20
TORSDOF 6
ENDMDL
MODEL 2
REMARK VINA RESULT:    -8.373      1.454      2.101
REMARK INTER + INTRA:         -12.214
REMARK INTER:                 -11.361
REMARK INTRA:                  -0.853
REMARK UNBOUND:                -0.905
REMARK  Name = 
REMARK  6 active torsions:
REMARK  status: ('A' for Active; 'I' for Inactive)
REMARK    1  A    between atoms: C_2  and  C_20
REMARK    2  A    between atoms: N_3  and  C_4
REMARK    3  A    between atoms: C_4  and  C_5
REMARK    4  A    between atoms: C_8  and  C_9
REMARK    5  A    between atoms: C_9  and  C_10
REMARK    6  A    between atoms: C_10  and  N_11
REMARK                            x       y       z     vdW  Elec       q    Type
REMARK                         _______ _______ _______ _____ _____    ______ ____
ROOT
ATOM      1  C   UNL     1      48.229   6.634  13.696  0.00  0.00    +0.000 C 
ENDROOT
BRANCH   1   2
ATOM      2  C   UNL     1      47.130   5.832  13.055  0.00  0.00    +0.000 A 
ATOM      3  C   UNL     1      46.812   4.569  13.559  0.00  0.00    +0.000 A 
ATOM      4  C   UNL     1      45.791   3.812  12.986  0.00  0.00    +0.000 A 
ATOM      5  C   UNL     1      45.061   4.290  11.885  0.00  0.00    +0.000 A 
ATOM      6  C   UNL     1      45.388   5.556  11.379  0.00  0.00    +0.000 A 
ATOM      7  C   UNL     1      46.417   6.315  11.952  0.00  0.00    +0.000 A 
BRANCH   5   8
ATOM      8  C   UNL     1      43.943   3.496  11.229  0.00  0.00    +0.000 C 
BRANCH   8   9
ATOM      9  C   UNL     1      44.142   3.241   9.732  0.00  0.00    +0.000 C 
BRANCH   9  10
ATOM     10  N   UNL     1      44.874   1.988   9.461  0.00  0.00    +0.000 N 
ATOM     11  C   UNL     1      45.751   2.157   8.367  0.00  0.00    +0.000 A 
ATOM     12  C   UNL     1      46.547   1.090   7.936  0.00  0.00    +0.000 A 
ATOM     13  C   UNL     1      47.425   1.289   6.870  0.00  0.00    +0.000 A 
ATOM     14  C   UNL     1      47.454   2.521   6.238  0.00  0.00    +0.000 A 
ATOM     15  C   UNL     1      46.626   3.515   6.719  0.00  0.00    +0.000 A 
ATOM     16  N   UNL     1      45.793   3.358   7.750  0.00  0.00    +0.000 NA
ATOM     17  H   UNL     1      44.248   1.232   9.199  0.00  0.00    +0.000 HD
ENDBRANCH   9  10
ENDBRANCH   8   9
ENDBRANCH   5   8
ENDBRANCH   1   2
BRANCH   1  20
ATOM     18  O   UNL     1      50.331   6.550  15.529  0.00  0.00    +0.000 OA
ATOM     19  C   UNL     1      49.188   6.709  15.938  0.00  0.00    +0.000 C 
ATOM     20  N   UNL     1      48.086   6.729  15.121  0.00  0.00    +0.000 N 
ATOM     21  H   UNL     1      47.213   7.113  15.467  0.00  0.00    +0.000 HD
BRANCH  19  22
ATOM     22  C   UNL     1      48.896   6.857  17.366  0.00  0.00    +0.000 A 
ATOM     23  C   UNL     1      48.634   8.092  17.947  0.00  0.00    +0.000 A 
ATOM     24  S   UNL     1      48.282   7.975  19.619  0.00  0.00    +0.000 S 
ATOM     25  C   UNL     1      48.464   6.283  19.600  0.00  0.00    +0.000 A 
ATOM     26  N   UNL     1      48.295   5.536  20.721  0.00  0.00    +0.000 NA
ATOM     27  C   UNL     1      48.450   4.266  20.543  0.00  0.00    +0.000 A 
ATOM     28  N   UNL     1      48.761   3.674  19.346  0.00  0.00    +0.000 N 
ATOM     29  C   UNL     1      49.006   4.375  18.192  0.00  0.00    +0.000 A 
ATOM     30  O   UNL     1      49.427   3.820  17.196  0.00  0.00    +0.000 OA
ATOM     31  C   UNL     1      48.806   5.814  18.345  0.00  0.00    +0.000 A 
ATOM     32  H   UNL     1      48.907   2.678  19.287  0.00  0.00    +0.000 HD
ENDBRANCH  19  22
ENDBRANCH   1  20
TORSDOF 6
ENDMDL
MODEL 3
REMARK VINA RESULT:    -8.097      2.070      2.771
REMARK INTER + INTRA:         -11.842
REMARK INTER:                 -10.944
REMARK INTRA:                  -0.897
REMARK UNBOUND:                -0.905
REMARK  Name = 
REMARK  6 active torsions:
REMARK  status: ('A' for Active; 'I' for Inactive)
REMARK    1  A    between atoms: C_2  and  C_20
REMARK    2  A    between atoms: N_3  and  C_4
REMARK    3  A    between atoms: C_4  and  C_5
REMARK    4  A    between atoms: C_8  and  C_9
REMARK    5  A    between atoms: C_9  and  C_10
REMARK    6  A    between atoms: C_10  and  N_11
REMARK                            x       y       z     vdW  Elec       q    Type
REMARK                         _______ _______ _______ _____ _____    ______ ____
ROOT
ATOM      1  C   UNL     1      48.316   6.790  14.003  0.00  0.00    +0.000 C 
ENDROOT
BRANCH   1   2
ATOM      2  C   UNL     1      47.186   6.261  13.163  0.00  0.00    +0.000 A 
ATOM      3  C   UNL     1      46.377   5.236  13.659  0.00  0.00    +0.000 A 
ATOM      4  C   UNL     1      45.318   4.737  12.901  0.00  0.00    +0.000 A 
ATOM      5  C   UNL     1      45.039   5.241  11.620  0.00  0.00    +0.000 A 
ATOM      6  C   UNL     1      45.858   6.267  11.125  0.00  0.00    +0.000 A 
ATOM      7  C   UNL     1      46.924   6.765  11.884  0.00  0.00    +0.000 A 
BRANCH   5   8
ATOM      8  C   UNL     1      43.897   4.724  10.761  0.00  0.00    +0.000 C 
BRANCH   8   9
ATOM      9  C   UNL     1      44.304   3.645   9.752  0.00  0.00    +0.000 C 
BRANCH   9  10
ATOM     10  N   UNL     1      44.930   4.207   8.540  0.00  0.00    +0.000 N 
ATOM     11  C   UNL     1      45.746   3.238   7.913  0.00  0.00    +0.000 A 
ATOM     12  C   UNL     1      46.438   3.559   6.740  0.00  0.00    +0.000 A 
ATOM     13  C   UNL     1      47.216   2.578   6.126  0.00  0.00    +0.000 A 
ATOM     14  C   UNL     1      47.319   1.329   6.714  0.00  0.00    +0.000 A 
ATOM     15  C   UNL     1      46.612   1.100   7.877  0.00  0.00    +0.000 A 
ATOM     16  N   UNL     1      45.844   2.014   8.474  0.00  0.00    +0.000 NA
ATOM     17  H   UNL     1      45.544   4.986   8.756  0.00  0.00    +0.000 HD
ENDBRANCH   9  10
ENDBRANCH   8   9
ENDBRANCH   5   8
ENDBRANCH   1   2
BRANCH   1  20
ATOM     18  O   UNL     1      50.272   6.210  15.905  0.00  0.00    +0.000 OA
ATOM     19  C   UNL     1      49.117   6.382  16.271  0.00  0.00    +0.000 C 
ATOM     20  N   UNL     1      48.079   6.636  15.410  0.00  0.00    +0.000 N 
ATOM     21  H   UNL     1      47.211   7.019  15.771  0.00  0.00    +0.000 HD
BRANCH  19  22
ATOM     22  C   UNL     1      48.734   6.293  17.682  0.00  0.00    +0.000 A 
ATOM     23  C   UNL     1      48.862   5.118  18.414  0.00  0.00    +0.000 A 
ATOM     24  S   UNL     1      48.383   5.301  20.048  0.00  0.00    +0.000 S 
ATOM     25  C   UNL     1      48.004   6.945  19.815  0.00  0.00    +0.000 A 
ATOM     26  N   UNL     1      47.534   7.717  20.828  0.00  0.00    +0.000 NA
ATOM     27  C   UNL     1      47.309   8.947  20.500  0.00  0.00    +0.000 A 
ATOM     28  N   UNL     1      47.509   9.474  19.249  0.00  0.00    +0.000 N 
ATOM     29  C   UNL     1      47.922   8.733  18.169  0.00  0.00    +0.000 A 
ATOM     30  O   UNL     1      47.938   9.209  17.051  0.00  0.00    +0.000 OA
ATOM     31  C   UNL     1      48.220   7.344  18.510  0.00  0.00    +0.000 A 
ATOM     32  H   UNL     1      47.274  10.434  19.052  0.00  0.00    +0.000 HD
ENDBRANCH  19  22
ENDBRANCH   1  20
TORSDOF 6
ENDMDL
MODEL 4
REMARK VINA RESULT:    -7.827      1.528      2.129
REMARK INTER + INTRA:         -11.477
REMARK INTER:                 -10.465
REMARK INTRA:                  -1.013
REMARK UNBOUND:                -0.905
REMARK  Name = 
REMARK  6 active torsions:
REMARK  status: ('A' for Active; 'I' for Inactive)
REMARK    1  A    between atoms: C_2  and  C_20
REMARK    2  A    between atoms: N_3  and  C_4
REMARK    3  A    between atoms: C_4  and  C_5
REMARK    4  A    between atoms: C_8  and  C_9
REMARK    5  A    between atoms: C_9  and  C_10
REMARK    6  A    between atoms: C_10  and  N_11
REMARK                            x       y       z     vdW  Elec       q    Type
REMARK                         _______ _______ _______ _____ _____    ______ ____
ROOT
ATOM      1  C   UNL     1      47.322   7.765  13.257  0.00  0.00    +0.000 C 
ENDROOT
BRANCH   1   2
ATOM      2  C   UNL     1      46.461   6.644  12.741  0.00  0.00    +0.000 A 
ATOM      3  C   UNL     1      46.565   5.374  13.310  0.00  0.00    +0.000 A 
ATOM      4  C   UNL     1      45.770   4.323  12.854  0.00  0.00    +0.000 A 
ATOM      5  C   UNL     1      44.851   4.507  11.808  0.00  0.00    +0.000 A 
ATOM      6  C   UNL     1      44.754   5.784  11.236  0.00  0.00    +0.000 A 
ATOM      7  C   UNL     1      45.556   6.838  11.690  0.00  0.00    +0.000 A 
BRANCH   5   8
ATOM      8  C   UNL     1      43.968   3.389  11.279  0.00  0.00    +0.000 C 
BRANCH   8   9
ATOM      9  C   UNL     1      44.093   3.144   9.771  0.00  0.00    +0.000 C 
BRANCH   9  10
ATOM     10  N   UNL     1      44.824   1.901   9.455  0.00  0.00    +0.000 N 
ATOM     11  C   UNL     1      45.728   2.119   8.392  0.00  0.00    +0.000 A 
ATOM     12  C   UNL     1      46.529   1.070   7.928  0.00  0.00    +0.000 A 
ATOM     13  C   UNL     1      47.432   1.316   6.895  0.00  0.00    +0.000 A 
ATOM     14  C   UNL     1      47.484   2.577   6.326  0.00  0.00    +0.000 A 
ATOM     15  C   UNL     1      46.650   3.552   6.836  0.00  0.00    +0.000 A 
ATOM     16  N   UNL     1      45.792   3.349   7.838  0.00  0.00    +0.000 NA
ATOM     17  H   UNL     1      44.201   1.164   9.141  0.00  0.00    +0.000 HD
ENDBRANCH   9  10
ENDBRANCH   8   9
ENDBRANCH   5   8
ENDBRANCH   1   2
BRANCH   1  20
ATOM     18  O   UNL     1      48.252   8.766  15.689  0.00  0.00    +0.000 OA
ATOM     19  C   UNL     1      48.842   7.831  15.164  0.00  0.00    +0.000 C 
ATOM     20  N   UNL     1      48.484   7.293  13.953  0.00  0.00    +0.000 N 
ATOM     21  H   UNL     1      48.834   6.377  13.690  0.00  0.00    +0.000 HD
BRANCH  19  22
ATOM     22  C   UNL     1      50.024   7.223  15.779  0.00  0.00    +0.000 A 
ATOM     23  C   UNL     1      51.288   7.794  15.684  0.00  0.00    +0.000 A 
ATOM     24  S   UNL     1      52.481   6.902  16.529  0.00  0.00    +0.000 S 
ATOM     25  C   UNL     1      51.340   5.747  17.042  0.00  0.00    +0.000 A 
ATOM     26  N   UNL     1      51.696   4.690  17.818  0.00  0.00    +0.000 NA
ATOM     27  C   UNL     1      50.716   3.912  18.139  0.00  0.00    +0.000 A 
ATOM     28  N   UNL     1      49.412   4.091  17.752  0.00  0.00    +0.000 N 
ATOM     29  C   UNL     1      48.998   5.101  16.919  0.00  0.00    +0.000 A 
ATOM     30  O   UNL     1      47.865   5.131  16.482  0.00  0.00    +0.000 OA
ATOM     31  C   UNL     1      50.074   6.024  16.563  0.00  0.00    +0.000 A 
ATOM     32  H   UNL     1      48.703   3.421  18.006  0.00  0.00    +0.000 HD
ENDBRANCH  19  22
ENDBRANCH   1  20
TORSDOF 6
ENDMDL
MODEL 5
REMARK VINA RESULT:    -7.564      3.024      5.175
REMARK INTER + INTRA:         -11.121
REMARK INTER:                 -10.619
REMARK INTRA:                  -0.502
REMARK UNBOUND:                -0.905
REMARK  Name = 
REMARK  6 active torsions:
REMARK  status: ('A' for Active; 'I' for Inactive)
REMARK    1  A    between atoms: C_2  and  C_20
REMARK    2  A    between atoms: N_3  and  C_4
REMARK    3  A    between atoms: C_4  and  C_5
REMARK    4  A    between atoms: C_8  and  C_9
REMARK    5  A    between atoms: C_9  and  C_10
REMARK    6  A    between atoms: C_10  and  N_11
REMARK                            x       y       z     vdW  Elec       q    Type
REMARK                         _______ _______ _______ _____ _____    ______ ____
ROOT
ATOM      1  C   UNL     1      47.669   6.002  14.568  0.00  0.00    +0.000 C 
ENDROOT
BRANCH   1   2
ATOM      2  C   UNL     1      46.657   5.236  13.760  0.00  0.00    +0.000 A 
ATOM      3  C   UNL     1      46.853   3.874  13.518  0.00  0.00    +0.000 A 
ATOM      4  C   UNL     1      45.924   3.143  12.779  0.00  0.00    +0.000 A 
ATOM      5  C   UNL     1      44.773   3.752  12.251  0.00  0.00    +0.000 A 
ATOM      6  C   UNL     1      44.584   5.121  12.492  0.00  0.00    +0.000 A 
ATOM      7  C   UNL     1      45.520   5.856  13.230  0.00  0.00    +0.000 A 
BRANCH   5   8
ATOM      8  C   UNL     1      43.738   2.992  11.438  0.00  0.00    +0.000 C 
BRANCH   8   9
ATOM      9  C   UNL     1      44.021   2.951   9.933  0.00  0.00    +0.000 C 
BRANCH   9  10
ATOM     10  N   UNL     1      44.786   1.755   9.530  0.00  0.00    +0.000 N 
ATOM     11  C   UNL     1      45.679   2.070   8.482  0.00  0.00    +0.000 A 
ATOM     12  C   UNL     1      46.506   1.079   7.945  0.00  0.00    +0.000 A 
ATOM     13  C   UNL     1      47.398   1.421   6.928  0.00  0.00    +0.000 A 
ATOM     14  C   UNL     1      47.410   2.719   6.447  0.00  0.00    +0.000 A 
ATOM     15  C   UNL     1      46.551   3.632   7.025  0.00  0.00    +0.000 A 
ATOM     16  N   UNL     1      45.704   3.336   8.013  0.00  0.00    +0.000 NA
ATOM     17  H   UNL     1      44.183   1.023   9.168  0.00  0.00    +0.000 HD
ENDBRANCH   9  10
ENDBRANCH   8   9
ENDBRANCH   5   8
ENDBRANCH   1   2
BRANCH   1  20
ATOM     18  O   UNL     1      49.018   6.886  12.293  0.00  0.00    +0.000 OA
ATOM     19  C   UNL     1      48.442   7.702  13.000  0.00  0.00    +0.000 C 
ATOM     20  N   UNL     1      47.782   7.371  14.157  0.00  0.00    +0.000 N 
ATOM     21  H   UNL     1      47.118   8.025  14.559  0.00  0.00    +0.000 HD
BRANCH  19  22
ATOM     22  C   UNL     1      48.442   9.133  12.682  0.00  0.00    +0.000 A 
ATOM     23  C   UNL     1      49.616   9.866  12.553  0.00  0.00    +0.000 A 
ATOM     24  S   UNL     1      49.331  11.502  12.136  0.00  0.00    +0.000 S 
ATOM     25  C   UNL     1      47.645  11.265  12.112  0.00  0.00    +0.000 A 
ATOM     26  N   UNL     1      46.788  12.276  11.817  0.00  0.00    +0.000 NA
ATOM     27  C   UNL     1      45.541  11.936  11.822  0.00  0.00    +0.000 A 
ATOM     28  N   UNL     1      45.073  10.677  12.098  0.00  0.00    +0.000 N 
ATOM     29  C   UNL     1      45.881   9.628  12.463  0.00  0.00    +0.000 A 
ATOM     30  O   UNL     1      45.409   8.576  12.845  0.00  0.00    +0.000 OA
ATOM     31  C   UNL     1      47.302   9.965  12.434  0.00  0.00    +0.000 A 
ATOM     32  H   UNL     1      44.083  10.491  12.123  0.00  0.00    +0.000 HD
ENDBRANCH  19  22
ENDBRANCH   1  20
TORSDOF 6
ENDMDL
MODEL 6
REMARK VINA RESULT:    -7.286      2.345      3.157
REMARK INTER + INTRA:         -10.747
REMARK INTER:                  -9.906
REMARK INTRA:                  -0.840
REMARK UNBOUND:                -0.905
REMARK  Name = 
REMARK  6 active torsions:
REMARK  status: ('A' for Active; 'I' for Inactive)
REMARK    1  A    between atoms: C_2  and  C_20
REMARK    2  A    between atoms: N_3  and  C_4
REMARK    3  A    between atoms: C_4  and  C_5
REMARK    4  A    between atoms: C_8  and  C_9
REMARK    5  A    between atoms: C_9  and  C_10
REMARK    6  A    between atoms: C_10  and  N_11
REMARK                            x       y       z     vdW  Elec       q    Type
REMARK                         _______ _______ _______ _____ _____    ______ ____
ROOT
ATOM      1  C   UNL     1      47.772   4.770  15.125  0.00  0.00    +0.000 C 
ENDROOT
BRANCH   1   2
ATOM      2  C   UNL     1      46.803   4.842  13.976  0.00  0.00    +0.000 A 
ATOM      3  C   UNL     1      46.364   3.665  13.367  0.00  0.00    +0.000 A 
ATOM      4  C   UNL     1      45.459   3.708  12.307  0.00  0.00    +0.000 A 
ATOM      5  C   UNL     1      44.971   4.931  11.817  0.00  0.00    +0.000 A 
ATOM      6  C   UNL     1      45.419   6.111  12.428  0.00  0.00    +0.000 A 
ATOM      7  C   UNL     1      46.332   6.068  13.490  0.00  0.00    +0.000 A 
BRANCH   5   8
ATOM      8  C   UNL     1      43.986   5.022  10.662  0.00  0.00    +0.000 C 
BRANCH   8   9
ATOM      9  C   UNL     1      44.168   3.944   9.589  0.00  0.00    +0.000 C 
BRANCH   9  10
ATOM     10  N   UNL     1      44.951   4.420   8.432  0.00  0.00    +0.000 N 
ATOM     11  C   UNL     1      45.740   3.373   7.907  0.00  0.00    +0.000 A 
ATOM     12  C   UNL     1      46.565   3.605   6.801  0.00  0.00    +0.000 A 
ATOM     13  C   UNL     1      47.315   2.548   6.285  0.00  0.00    +0.000 A 
ATOM     14  C   UNL     1      47.259   1.311   6.905  0.00  0.00    +0.000 A 
ATOM     15  C   UNL     1      46.429   1.173   7.999  0.00  0.00    +0.000 A 
ATOM     16  N   UNL     1      45.685   2.161   8.500  0.00  0.00    +0.000 NA
ATOM     17  H   UNL     1      45.603   5.154   8.691  0.00  0.00    +0.000 HD
ENDBRANCH   9  10
ENDBRANCH   8   9
ENDBRANCH   5   8
ENDBRANCH   1   2
BRANCH   1  20
ATOM     18  O   UNL     1      49.969   6.465  15.411  0.00  0.00    +0.000 OA
ATOM     19  C   UNL     1      48.915   6.757  15.959  0.00  0.00    +0.000 C 
ATOM     20  N   UNL     1      47.791   5.972  15.908  0.00  0.00    +0.000 N 
ATOM     21  H   UNL     1      46.890   6.371  16.153  0.00  0.00    +0.000 HD
BRANCH  19  22
ATOM     22  C   UNL     1      48.777   7.975  16.762  0.00  0.00    +0.000 A 
ATOM     23  C   UNL     1      48.387   9.189  16.210  0.00  0.00    +0.000 A 
ATOM     24  S   UNL     1      48.263  10.437  17.376  0.00  0.00    +0.000 S 
ATOM     25  C   UNL     1      48.719   9.386  18.636  0.00  0.00    +0.000 A 
ATOM     26  N   UNL     1      48.811   9.814  19.922  0.00  0.00    +0.000 NA
ATOM     27  C   UNL     1      49.151   8.896  20.765  0.00  0.00    +0.000 A 
ATOM     28  N   UNL     1      49.409   7.589  20.440  0.00  0.00    +0.000 N 
ATOM     29  C   UNL     1      49.393   7.108  19.154  0.00  0.00    +0.000 A 
ATOM     30  O   UNL     1      49.777   5.984  18.900  0.00  0.00    +0.000 OA
ATOM     31  C   UNL     1      48.979   8.110  18.175  0.00  0.00    +0.000 A 
ATOM     32  H   UNL     1      49.709   6.934  21.145  0.00  0.00    +0.000 HD
ENDBRANCH  19  22
ENDBRANCH   1  20
TORSDOF 6
ENDMDL
MODEL 7
REMARK VINA RESULT:    -7.178      2.913      8.297
REMARK INTER + INTRA:         -10.600
REMARK INTER:                  -9.255
REMARK INTRA:                  -1.345
REMARK UNBOUND:                -0.905
REMARK  Name = 
REMARK  6 active torsions:
REMARK  status: ('A' for Active; 'I' for Inactive)
REMARK    1  A    between atoms: C_2  and  C_20
REMARK    2  A    between atoms: N_3  and  C_4
REMARK    3  A    between atoms: C_4  and  C_5
REMARK    4  A    between atoms: C_8  and  C_9
REMARK    5  A    between atoms: C_9  and  C_10
REMARK    6  A    between atoms: C_10  and  N_11
REMARK                            x       y       z     vdW  Elec       q    Type
REMARK                         _______ _______ _______ _____ _____    ______ ____
ROOT
ATOM      1  C   UNL     1      47.762   7.762  11.826  0.00  0.00    +0.000 C 
ENDROOT
BRANCH   1   2
ATOM      2  C   UNL     1      48.459   7.922  13.150  0.00  0.00    +0.000 A 
ATOM      3  C   UNL     1      47.745   8.390  14.255  0.00  0.00    +0.000 A 
ATOM      4  C   UNL     1      48.368   8.538  15.493  0.00  0.00    +0.000 A 
ATOM      5  C   UNL     1      49.727   8.229  15.665  0.00  0.00    +0.000 A 
ATOM      6  C   UNL     1      50.442   7.764  14.551  0.00  0.00    +0.000 A 
ATOM      7  C   UNL     1      49.817   7.621  13.305  0.00  0.00    +0.000 A 
BRANCH   5   8
ATOM      8  C   UNL     1      50.445   8.377  16.996  0.00  0.00    +0.000 C 
BRANCH   8   9
ATOM      9  C   UNL     1      50.016   7.365  18.063  0.00  0.00    +0.000 C 
BRANCH   9  10
ATOM     10  N   UNL     1      50.566   6.017  17.823  0.00  0.00    +0.000 N 
ATOM     11  C   UNL     1      49.521   5.079  17.667  0.00  0.00    +0.000 A 
ATOM     12  C   UNL     1      49.818   3.733  17.428  0.00  0.00    +0.000 A 
ATOM     13  C   UNL     1      48.769   2.831  17.251  0.00  0.00    +0.000 A 
ATOM     14  C   UNL     1      47.464   3.281  17.360  0.00  0.00    +0.000 A 
ATOM     15  C   UNL     1      47.260   4.623  17.610  0.00  0.00    +0.000 A 
ATOM     16  N   UNL     1      48.245   5.511  17.762  0.00  0.00    +0.000 NA
ATOM     17  H   UNL     1      51.118   5.687  18.609  0.00  0.00    +0.000 HD
ENDBRANCH   9  10
ENDBRANCH   8   9
ENDBRANCH   5   8
ENDBRANCH   1   2
BRANCH   1  20
ATOM     18  O   UNL     1      44.980   7.589  11.724  0.00  0.00    +0.000 OA
ATOM     19  C   UNL     1      45.644   6.563  11.661  0.00  0.00    +0.000 C 
ATOM     20  N   UNL     1      47.014   6.541  11.739  0.00  0.00    +0.000 N 
ATOM     21  H   UNL     1      47.520   5.717  11.429  0.00  0.00    +0.000 HD
BRANCH  19  22
ATOM     22  C   UNL     1      45.016   5.245  11.533  0.00  0.00    +0.000 A 
ATOM     23  C   UNL     1      44.327   4.645  12.579  0.00  0.00    +0.000 A 
ATOM     24  S   UNL     1      43.657   3.129  12.147  0.00  0.00    +0.000 S 
ATOM     25  C   UNL     1      44.265   3.246  10.561  0.00  0.00    +0.000 A 
ATOM     26  N   UNL     1      44.049   2.269   9.642  0.00  0.00    +0.000 NA
ATOM     27  C   UNL     1      44.558   2.510   8.479  0.00  0.00    +0.000 A 
ATOM     28  N   UNL     1      45.266   3.638   8.152  0.00  0.00    +0.000 N 
ATOM     29  C   UNL     1      45.572   4.632   9.049  0.00  0.00    +0.000 A 
ATOM     30  O   UNL     1      46.329   5.535   8.752  0.00  0.00    +0.000 OA
ATOM     31  C   UNL     1      44.982   4.411  10.367  0.00  0.00    +0.000 A 
ATOM     32  H   UNL     1      45.671   3.743   7.234  0.00  0.00    +0.000 HD
ENDBRANCH  19  22
ENDBRANCH   1  20
TORSDOF 6
ENDMDL
MODEL 8
REMARK VINA RESULT:    -6.791      3.158      4.320
REMARK INTER + INTRA:         -10.078
REMARK INTER:                  -9.551
REMARK INTRA:                  -0.527
REMARK UNBOUND:                -0.905
REMARK  Name = 
REMARK  6 active torsions:
REMARK  status: ('A' for Active; 'I' for Inactive)
REMARK    1  A    between atoms: C_2  and  C_20
REMARK    2  A    between atoms: N_3  and  C_4
REMARK    3  A    between atoms: C_4  and  C_5
REMARK    4  A    between atoms: C_8  and  C_9
REMARK    5  A    between atoms: C_9  and  C_10
REMARK    6  A    between atoms: C_10  and  N_11
REMARK                            x       y       z     vdW  Elec       q    Type
REMARK                         _______ _______ _______ _____ _____    ______ ____
ROOT
ATOM      1  C   UNL     1      49.623   6.618  17.269  0.00  0.00    +0.000 C 
ENDROOT
BRANCH   1   2
ATOM      2  C   UNL     1      48.702   6.013  16.245  0.00  0.00    +0.000 A 
ATOM      3  C   UNL     1      47.987   4.855  16.557  0.00  0.00    +0.000 A 
ATOM      4  C   UNL     1      47.121   4.283  15.626  0.00  0.00    +0.000 A 
ATOM      5  C   UNL     1      46.949   4.846  14.350  0.00  0.00    +0.000 A 
ATOM      6  C   UNL     1      47.674   6.006  14.040  0.00  0.00    +0.000 A 
ATOM      7  C   UNL     1      48.548   6.578  14.973  0.00  0.00    +0.000 A 
BRANCH   5   8
ATOM      8  C   UNL     1      46.018   4.253  13.306  0.00  0.00    +0.000 C 
BRANCH   8   9
ATOM      9  C   UNL     1      45.093   5.271  12.631  0.00  0.00    +0.000 C 
BRANCH   9  10
ATOM     10  N   UNL     1      45.568   5.673  11.293  0.00  0.00    +0.000 N 
ATOM     11  C   UNL     1      45.262   4.674  10.342  0.00  0.00    +0.000 A 
ATOM     12  C   UNL     1      45.624   4.850   9.002  0.00  0.00    +0.000 A 
ATOM     13  C   UNL     1      45.287   3.862   8.076  0.00  0.00    +0.000 A 
ATOM     14  C   UNL     1      44.644   2.715   8.514  0.00  0.00    +0.000 A 
ATOM     15  C   UNL     1      44.335   2.618   9.855  0.00  0.00    +0.000 A 
ATOM     16  N   UNL     1      44.627   3.557  10.757  0.00  0.00    +0.000 NA
ATOM     17  H   UNL     1      46.578   5.780  11.265  0.00  0.00    +0.000 HD
ENDBRANCH   9  10
ENDBRANCH   8   9
ENDBRANCH   5   8
ENDBRANCH   1   2
BRANCH   1  20
ATOM     18  O   UNL     1      49.937   5.217  19.661  0.00  0.00    +0.000 OA
ATOM     19  C   UNL     1      50.779   5.092  18.782  0.00  0.00    +0.000 C 
ATOM     20  N   UNL     1      50.733   5.766  17.587  0.00  0.00    +0.000 N 
ATOM     21  H   UNL     1      51.297   5.442  16.808  0.00  0.00    +0.000 HD
BRANCH  19  22
ATOM     22  C   UNL     1      51.948   4.225  18.952  0.00  0.00    +0.000 A 
ATOM     23  C   UNL     1      53.022   4.576  19.760  0.00  0.00    +0.000 A 
ATOM     24  S   UNL     1      54.232   3.365  19.814  0.00  0.00    +0.000 S 
ATOM     25  C   UNL     1      53.348   2.351  18.772  0.00  0.00    +0.000 A 
ATOM     26  N   UNL     1      53.815   1.131  18.400  0.00  0.00    +0.000 NA
ATOM     27  C   UNL     1      53.023   0.473  17.620  0.00  0.00    +0.000 A 
ATOM     28  N   UNL     1      51.807   0.923  17.176  0.00  0.00    +0.000 N 
ATOM     29  C   UNL     1      51.306   2.169  17.463  0.00  0.00    +0.000 A 
ATOM     30  O   UNL     1      50.298   2.581  16.924  0.00  0.00    +0.000 OA
ATOM     31  C   UNL     1      52.159   2.931  18.373  0.00  0.00    +0.000 A 
ATOM     32  H   UNL     1      51.257   0.373  16.535  0.00  0.00    +0.000 HD
ENDBRANCH  19  22
ENDBRANCH   1  20
TORSDOF 6
ENDMDL
MODEL 9
REMARK VINA RESULT:    -6.557      3.959      9.566
REMARK INTER + INTRA:          -9.761
REMARK INTER:                  -8.793
REMARK INTRA:                  -0.968
REMARK UNBOUND:                -0.905
REMARK  Name = 
REMARK  6 active torsions:
REMARK  status: ('A' for Active; 'I' for Inactive)
REMARK    1  A    between atoms: C_2  and  C_20
REMARK    2  A    between atoms: N_3  and  C_4
REMARK    3  A    between atoms: C_4  and  C_5
REMARK    4  A    between atoms: C_8  and  C_9
REMARK    5  A    between atoms: C_9  and  C_10
REMARK    6  A    between atoms: C_10  and  N_11
REMARK                            x       y       z     vdW  Elec       q    Type
REMARK                         _______ _______ _______ _____ _____    ______ ____
ROOT
ATOM      1  C   UNL     1      47.472   3.686  16.387  0.00  0.00    +0.000 C 
ENDROOT
BRANCH   1   2
ATOM      2  C   UNL     1      47.981   4.321  17.653  0.00  0.00    +0.000 A 
ATOM      3  C   UNL     1      49.281   4.055  18.086  0.00  0.00    +0.000 A 
ATOM      4  C   UNL     1      49.775   4.640  19.251  0.00  0.00    +0.000 A 
ATOM      5  C   UNL     1      48.983   5.504  20.024  0.00  0.00    +0.000 A 
ATOM      6  C   UNL     1      47.676   5.764  19.587  0.00  0.00    +0.000 A 
ATOM      7  C   UNL     1      47.177   5.173  18.420  0.00  0.00    +0.000 A 
BRANCH   5   8
ATOM      8  C   UNL     1      49.482   6.160  21.301  0.00  0.00    +0.000 C 
BRANCH   8   9
ATOM      9  C   UNL     1      49.553   7.690  21.240  0.00  0.00    +0.000 C 
BRANCH   9  10
ATOM     10  N   UNL     1      50.096   8.184  19.960  0.00  0.00    +0.000 N 
ATOM     11  C   UNL     1      49.230   9.147  19.397  0.00  0.00    +0.000 A 
ATOM     12  C   UNL     1      49.552   9.750  18.176  0.00  0.00    +0.000 A 
ATOM     13  C   UNL     1      48.694  10.716  17.653  0.00  0.00    +0.000 A 
ATOM     14  C   UNL     1      47.525  11.022  18.330  0.00  0.00    +0.000 A 
ATOM     15  C   UNL     1      47.278  10.371  19.522  0.00  0.00    +0.000 A 
ATOM     16  N   UNL     1      48.092   9.458  20.055  0.00  0.00    +0.000 NA
ATOM     17  H   UNL     1      50.173   7.443  19.270  0.00  0.00    +0.000 HD
ENDBRANCH   9  10
ENDBRANCH   8   9
ENDBRANCH   5   8
ENDBRANCH   1   2
BRANCH   1  20
ATOM     18  O   UNL     1      46.947   3.189  13.693  0.00  0.00    +0.000 OA
ATOM     19  C   UNL     1      46.696   4.294  14.156  0.00  0.00    +0.000 C 
ATOM     20  N   UNL     1      46.951   4.646  15.457  0.00  0.00    +0.000 N 
ATOM     21  H   UNL     1      46.499   5.465  15.852  0.00  0.00    +0.000 HD
BRANCH  19  22
ATOM     22  C   UNL     1      46.126   5.363  13.332  0.00  0.00    +0.000 A 
ATOM     23  C   UNL     1      46.856   6.484  12.958  0.00  0.00    +0.000 A 
ATOM     24  S   UNL     1      45.964   7.554  11.962  0.00  0.00    +0.000 S 
ATOM     25  C   UNL     1      44.594   6.543  12.003  0.00  0.00    +0.000 A 
ATOM     26  N   UNL     1      43.452   6.866  11.343  0.00  0.00    +0.000 NA
ATOM     27  C   UNL     1      42.507   5.992  11.455  0.00  0.00    +0.000 A 
ATOM     28  N   UNL     1      42.599   4.825  12.169  0.00  0.00    +0.000 N 
ATOM     29  C   UNL     1      43.701   4.470  12.908  0.00  0.00    +0.000 A 
ATOM     30  O   UNL     1      43.679   3.505  13.645  0.00  0.00    +0.000 OA
ATOM     31  C   UNL     1      44.805   5.418  12.777  0.00  0.00    +0.000 A 
ATOM     32  H   UNL     1      41.807   4.206  12.248  0.00  0.00    +0.000 HD
ENDBRANCH  19  22
ENDBRANCH   1  20
TORSDOF 6
ENDMDL
