MODEL 1
REMARK VINA RESULT:    -8.576      0.000      0.000
REMARK INTER + INTRA:         -12.077
REMARK INTER:                 -11.334
REMARK INTRA:                  -0.743
REMARK UNBOUND:                -0.743
REMARK  Name = 
REMARK  6 active torsions:
REMARK  status: ('A' for Active; 'I' for Inactive)
REMARK    1  A    between atoms: C_2  and  O_3
REMARK    2  A    between atoms: C_2  and  C_4
REMARK    3  A    between atoms: C_7  and  N_8
REMARK    4  A    between atoms: N_8  and  C_9
REMARK    5  A    between atoms: C_9  and  C_10
REMARK    6  A    between atoms: C_14  and  N_15
REMARK                            x       y       z     vdW  Elec       q    Type
REMARK                         _______ _______ _______ _____ _____    ______ ____
ROOT
ATOM      1  N   UNL     1      43.658   4.964   9.618  0.00  0.00    +0.000 N 
ATOM      2  H   UNL     1      43.777   5.867   9.164  0.00  0.00    +0.000 HD
ENDROOT
BRANCH   1   6
ATOM      3  C   UNL     1      46.268   2.080   7.964  0.00  0.00    +0.000 A 
ATOM      4  C   UNL     1      46.330   3.423   7.576  0.00  0.00    +0.000 A 
ATOM      5  C   UNL     1      45.470   4.363   8.161  0.00  0.00    +0.000 A 
ATOM      6  C   UNL     1      44.550   3.991   9.152  0.00  0.00    +0.000 A 
ATOM      7  C   UNL     1      44.512   2.632   9.510  0.00  0.00    +0.000 A 
ATOM      8  F   UNL     1      43.652   2.186  10.441  0.00  0.00    +0.000 F 
ATOM      9  C   UNL     1      45.367   1.688   8.952  0.00  0.00    +0.000 A 
BRANCH   3  11
ATOM     10  O   UNL     1      48.087   1.449   6.582  0.00  0.00    +0.000 OA
ATOM     11  C   UNL     1      47.187   1.109   7.334  0.00  0.00    +0.000 C 
BRANCH  11  12
ATOM     12  O   UNL     1      46.921  -0.179   7.635  0.00  0.00    +0.000 OA
ATOM     13  H   UNL     1      47.507  -0.584   8.301  0.00  0.00    +0.000 HD
ENDBRANCH  11  12
ENDBRANCH   3  11
ENDBRANCH   1   6
BRANCH   1  14
ATOM     14  C   UNL     1      43.403   5.073  11.050  0.00  0.00    +0.000 C 
BRANCH  14  15
ATOM     15  C   UNL     1      44.475   5.907  11.704  0.00  0.00    +0.000 A 
ATOM     16  C   UNL     1      44.590   7.270  11.415  0.00  0.00    +0.000 A 
ATOM     17  C   UNL     1      45.582   8.025  12.027  0.00  0.00    +0.000 A 
ATOM     18  C   UNL     1      46.464   7.419  12.924  0.00  0.00    +0.000 A 
ATOM     19  C   UNL     1      46.396   6.052  13.229  0.00  0.00    +0.000 A 
ATOM     20  C   UNL     1      45.388   5.314  12.595  0.00  0.00    +0.000 A 
BRANCH  19  21
ATOM     21  N   UNL     1      47.251   5.488  14.147  0.00  0.00    +0.000 N 
ATOM     22  C   UNL     1      47.219   4.064  14.506  0.00  0.00    +0.000 C 
ATOM     23  C   UNL     1      47.414   3.935  16.029  0.00  0.00    +0.000 C 
ATOM     24  O   UNL     1      48.606   4.603  16.484  0.00  0.00    +0.000 OA
ATOM     25  C   UNL     1      48.564   5.999  16.135  0.00  0.00    +0.000 C 
ATOM     26  C   UNL     1      48.455   6.187  14.617  0.00  0.00    +0.000 C 
ENDBRANCH  19  21
ENDBRANCH  14  15
ENDBRANCH   1  14
TORSDOF 6
ENDMDL
MODEL 2
REMARK VINA RESULT:    -8.256      2.007      3.121
REMARK INTER + INTRA:         -11.653
REMARK INTER:                 -10.756
REMARK INTRA:                  -0.897
REMARK UNBOUND:                -0.743
REMARK  Name = 
REMARK  6 active torsions:
REMARK  status: ('A' for Active; 'I' for Inactive)
REMARK    1  A    between atoms: C_2  and  O_3
REMARK    2  A    between atoms: C_2  and  C_4
REMARK    3  A    between atoms: C_7  and  N_8
REMARK    4  A    between atoms: N_8  and  C_9
REMARK    5  A    between atoms: C_9  and  C_10
REMARK    6  A    between atoms: C_14  and  N_15
REMARK                            x       y       z     vdW  Elec       q    Type
REMARK                         _______ _______ _______ _____ _____    ______ ____
ROOT
ATOM      1  N   UNL     1      43.695   4.605   9.865  0.00  0.00    +0.000 N 
ATOM      2  H   UNL     1      43.656   5.591   9.618  0.00  0.00    +0.000 HD
ENDROOT
BRANCH   1   6
ATOM      3  C   UNL     1      46.665   2.610   7.615  0.00  0.00    +0.000 A 
ATOM      4  C   UNL     1      46.567   4.005   7.613  0.00  0.00    +0.000 A 
ATOM      5  C   UNL     1      45.590   4.642   8.389  0.00  0.00    +0.000 A 
ATOM      6  C   UNL     1      44.707   3.907   9.195  0.00  0.00    +0.000 A 
ATOM      7  C   UNL     1      44.831   2.507   9.166  0.00  0.00    +0.000 A 
ATOM      8  F   UNL     1      44.018   1.725   9.896  0.00  0.00    +0.000 F 
ATOM      9  C   UNL     1      45.803   1.859   8.413  0.00  0.00    +0.000 A 
BRANCH   3  11
ATOM     10  O   UNL     1      47.648   0.788   6.460  0.00  0.00    +0.000 OA
ATOM     11  C   UNL     1      47.706   1.963   6.789  0.00  0.00    +0.000 C 
BRANCH  11  12
ATOM     12  O   UNL     1      48.734   2.772   6.463  0.00  0.00    +0.000 OA
ATOM     13  H   UNL     1      48.492   3.689   6.234  0.00  0.00    +0.000 HD
ENDBRANCH  11  12
ENDBRANCH   3  11
ENDBRANCH   1   6
BRANCH   1  14
ATOM     14  C   UNL     1      43.483   4.363  11.289  0.00  0.00    +0.000 C 
BRANCH  14  15
ATOM     15  C   UNL     1      44.716   4.746  12.067  0.00  0.00    +0.000 A 
ATOM     16  C   UNL     1      45.463   3.774  12.738  0.00  0.00    +0.000 A 
ATOM     17  C   UNL     1      46.598   4.143  13.449  0.00  0.00    +0.000 A 
ATOM     18  C   UNL     1      46.986   5.484  13.494  0.00  0.00    +0.000 A 
ATOM     19  C   UNL     1      46.256   6.493  12.850  0.00  0.00    +0.000 A 
ATOM     20  C   UNL     1      45.114   6.093  12.144  0.00  0.00    +0.000 A 
BRANCH  19  21
ATOM     21  N   UNL     1      46.681   7.801  12.876  0.00  0.00    +0.000 N 
ATOM     22  C   UNL     1      45.761   8.945  12.922  0.00  0.00    +0.000 C 
ATOM     23  C   UNL     1      46.293  10.043  11.981  0.00  0.00    +0.000 C 
ATOM     24  O   UNL     1      47.654  10.405  12.281  0.00  0.00    +0.000 OA
ATOM     25  C   UNL     1      48.513   9.253  12.186  0.00  0.00    +0.000 C 
ATOM     26  C   UNL     1      48.078   8.156  13.167  0.00  0.00    +0.000 C 
ENDBRANCH  19  21
ENDBRANCH  14  15
ENDBRANCH   1  14
TORSDOF 6
ENDMDL
MODEL 3
REMARK VINA RESULT:    -8.032      2.520      3.836
REMARK INTER + INTRA:         -11.357
REMARK INTER:                 -10.653
REMARK INTRA:                  -0.704
REMARK UNBOUND:                -0.743
REMARK  Name = 
REMARK  6 active torsions:
REMARK  status: ('A' for Active; 'I' for Inactive)
REMARK    1  A    between atoms: C_2  and  O_3
REMARK    2  A    between atoms: C_2  and  C_4
REMARK    3  A    between atoms: C_7  and  N_8
REMARK    4  A    between atoms: N_8  and  C_9
REMARK    5  A    between atoms: C_9  and  C_10
REMARK    6  A    between atoms: C_14  and  N_15
REMARK                            x       y       z     vdW  Elec       q    Type
REMARK                         _______ _______ _______ _____ _____    ______ ____
ROOT
ATOM      1  N   UNL     1      43.740   4.991   9.631  0.00  0.00    +0.000 N 
ATOM      2  H   UNL     1      43.859   5.860   9.116  0.00  0.00    +0.000 HD
ENDROOT
BRANCH   1   6
ATOM      3  C   UNL     1      46.178   1.938   8.018  0.00  0.00    +0.000 A 
ATOM      4  C   UNL     1      46.300   3.265   7.594  0.00  0.00    +0.000 A 
ATOM      5  C   UNL     1      45.497   4.262   8.165  0.00  0.00    +0.000 A 
ATOM      6  C   UNL     1      44.575   3.962   9.179  0.00  0.00    +0.000 A 
ATOM      7  C   UNL     1      44.476   2.617   9.574  0.00  0.00    +0.000 A 
ATOM      8  F   UNL     1      43.609   2.239  10.529  0.00  0.00    +0.000 F 
ATOM      9  C   UNL     1      45.273   1.618   9.029  0.00  0.00    +0.000 A 
BRANCH   3  11
ATOM     10  O   UNL     1      46.897  -0.286   7.625  0.00  0.00    +0.000 OA
ATOM     11  C   UNL     1      47.037   0.906   7.402  0.00  0.00    +0.000 C 
BRANCH  11  12
ATOM     12  O   UNL     1      48.006   1.399   6.603  0.00  0.00    +0.000 OA
ATOM     13  H   UNL     1      48.531   2.129   6.981  0.00  0.00    +0.000 HD
ENDBRANCH  11  12
ENDBRANCH   3  11
ENDBRANCH   1   6
BRANCH   1  14
ATOM     14  C   UNL     1      43.569   5.195  11.066  0.00  0.00    +0.000 C 
BRANCH  14  15
ATOM     15  C   UNL     1      44.774   5.900  11.634  0.00  0.00    +0.000 A 
ATOM     16  C   UNL     1      45.820   5.172  12.209  0.00  0.00    +0.000 A 
ATOM     17  C   UNL     1      46.923   5.838  12.726  0.00  0.00    +0.000 A 
ATOM     18  C   UNL     1      46.983   7.232  12.673  0.00  0.00    +0.000 A 
ATOM     19  C   UNL     1      45.949   8.002  12.121  0.00  0.00    +0.000 A 
ATOM     20  C   UNL     1      44.847   7.305  11.611  0.00  0.00    +0.000 A 
BRANCH  19  21
ATOM     21  N   UNL     1      46.051   9.372  12.045  0.00  0.00    +0.000 N 
ATOM     22  C   UNL     1      44.886  10.259  11.934  0.00  0.00    +0.000 C 
ATOM     23  C   UNL     1      45.211  11.375  10.921  0.00  0.00    +0.000 C 
ATOM     24  O   UNL     1      46.422  12.077  11.256  0.00  0.00    +0.000 OA
ATOM     25  C   UNL     1      47.533  11.164  11.317  0.00  0.00    +0.000 C 
ATOM     26  C   UNL     1      47.298  10.076  12.374  0.00  0.00    +0.000 C 
ENDBRANCH  19  21
ENDBRANCH  14  15
ENDBRANCH   1  14
TORSDOF 6
ENDMDL
MODEL 4
REMARK VINA RESULT:    -7.966      2.240      3.261
REMARK INTER + INTRA:         -11.270
REMARK INTER:                 -10.295
REMARK INTRA:                  -0.974
REMARK UNBOUND:                -0.743
REMARK  Name = 
REMARK  6 active torsions:
REMARK  status: ('A' for Active; 'I' for Inactive)
REMARK    1  A    between atoms: C_2  and  O_3
REMARK    2  A    between atoms: C_2  and  C_4
REMARK    3  A    between atoms: C_7  and  N_8
REMARK    4  A    between atoms: N_8  and  C_9
REMARK    5  A    between atoms: C_9  and  C_10
REMARK    6  A    between atoms: C_14  and  N_15
REMARK                            x       y       z     vdW  Elec       q    Type
REMARK                         _______ _______ _______ _____ _____    ______ ____
ROOT
ATOM      1  N   UNL     1      43.845   4.853   9.975  0.00  0.00    +0.000 N 
ATOM      2  H   UNL     1      44.015   5.821   9.710  0.00  0.00    +0.000 HD
ENDROOT
BRANCH   1   6
ATOM      3  C   UNL     1      46.233   1.971   8.010  0.00  0.00    +0.000 A 
ATOM      4  C   UNL     1      45.139   1.595   8.797  0.00  0.00    +0.000 A 
ATOM      5  C   UNL     1      44.348   2.572   9.415  0.00  0.00    +0.000 A 
ATOM      6  C   UNL     1      44.617   3.939   9.248  0.00  0.00    +0.000 A 
ATOM      7  C   UNL     1      45.729   4.279   8.457  0.00  0.00    +0.000 A 
ATOM      8  F   UNL     1      46.067   5.563   8.256  0.00  0.00    +0.000 F 
ATOM      9  C   UNL     1      46.516   3.323   7.825  0.00  0.00    +0.000 A 
BRANCH   3  11
ATOM     10  O   UNL     1      47.864   1.165   6.492  0.00  0.00    +0.000 OA
ATOM     11  C   UNL     1      47.049   0.920   7.368  0.00  0.00    +0.000 C 
BRANCH  11  12
ATOM     12  O   UNL     1      46.790  -0.328   7.809  0.00  0.00    +0.000 OA
ATOM     13  H   UNL     1      46.631  -0.410   8.768  0.00  0.00    +0.000 HD
ENDBRANCH  11  12
ENDBRANCH   3  11
ENDBRANCH   1   6
BRANCH   1  14
ATOM     14  C   UNL     1      43.691   4.673  11.415  0.00  0.00    +0.000 C 
BRANCH  14  15
ATOM     15  C   UNL     1      44.982   5.010  12.118  0.00  0.00    +0.000 A 
ATOM     16  C   UNL     1      45.529   4.133  13.059  0.00  0.00    +0.000 A 
ATOM     17  C   UNL     1      46.719   4.458  13.696  0.00  0.00    +0.000 A 
ATOM     18  C   UNL     1      47.362   5.661  13.399  0.00  0.00    +0.000 A 
ATOM     19  C   UNL     1      46.840   6.577  12.475  0.00  0.00    +0.000 A 
ATOM     20  C   UNL     1      45.636   6.226  11.850  0.00  0.00    +0.000 A 
BRANCH  19  21
ATOM     21  N   UNL     1      47.514   7.737  12.169  0.00  0.00    +0.000 N 
ATOM     22  C   UNL     1      48.809   7.755  11.477  0.00  0.00    +0.000 C 
ATOM     23  C   UNL     1      49.706   8.820  12.137  0.00  0.00    +0.000 C 
ATOM     24  O   UNL     1      49.074  10.113  12.180  0.00  0.00    +0.000 OA
ATOM     25  C   UNL     1      47.828  10.041  12.900  0.00  0.00    +0.000 C 
ATOM     26  C   UNL     1      46.862   9.053  12.234  0.00  0.00    +0.000 C 
ENDBRANCH  19  21
ENDBRANCH  14  15
ENDBRANCH   1  14
TORSDOF 6
ENDMDL
MODEL 5
REMARK VINA RESULT:    -7.699      2.989      4.557
REMARK INTER + INTRA:         -10.917
REMARK INTER:                  -9.966
REMARK INTRA:                  -0.952
REMARK UNBOUND:                -0.743
REMARK  Name = 
REMARK  6 active torsions:
REMARK  status: ('A' for Active; 'I' for Inactive)
REMARK    1  A    between atoms: C_2  and  O_3
REMARK    2  A    between atoms: C_2  and  C_4
REMARK    3  A    between atoms: C_7  and  N_8
REMARK    4  A    between atoms: N_8  and  C_9
REMARK    5  A    between atoms: C_9  and  C_10
REMARK    6  A    between atoms: C_14  and  N_15
REMARK                            x       y       z     vdW  Elec       q    Type
REMARK                         _______ _______ _______ _____ _____    ______ ____
ROOT
ATOM      1  N   UNL     1      43.708   4.633  10.076  0.00  0.00    +0.000 N 
ATOM      2  H   UNL     1      43.489   5.512   9.612  0.00  0.00    +0.000 HD
ENDROOT
BRANCH   1   6
ATOM      3  C   UNL     1      46.279   1.989   8.011  0.00  0.00    +0.000 A 
ATOM      4  C   UNL     1      45.192   1.515   8.753  0.00  0.00    +0.000 A 
ATOM      5  C   UNL     1      44.340   2.415   9.406  0.00  0.00    +0.000 A 
ATOM      6  C   UNL     1      44.540   3.801   9.318  0.00  0.00    +0.000 A 
ATOM      7  C   UNL     1      45.646   4.240   8.570  0.00  0.00    +0.000 A 
ATOM      8  F   UNL     1      45.920   5.550   8.444  0.00  0.00    +0.000 F 
ATOM      9  C   UNL     1      46.493   3.362   7.904  0.00  0.00    +0.000 A 
BRANCH   3  11
ATOM     10  O   UNL     1      48.024   1.359   6.537  0.00  0.00    +0.000 OA
ATOM     11  C   UNL     1      47.161   1.019   7.331  0.00  0.00    +0.000 C 
BRANCH  11  12
ATOM     12  O   UNL     1      46.906  -0.270   7.638  0.00  0.00    +0.000 OA
ATOM     13  H   UNL     1      47.675  -0.793   7.930  0.00  0.00    +0.000 HD
ENDBRANCH  11  12
ENDBRANCH   3  11
ENDBRANCH   1   6
BRANCH   1  14
ATOM     14  C   UNL     1      43.963   4.789  11.505  0.00  0.00    +0.000 C 
BRANCH  14  15
ATOM     15  C   UNL     1      44.854   5.981  11.744  0.00  0.00    +0.000 A 
ATOM     16  C   UNL     1      46.131   5.817  12.287  0.00  0.00    +0.000 A 
ATOM     17  C   UNL     1      46.940   6.926  12.499  0.00  0.00    +0.000 A 
ATOM     18  C   UNL     1      46.473   8.201  12.173  0.00  0.00    +0.000 A 
ATOM     19  C   UNL     1      45.192   8.413  11.642  0.00  0.00    +0.000 A 
ATOM     20  C   UNL     1      44.396   7.277  11.443  0.00  0.00    +0.000 A 
BRANCH  19  21
ATOM     21  N   UNL     1      44.770   9.675  11.292  0.00  0.00    +0.000 N 
ATOM     22  C   UNL     1      45.681  10.820  11.168  0.00  0.00    +0.000 C 
ATOM     23  C   UNL     1      44.999  12.060  11.777  0.00  0.00    +0.000 C 
ATOM     24  O   UNL     1      43.703  12.307  11.201  0.00  0.00    +0.000 OA
ATOM     25  C   UNL     1      42.845  11.166  11.383  0.00  0.00    +0.000 C 
ATOM     26  C   UNL     1      43.438   9.916  10.720  0.00  0.00    +0.000 C 
ENDBRANCH  19  21
ENDBRANCH  14  15
ENDBRANCH   1  14
TORSDOF 6
ENDMDL
MODEL 6
REMARK VINA RESULT:    -7.574      1.902      2.361
REMARK INTER + INTRA:         -10.753
REMARK INTER:                 -10.020
REMARK INTRA:                  -0.733
REMARK UNBOUND:                -0.743
REMARK  Name = 
REMARK  6 active torsions:
REMARK  status: ('A' for Active; 'I' for Inactive)
REMARK    1  A    between atoms: C_2  and  O_3
REMARK    2  A    between atoms: C_2  and  C_4
REMARK    3  A    between atoms: C_7  and  N_8
REMARK    4  A    between atoms: N_8  and  C_9
REMARK    5  A    between atoms: C_9  and  C_10
REMARK    6  A    between atoms: C_14  and  N_15
REMARK                            x       y       z     vdW  Elec       q    Type
REMARK                         _______ _______ _______ _____ _____    ______ ____
ROOT
ATOM      1  N   UNL     1      44.105   5.040   9.882  0.00  0.00    +0.000 N 
ATOM      2  H   UNL     1      43.990   5.899   9.349  0.00  0.00    +0.000 HD
ENDROOT
BRANCH   1   6
ATOM      3  C   UNL     1      46.469   2.289   7.710  0.00  0.00    +0.000 A 
ATOM      4  C   UNL     1      46.615   3.670   7.536  0.00  0.00    +0.000 A 
ATOM      5  C   UNL     1      45.837   4.560   8.289  0.00  0.00    +0.000 A 
ATOM      6  C   UNL     1      44.916   4.096   9.240  0.00  0.00    +0.000 A 
ATOM      7  C   UNL     1      44.791   2.703   9.382  0.00  0.00    +0.000 A 
ATOM      8  F   UNL     1      43.923   2.173  10.259  0.00  0.00    +0.000 F 
ATOM      9  C   UNL     1      45.564   1.806   8.655  0.00  0.00    +0.000 A 
BRANCH   3  11
ATOM     10  O   UNL     1      47.019   0.196   6.747  0.00  0.00    +0.000 OA
ATOM     11  C   UNL     1      47.302   1.373   6.906  0.00  0.00    +0.000 C 
BRANCH  11  12
ATOM     12  O   UNL     1      48.414   1.941   6.396  0.00  0.00    +0.000 OA
ATOM     13  H   UNL     1      48.420   2.058   5.427  0.00  0.00    +0.000 HD
ENDBRANCH  11  12
ENDBRANCH   3  11
ENDBRANCH   1   6
BRANCH   1  14
ATOM     14  C   UNL     1      44.275   5.273  11.312  0.00  0.00    +0.000 C 
BRANCH  14  15
ATOM     15  C   UNL     1      44.961   6.597  11.542  0.00  0.00    +0.000 A 
ATOM     16  C   UNL     1      44.262   7.797  11.384  0.00  0.00    +0.000 A 
ATOM     17  C   UNL     1      44.908   9.006  11.600  0.00  0.00    +0.000 A 
ATOM     18  C   UNL     1      46.254   9.020  11.971  0.00  0.00    +0.000 A 
ATOM     19  C   UNL     1      46.998   7.841  12.123  0.00  0.00    +0.000 A 
ATOM     20  C   UNL     1      46.322   6.635  11.894  0.00  0.00    +0.000 A 
BRANCH  19  21
ATOM     21  N   UNL     1      48.312   7.880  12.528  0.00  0.00    +0.000 N 
ATOM     22  C   UNL     1      48.946   6.807  13.304  0.00  0.00    +0.000 C 
ATOM     23  C   UNL     1      49.840   7.443  14.386  0.00  0.00    +0.000 C 
ATOM     24  O   UNL     1      50.790   8.371  13.830  0.00  0.00    +0.000 OA
ATOM     25  C   UNL     1      50.111   9.417  13.112  0.00  0.00    +0.000 C 
ATOM     26  C   UNL     1      49.268   8.844  11.965  0.00  0.00    +0.000 C 
ENDBRANCH  19  21
ENDBRANCH  14  15
ENDBRANCH   1  14
TORSDOF 6
ENDMDL
MODEL 7
REMARK VINA RESULT:    -7.007      2.798      6.712
REMARK INTER + INTRA:         -10.003
REMARK INTER:                  -8.925
REMARK INTRA:                  -1.078
REMARK UNBOUND:                -0.743
REMARK  Name = 
REMARK  6 active torsions:
REMARK  status: ('A' for Active; 'I' for Inactive)
REMARK    1  A    between atoms: C_2  and  O_3
REMARK    2  A    between atoms: C_2  and  C_4
REMARK    3  A    between atoms: C_7  and  N_8
REMARK    4  A    between atoms: N_8  and  C_9
REMARK    5  A    between atoms: C_9  and  C_10
REMARK    6  A    between atoms: C_14  and  N_15
REMARK                            x       y       z     vdW  Elec       q    Type
REMARK                         _______ _______ _______ _____ _____    ______ ____
ROOT
ATOM      1  N   UNL     1      45.123   7.318  12.919  0.00  0.00    +0.000 N 
ATOM      2  H   UNL     1      44.868   6.759  13.731  0.00  0.00    +0.000 HD
ENDROOT
BRANCH   1   6
ATOM      3  C   UNL     1      49.255   7.805  12.174  0.00  0.00    +0.000 A 
ATOM      4  C   UNL     1      48.349   8.849  11.958  0.00  0.00    +0.000 A 
ATOM      5  C   UNL     1      46.989   8.669  12.239  0.00  0.00    +0.000 A 
ATOM      6  C   UNL     1      46.506   7.458  12.757  0.00  0.00    +0.000 A 
ATOM      7  C   UNL     1      47.444   6.429  12.954  0.00  0.00    +0.000 A 
ATOM      8  F   UNL     1      47.067   5.232  13.433  0.00  0.00    +0.000 F 
ATOM      9  C   UNL     1      48.800   6.594  12.694  0.00  0.00    +0.000 A 
BRANCH   3  11
ATOM     10  O   UNL     1      51.342   8.904  12.400  0.00  0.00    +0.000 OA
ATOM     11  C   UNL     1      50.685   8.021  11.871  0.00  0.00    +0.000 C 
BRANCH  11  12
ATOM     12  O   UNL     1      51.185   7.184  10.939  0.00  0.00    +0.000 OA
ATOM     13  H   UNL     1      51.399   6.286  11.253  0.00  0.00    +0.000 HD
ENDBRANCH  11  12
ENDBRANCH   3  11
ENDBRANCH   1   6
BRANCH   1  14
ATOM     14  C   UNL     1      44.290   7.046  11.753  0.00  0.00    +0.000 C 
BRANCH  14  15
ATOM     15  C   UNL     1      44.191   5.558  11.525  0.00  0.00    +0.000 A 
ATOM     16  C   UNL     1      43.577   4.734  12.472  0.00  0.00    +0.000 A 
ATOM     17  C   UNL     1      43.493   3.366  12.246  0.00  0.00    +0.000 A 
ATOM     18  C   UNL     1      44.025   2.819  11.077  0.00  0.00    +0.000 A 
ATOM     19  C   UNL     1      44.665   3.608  10.109  0.00  0.00    +0.000 A 
ATOM     20  C   UNL     1      44.739   4.983  10.365  0.00  0.00    +0.000 A 
BRANCH  19  21
ATOM     21  N   UNL     1      45.145   3.050   8.947  0.00  0.00    +0.000 N 
ATOM     22  C   UNL     1      45.209   1.601   8.717  0.00  0.00    +0.000 C 
ATOM     23  C   UNL     1      46.541   1.271   8.016  0.00  0.00    +0.000 C 
ATOM     24  O   UNL     1      46.728   2.040   6.813  0.00  0.00    +0.000 OA
ATOM     25  C   UNL     1      46.690   3.449   7.105  0.00  0.00    +0.000 C 
ATOM     26  C   UNL     1      45.347   3.849   7.730  0.00  0.00    +0.000 C 
ENDBRANCH  19  21
ENDBRANCH  14  15
ENDBRANCH   1  14
TORSDOF 6
ENDMDL
MODEL 8
REMARK VINA RESULT:    -6.829      1.643      7.378
REMARK INTER + INTRA:          -9.767
REMARK INTER:                  -8.903
REMARK INTRA:                  -0.864
REMARK UNBOUND:                -0.743
REMARK  Name = 
REMARK  6 active torsions:
REMARK  status: ('A' for Active; 'I' for Inactive)
REMARK    1  A    between atoms: C_2  and  O_3
REMARK    2  A    between atoms: C_2  and  C_4
REMARK    3  A    between atoms: C_7  and  N_8
REMARK    4  A    between atoms: N_8  and  C_9
REMARK    5  A    between atoms: C_9  and  C_10
REMARK    6  A    between atoms: C_14  and  N_15
REMARK                            x       y       z     vdW  Elec       q    Type
REMARK                         _______ _______ _______ _____ _____    ______ ____
ROOT
ATOM      1  N   UNL     1      47.365   6.419  12.964  0.00  0.00    +0.000 N 
ATOM      2  H   UNL     1      48.150   6.948  12.590  0.00  0.00    +0.000 HD
ENDROOT
BRANCH   1   6
ATOM      3  C   UNL     1      48.357   4.874  16.771  0.00  0.00    +0.000 A 
ATOM      4  C   UNL     1      48.823   6.124  16.351  0.00  0.00    +0.000 A 
ATOM      5  C   UNL     1      48.457   6.624  15.094  0.00  0.00    +0.000 A 
ATOM      6  C   UNL     1      47.608   5.902  14.242  0.00  0.00    +0.000 A 
ATOM      7  C   UNL     1      47.165   4.646  14.696  0.00  0.00    +0.000 A 
ATOM      8  F   UNL     1      46.361   3.881  13.939  0.00  0.00    +0.000 F 
ATOM      9  C   UNL     1      47.507   4.141  15.945  0.00  0.00    +0.000 A 
BRANCH   3  11
ATOM     10  O   UNL     1      49.925   4.246  18.434  0.00  0.00    +0.000 OA
ATOM     11  C   UNL     1      48.757   4.370  18.102  0.00  0.00    +0.000 C 
BRANCH  11  12
ATOM     12  O   UNL     1      47.722   4.030  18.897  0.00  0.00    +0.000 OA
ATOM     13  H   UNL     1      47.924   3.378  19.594  0.00  0.00    +0.000 HD
ENDBRANCH  11  12
ENDBRANCH   3  11
ENDBRANCH   1   6
BRANCH   1  14
ATOM     14  C   UNL     1      46.073   7.030  12.673  0.00  0.00    +0.000 C 
BRANCH  14  15
ATOM     15  C   UNL     1      45.130   5.999  12.105  0.00  0.00    +0.000 A 
ATOM     16  C   UNL     1      43.886   5.769  12.700  0.00  0.00    +0.000 A 
ATOM     17  C   UNL     1      43.030   4.817  12.163  0.00  0.00    +0.000 A 
ATOM     18  C   UNL     1      43.415   4.091  11.034  0.00  0.00    +0.000 A 
ATOM     19  C   UNL     1      44.661   4.277  10.418  0.00  0.00    +0.000 A 
ATOM     20  C   UNL     1      45.507   5.240  10.983  0.00  0.00    +0.000 A 
BRANCH  19  21
ATOM     21  N   UNL     1      45.001   3.577   9.283  0.00  0.00    +0.000 N 
ATOM     22  C   UNL     1      44.702   2.151   9.100  0.00  0.00    +0.000 C 
ATOM     23  C   UNL     1      45.918   1.473   8.438  0.00  0.00    +0.000 C 
ATOM     24  O   UNL     1      46.307   2.128   7.216  0.00  0.00    +0.000 OA
ATOM     25  C   UNL     1      46.620   3.511   7.464  0.00  0.00    +0.000 C 
ATOM     26  C   UNL     1      45.413   4.256   8.047  0.00  0.00    +0.000 C 
ENDBRANCH  19  21
ENDBRANCH  14  15
ENDBRANCH   1  14
TORSDOF 6
ENDMDL
MODEL 9
REMARK VINA RESULT:    -6.490      3.570      7.623
REMARK INTER + INTRA:          -9.320
REMARK INTER:                  -8.549
REMARK INTRA:                  -0.771
REMARK UNBOUND:                -0.743
REMARK  Name = 
REMARK  6 active torsions:
REMARK  status: ('A' for Active; 'I' for Inactive)
REMARK    1  A    between atoms: C_2  and  O_3
REMARK    2  A    between atoms: C_2  and  C_4
REMARK    3  A    between atoms: C_7  and  N_8
REMARK    4  A    between atoms: N_8  and  C_9
REMARK    5  A    between atoms: C_9  and  C_10
REMARK    6  A    between atoms: C_14  and  N_15
REMARK                            x       y       z     vdW  Elec       q    Type
REMARK                         _______ _______ _______ _____ _____    ______ ____
ROOT
ATOM      1  N   UNL     1      48.099   5.793  16.253  0.00  0.00    +0.000 N 
ATOM      2  H   UNL     1      47.236   5.443  15.843  0.00  0.00    +0.000 HD
ENDROOT
BRANCH   1   6
ATOM      3  C   UNL     1      50.811   2.802  17.505  0.00  0.00    +0.000 A 
ATOM      4  C   UNL     1      51.163   4.156  17.524  0.00  0.00    +0.000 A 
ATOM      5  C   UNL     1      50.235   5.129  17.128  0.00  0.00    +0.000 A 
ATOM      6  C   UNL     1      48.937   4.777  16.727  0.00  0.00    +0.000 A 
ATOM      7  C   UNL     1      48.622   3.407  16.715  0.00  0.00    +0.000 A 
ATOM      8  F   UNL     1      47.407   2.981  16.331  0.00  0.00    +0.000 F 
ATOM      9  C   UNL     1      49.525   2.430  17.117  0.00  0.00    +0.000 A 
BRANCH   3  11
ATOM     10  O   UNL     1      52.931   2.099  18.297  0.00  0.00    +0.000 OA
ATOM     11  C   UNL     1      51.807   1.796  17.928  0.00  0.00    +0.000 C 
BRANCH  11  12
ATOM     12  O   UNL     1      51.376   0.521  17.838  0.00  0.00    +0.000 OA
ATOM     13  H   UNL     1      50.945   0.166  18.637  0.00  0.00    +0.000 HD
ENDBRANCH  11  12
ENDBRANCH   3  11
ENDBRANCH   1   6
BRANCH   1  14
ATOM     14  C   UNL     1      48.677   6.906  15.506  0.00  0.00    +0.000 C 
BRANCH  14  15
ATOM     15  C   UNL     1      48.176   6.888  14.084  0.00  0.00    +0.000 A 
ATOM     16  C   UNL     1      48.738   7.732  13.121  0.00  0.00    +0.000 A 
ATOM     17  C   UNL     1      48.265   7.702  11.816  0.00  0.00    +0.000 A 
ATOM     18  C   UNL     1      47.228   6.833  11.470  0.00  0.00    +0.000 A 
ATOM     19  C   UNL     1      46.624   5.983  12.408  0.00  0.00    +0.000 A 
ATOM     20  C   UNL     1      47.118   6.037  13.718  0.00  0.00    +0.000 A 
BRANCH  19  21
ATOM     21  N   UNL     1      45.631   5.107  12.033  0.00  0.00    +0.000 N 
ATOM     22  C   UNL     1      45.183   4.949  10.644  0.00  0.00    +0.000 C 
ATOM     23  C   UNL     1      43.647   4.823  10.634  0.00  0.00    +0.000 C 
ATOM     24  O   UNL     1      43.181   3.771  11.499  0.00  0.00    +0.000 OA
ATOM     25  C   UNL     1      43.621   3.998  12.850  0.00  0.00    +0.000 C 
ATOM     26  C   UNL     1      45.153   4.047  12.932  0.00  0.00    +0.000 C 
ENDBRANCH  19  21
ENDBRANCH  14  15
ENDBRANCH   1  14
TORSDOF 6
ENDMDL
