MODEL 1
REMARK VINA RESULT:    -8.633      0.000      0.000
REMARK INTER + INTRA:         -12.925
REMARK INTER:                 -12.166
REMARK INTRA:                  -0.758
REMARK UNBOUND:                -0.758
REMARK  Name = 
REMARK  11 active torsions:
REMARK  status: ('A' for Active; 'I' for Inactive)
REMARK    1  A    between atoms: C_1  and  C_2
REMARK    2  A    between atoms: N_4  and  C_5
REMARK    3  A    between atoms: C_7  and  N_8
REMARK    4  A    between atoms: N_8  and  C_9
REMARK    5  A    between atoms: C_9  and  C_10
REMARK    6  A    between atoms: C_9  and  C_11
REMARK    7  A    between atoms: C_16  and  N_17
REMARK    8  A    between atoms: N_17  and  C_18
REMARK    9  A    between atoms: C_18  and  C_19
REMARK   10  A    between atoms: C_18  and  C_20
REMARK   11  A    between atoms: C_23  and  C_24
REMARK                            x       y       z     vdW  Elec       q    Type
REMARK                         _______ _______ _______ _____ _____    ______ ____
ROOT
ATOM      1  C   UNL     1      47.286   6.673  12.158  0.00  0.00    +0.000 A 
ATOM      2  C   UNL     1      47.621   5.905  13.284  0.00  0.00    +0.000 A 
ATOM      3  C   UNL     1      46.759   4.917  13.745  0.00  0.00    +0.000 A 
ATOM      4 CL   UNL     1      47.153   4.046  15.176  0.00  0.00    +0.000 Cl
ATOM      5  C   UNL     1      45.559   4.655  13.085  0.00  0.00    +0.000 A 
ATOM      6  C   UNL     1      45.210   5.349  11.922  0.00  0.00    +0.000 A 
ATOM      7  C   UNL     1      46.073   6.381  11.495  0.00  0.00    +0.000 A 
ENDROOT
BRANCH   1   8
ATOM      8  C   UNL     1      48.180   7.861  11.811  0.00  0.00    +0.000 C 
ATOM      9  C   UNL     1      49.634   7.488  12.124  0.00  0.00    +0.000 C 
BRANCH   8  10
ATOM     10  N   UNL     1      47.798   9.085  12.513  0.00  0.00    +0.000 N 
ATOM     11  H   UNL     1      48.549   9.428  13.105  0.00  0.00    +0.000 HD
BRANCH  10  18
ATOM     12  C   UNL     1      48.551  11.684  10.587  0.00  0.00    +0.000 C 
ATOM     13  C   UNL     1      47.271  11.170  11.132  0.00  0.00    +0.000 A 
ATOM     14  N   UNL     1      46.143  11.830  10.820  0.00  0.00    +0.000 NA
ATOM     15  N   UNL     1      45.170  11.110  11.397  0.00  0.00    +0.000 N 
ATOM     16  C   UNL     1      43.794  11.519  11.250  0.00  0.00    +0.000 C 
ATOM     17  C   UNL     1      45.631  10.027  12.087  0.00  0.00    +0.000 A 
ATOM     18  C   UNL     1      46.999  10.036  11.954  0.00  0.00    +0.000 A 
ENDBRANCH  10  18
ENDBRANCH   8  10
ENDBRANCH   1   8
BRANCH   6  19
ATOM     19  N   UNL     1      43.984   5.174  11.270  0.00  0.00    +0.000 N 
ATOM     20  H   UNL     1      43.758   5.946  10.648  0.00  0.00    +0.000 HD
BRANCH  19  21
ATOM     21  C   UNL     1      43.598   3.877  10.697  0.00  0.00    +0.000 C 
ATOM     22  C   UNL     1      43.494   2.817  11.797  0.00  0.00    +0.000 C 
BRANCH  21  23
ATOM     23  C   UNL     1      44.600   3.490   9.616  0.00  0.00    +0.000 A 
ATOM     24  C   UNL     1      44.971   2.143   9.462  0.00  0.00    +0.000 A 
ATOM     25  C   UNL     1      45.890   1.759   8.479  0.00  0.00    +0.000 A 
ATOM     26  C   UNL     1      46.442   2.713   7.620  0.00  0.00    +0.000 A 
ATOM     27  C   UNL     1      46.088   4.057   7.766  0.00  0.00    +0.000 A 
ATOM     28  C   UNL     1      45.174   4.441   8.755  0.00  0.00    +0.000 A 
BRANCH  26  29
ATOM     29  C   UNL     1      47.413   2.258   6.594  0.00  0.00    +0.000 C 
ATOM     30  N   UNL     1      47.460   2.947   5.413  0.00  0.00    +0.000 N 
ATOM     31  O   UNL     1      48.127   1.276   6.772  0.00  0.00    +0.000 OA
ATOM     32  H   UNL     1      46.746   3.607   5.135  0.00  0.00    +0.000 HD
ATOM     33  H   UNL     1      48.049   2.557   4.690  0.00  0.00    +0.000 HD
ENDBRANCH  26  29
ENDBRANCH  21  23
ENDBRANCH  19  21
ENDBRANCH   6  19
TORSDOF 7
ENDMDL
MODEL 2
REMARK VINA RESULT:    -8.587      2.933      4.915
REMARK INTER + INTRA:         -12.860
REMARK INTER:                 -11.848
REMARK INTRA:                  -1.012
REMARK UNBOUND:                -0.758
REMARK  Name = 
REMARK  11 active torsions:
REMARK  status: ('A' for Active; 'I' for Inactive)
REMARK    1  A    between atoms: C_1  and  C_2
REMARK    2  A    between atoms: N_4  and  C_5
REMARK    3  A    between atoms: C_7  and  N_8
REMARK    4  A    between atoms: N_8  and  C_9
REMARK    5  A    between atoms: C_9  and  C_10
REMARK    6  A    between atoms: C_9  and  C_11
REMARK    7  A    between atoms: C_16  and  N_17
REMARK    8  A    between atoms: N_17  and  C_18
REMARK    9  A    between atoms: C_18  and  C_19
REMARK   10  A    between atoms: C_18  and  C_20
REMARK   11  A    between atoms: C_23  and  C_24
REMARK                            x       y       z     vdW  Elec       q    Type
REMARK                         _______ _______ _______ _____ _____    ______ ____
ROOT
ATOM      1  C   UNL     1      46.898   7.531  13.270  0.00  0.00    +0.000 A 
ATOM      2  C   UNL     1      46.144   8.549  12.666  0.00  0.00    +0.000 A 
ATOM      3  C   UNL     1      45.077   8.235  11.832  0.00  0.00    +0.000 A 
ATOM      4 CL   UNL     1      44.220   9.497  11.036  0.00  0.00    +0.000 Cl
ATOM      5  C   UNL     1      44.723   6.906  11.600  0.00  0.00    +0.000 A 
ATOM      6  C   UNL     1      45.402   5.859  12.229  0.00  0.00    +0.000 A 
ATOM      7  C   UNL     1      46.513   6.193  13.034  0.00  0.00    +0.000 A 
ENDROOT
BRANCH   1   8
ATOM      8  C   UNL     1      48.165   7.931  14.023  0.00  0.00    +0.000 C 
ATOM      9  C   UNL     1      49.362   7.219  13.383  0.00  0.00    +0.000 C 
BRANCH   8  10
ATOM     10  N   UNL     1      48.094   7.637  15.453  0.00  0.00    +0.000 N 
ATOM     11  H   UNL     1      47.155   7.775  15.819  0.00  0.00    +0.000 HD
BRANCH  10  18
ATOM     12  C   UNL     1      47.334   4.460  16.053  0.00  0.00    +0.000 C 
ATOM     13  C   UNL     1      48.541   5.277  16.326  0.00  0.00    +0.000 A 
ATOM     14  N   UNL     1      49.583   4.680  16.927  0.00  0.00    +0.000 NA
ATOM     15  N   UNL     1      50.523   5.636  16.984  0.00  0.00    +0.000 N 
ATOM     16  C   UNL     1      51.812   5.338  17.560  0.00  0.00    +0.000 C 
ATOM     17  C   UNL     1      50.115   6.830  16.467  0.00  0.00    +0.000 A 
ATOM     18  C   UNL     1      48.822   6.647  16.039  0.00  0.00    +0.000 A 
ENDBRANCH  10  18
ENDBRANCH   8  10
ENDBRANCH   1   8
BRANCH   6  19
ATOM     19  N   UNL     1      45.133   4.510  11.969  0.00  0.00    +0.000 N 
ATOM     20  H   UNL     1      44.997   3.968  12.817  0.00  0.00    +0.000 HD
BRANCH  19  21
ATOM     21  C   UNL     1      44.205   4.105  10.903  0.00  0.00    +0.000 C 
ATOM     22  C   UNL     1      43.217   3.058  11.425  0.00  0.00    +0.000 C 
BRANCH  21  23
ATOM     23  C   UNL     1      45.005   3.599   9.709  0.00  0.00    +0.000 A 
ATOM     24  C   UNL     1      45.549   4.518   8.796  0.00  0.00    +0.000 A 
ATOM     25  C   UNL     1      46.287   4.082   7.691  0.00  0.00    +0.000 A 
ATOM     26  C   UNL     1      46.510   2.717   7.487  0.00  0.00    +0.000 A 
ATOM     27  C   UNL     1      45.969   1.791   8.383  0.00  0.00    +0.000 A 
ATOM     28  C   UNL     1      45.224   2.229   9.485  0.00  0.00    +0.000 A 
BRANCH  26  29
ATOM     29  C   UNL     1      47.298   2.303   6.300  0.00  0.00    +0.000 C 
ATOM     30  N   UNL     1      47.274   3.121   5.203  0.00  0.00    +0.000 N 
ATOM     31  O   UNL     1      47.921   1.247   6.276  0.00  0.00    +0.000 OA
ATOM     32  H   UNL     1      46.605   3.871   5.095  0.00  0.00    +0.000 HD
ATOM     33  H   UNL     1      47.728   2.768   4.372  0.00  0.00    +0.000 HD
ENDBRANCH  26  29
ENDBRANCH  21  23
ENDBRANCH  19  21
ENDBRANCH   6  19
TORSDOF 7
ENDMDL
MODEL 3
REMARK VINA RESULT:    -8.498      2.192      3.260
REMARK INTER + INTRA:         -12.735
REMARK INTER:                 -11.768
REMARK INTRA:                  -0.966
REMARK UNBOUND:                -0.758
REMARK  Name = 
REMARK  11 active torsions:
REMARK  status: ('A' for Active; 'I' for Inactive)
REMARK    1  A    between atoms: C_1  and  C_2
REMARK    2  A    between atoms: N_4  and  C_5
REMARK    3  A    between atoms: C_7  and  N_8
REMARK    4  A    between atoms: N_8  and  C_9
REMARK    5  A    between atoms: C_9  and  C_10
REMARK    6  A    between atoms: C_9  and  C_11
REMARK    7  A    between atoms: C_16  and  N_17
REMARK    8  A    between atoms: N_17  and  C_18
REMARK    9  A    between atoms: C_18  and  C_19
REMARK   10  A    between atoms: C_18  and  C_20
REMARK   11  A    between atoms: C_23  and  C_24
REMARK                            x       y       z     vdW  Elec       q    Type
REMARK                         _______ _______ _______ _____ _____    ______ ____
ROOT
ATOM      1  C   UNL     1      45.490   7.930  11.634  0.00  0.00    +0.000 A 
ATOM      2  C   UNL     1      46.701   8.132  12.313  0.00  0.00    +0.000 A 
ATOM      3  C   UNL     1      47.363   7.063  12.905  0.00  0.00    +0.000 A 
ATOM      4 CL   UNL     1      48.804   7.347  13.804  0.00  0.00    +0.000 Cl
ATOM      5  C   UNL     1      46.849   5.770  12.815  0.00  0.00    +0.000 A 
ATOM      6  C   UNL     1      45.679   5.508  12.096  0.00  0.00    +0.000 A 
ATOM      7  C   UNL     1      44.994   6.612  11.542  0.00  0.00    +0.000 A 
ENDROOT
BRANCH   1   8
ATOM      8  C   UNL     1      44.719   9.163  11.166  0.00  0.00    +0.000 C 
ATOM      9  C   UNL     1      44.988  10.311  12.146  0.00  0.00    +0.000 C 
BRANCH   8  10
ATOM     10  N   UNL     1      43.283   8.921  11.036  0.00  0.00    +0.000 N 
ATOM     11  H   UNL     1      42.924   8.370  11.810  0.00  0.00    +0.000 HD
BRANCH  10  18
ATOM     12  C   UNL     1      43.642  10.991   8.464  0.00  0.00    +0.000 C 
ATOM     13  C   UNL     1      42.533  10.753   9.419  0.00  0.00    +0.000 A 
ATOM     14  N   UNL     1      41.410  11.475   9.274  0.00  0.00    +0.000 NA
ATOM     15  N   UNL     1      40.590  11.005  10.225  0.00  0.00    +0.000 N 
ATOM     16  C   UNL     1      39.259  11.545  10.354  0.00  0.00    +0.000 C 
ATOM     17  C   UNL     1      41.152  10.025  10.991  0.00  0.00    +0.000 A 
ATOM     18  C   UNL     1      42.426   9.839  10.510  0.00  0.00    +0.000 A 
ENDBRANCH  10  18
ENDBRANCH   8  10
ENDBRANCH   1   8
BRANCH   6  19
ATOM     19  N   UNL     1      45.085   4.242  12.041  0.00  0.00    +0.000 N 
ATOM     20  H   UNL     1      44.753   3.926  12.949  0.00  0.00    +0.000 HD
BRANCH  19  21
ATOM     21  C   UNL     1      44.159   3.875  10.960  0.00  0.00    +0.000 C 
ATOM     22  C   UNL     1      43.224   2.752  11.416  0.00  0.00    +0.000 C 
BRANCH  21  23
ATOM     23  C   UNL     1      44.963   3.489   9.724  0.00  0.00    +0.000 A 
ATOM     24  C   UNL     1      45.458   4.495   8.875  0.00  0.00    +0.000 A 
ATOM     25  C   UNL     1      46.198   4.170   7.733  0.00  0.00    +0.000 A 
ATOM     26  C   UNL     1      46.472   2.834   7.427  0.00  0.00    +0.000 A 
ATOM     27  C   UNL     1      45.980   1.823   8.259  0.00  0.00    +0.000 A 
ATOM     28  C   UNL     1      45.233   2.150   9.397  0.00  0.00    +0.000 A 
BRANCH  26  29
ATOM     29  C   UNL     1      47.260   2.539   6.205  0.00  0.00    +0.000 C 
ATOM     30  N   UNL     1      48.534   2.069   6.368  0.00  0.00    +0.000 N 
ATOM     31  O   UNL     1      46.809   2.742   5.083  0.00  0.00    +0.000 OA
ATOM     32  H   UNL     1      49.021   2.102   7.253  0.00  0.00    +0.000 HD
ATOM     33  H   UNL     1      49.089   1.977   5.528  0.00  0.00    +0.000 HD
ENDBRANCH  26  29
ENDBRANCH  21  23
ENDBRANCH  19  21
ENDBRANCH   6  19
TORSDOF 7
ENDMDL
MODEL 4
REMARK VINA RESULT:    -8.294      1.951      3.532
REMARK INTER + INTRA:         -12.447
REMARK INTER:                 -11.925
REMARK INTRA:                  -0.522
REMARK UNBOUND:                -0.758
REMARK  Name = 
REMARK  11 active torsions:
REMARK  status: ('A' for Active; 'I' for Inactive)
REMARK    1  A    between atoms: C_1  and  C_2
REMARK    2  A    between atoms: N_4  and  C_5
REMARK    3  A    between atoms: C_7  and  N_8
REMARK    4  A    between atoms: N_8  and  C_9
REMARK    5  A    between atoms: C_9  and  C_10
REMARK    6  A    between atoms: C_9  and  C_11
REMARK    7  A    between atoms: C_16  and  N_17
REMARK    8  A    between atoms: N_17  and  C_18
REMARK    9  A    between atoms: C_18  and  C_19
REMARK   10  A    between atoms: C_18  and  C_20
REMARK   11  A    between atoms: C_23  and  C_24
REMARK                            x       y       z     vdW  Elec       q    Type
REMARK                         _______ _______ _______ _____ _____    ______ ____
ROOT
ATOM      1  C   UNL     1      47.424   6.951  12.357  0.00  0.00    +0.000 A 
ATOM      2  C   UNL     1      47.657   5.963  13.326  0.00  0.00    +0.000 A 
ATOM      3  C   UNL     1      46.755   4.920  13.499  0.00  0.00    +0.000 A 
ATOM      4 CL   UNL     1      47.018   3.766  14.749  0.00  0.00    +0.000 Cl
ATOM      5  C   UNL     1      45.618   4.823  12.698  0.00  0.00    +0.000 A 
ATOM      6  C   UNL     1      45.375   5.746  11.676  0.00  0.00    +0.000 A 
ATOM      7  C   UNL     1      46.275   6.826  11.547  0.00  0.00    +0.000 A 
ENDROOT
BRANCH   1   8
ATOM      8  C   UNL     1      48.349   8.166  12.340  0.00  0.00    +0.000 C 
ATOM      9  C   UNL     1      47.510   9.417  12.051  0.00  0.00    +0.000 C 
BRANCH   8  10
ATOM     10  N   UNL     1      49.437   8.040  11.372  0.00  0.00    +0.000 N 
ATOM     11  H   UNL     1      49.163   8.377  10.453  0.00  0.00    +0.000 HD
BRANCH  10  18
ATOM     12  C   UNL     1      52.215   7.276   9.719  0.00  0.00    +0.000 C 
ATOM     13  C   UNL     1      51.968   7.902  11.040  0.00  0.00    +0.000 A 
ATOM     14  N   UNL     1      53.032   8.270  11.772  0.00  0.00    +0.000 NA
ATOM     15  N   UNL     1      52.501   8.845  12.861  0.00  0.00    +0.000 N 
ATOM     16  C   UNL     1      53.367   9.388  13.878  0.00  0.00    +0.000 C 
ATOM     17  C   UNL     1      51.136   8.837  12.869  0.00  0.00    +0.000 A 
ATOM     18  C   UNL     1      50.745   8.217  11.706  0.00  0.00    +0.000 A 
ENDBRANCH  10  18
ENDBRANCH   8  10
ENDBRANCH   1   8
BRANCH   6  19
ATOM     19  N   UNL     1      44.211   5.734  10.898  0.00  0.00    +0.000 N 
ATOM     20  H   UNL     1      44.204   6.465  10.193  0.00  0.00    +0.000 HD
BRANCH  19  21
ATOM     21  C   UNL     1      43.640   4.477  10.392  0.00  0.00    +0.000 C 
ATOM     22  C   UNL     1      43.230   3.570  11.555  0.00  0.00    +0.000 C 
BRANCH  21  23
ATOM     23  C   UNL     1      44.649   3.808   9.466  0.00  0.00    +0.000 A 
ATOM     24  C   UNL     1      44.784   2.409   9.481  0.00  0.00    +0.000 A 
ATOM     25  C   UNL     1      45.702   1.768   8.643  0.00  0.00    +0.000 A 
ATOM     26  C   UNL     1      46.492   2.512   7.761  0.00  0.00    +0.000 A 
ATOM     27  C   UNL     1      46.373   3.905   7.742  0.00  0.00    +0.000 A 
ATOM     28  C   UNL     1      45.459   4.546   8.586  0.00  0.00    +0.000 A 
BRANCH  26  29
ATOM     29  C   UNL     1      47.452   1.787   6.894  0.00  0.00    +0.000 C 
ATOM     30  N   UNL     1      48.464   2.511   6.322  0.00  0.00    +0.000 N 
ATOM     31  O   UNL     1      47.332   0.590   6.657  0.00  0.00    +0.000 OA
ATOM     32  H   UNL     1      48.471   3.521   6.303  0.00  0.00    +0.000 HD
ATOM     33  H   UNL     1      49.041   2.021   5.652  0.00  0.00    +0.000 HD
ENDBRANCH  26  29
ENDBRANCH  21  23
ENDBRANCH  19  21
ENDBRANCH   6  19
TORSDOF 7
ENDMDL
MODEL 5
REMARK VINA RESULT:    -8.083      2.810      4.386
REMARK INTER + INTRA:         -12.149
REMARK INTER:                 -11.058
REMARK INTRA:                  -1.091
REMARK UNBOUND:                -0.758
REMARK  Name = 
REMARK  11 active torsions:
REMARK  status: ('A' for Active; 'I' for Inactive)
REMARK    1  A    between atoms: C_1  and  C_2
REMARK    2  A    between atoms: N_4  and  C_5
REMARK    3  A    between atoms: C_7  and  N_8
REMARK    4  A    between atoms: N_8  and  C_9
REMARK    5  A    between atoms: C_9  and  C_10
REMARK    6  A    between atoms: C_9  and  C_11
REMARK    7  A    between atoms: C_16  and  N_17
REMARK    8  A    between atoms: N_17  and  C_18
REMARK    9  A    between atoms: C_18  and  C_19
REMARK   10  A    between atoms: C_18  and  C_20
REMARK   11  A    between atoms: C_23  and  C_24
REMARK                            x       y       z     vdW  Elec       q    Type
REMARK                         _______ _______ _______ _____ _____    ______ ____
ROOT
ATOM      1  C   UNL     1      44.389   9.076  11.200  0.00  0.00    +0.000 A 
ATOM      2  C   UNL     1      45.473   9.612  11.914  0.00  0.00    +0.000 A 
ATOM      3  C   UNL     1      46.407   8.773  12.510  0.00  0.00    +0.000 A 
ATOM      4 CL   UNL     1      47.680   9.451  13.449  0.00  0.00    +0.000 Cl
ATOM      5  C   UNL     1      46.298   7.388  12.391  0.00  0.00    +0.000 A 
ATOM      6  C   UNL     1      45.273   6.808  11.638  0.00  0.00    +0.000 A 
ATOM      7  C   UNL     1      44.306   7.672  11.079  0.00  0.00    +0.000 A 
ENDROOT
BRANCH   1   8
ATOM      8  C   UNL     1      43.301  10.036  10.727  0.00  0.00    +0.000 C 
ATOM      9  C   UNL     1      43.955  11.157   9.912  0.00  0.00    +0.000 C 
BRANCH   8  10
ATOM     10  N   UNL     1      42.513  10.591  11.828  0.00  0.00    +0.000 N 
ATOM     11  H   UNL     1      43.032  11.299  12.340  0.00  0.00    +0.000 HD
BRANCH  10  18
ATOM     12  C   UNL     1      40.461  12.360  13.748  0.00  0.00    +0.000 C 
ATOM     13  C   UNL     1      40.243  11.517  12.548  0.00  0.00    +0.000 A 
ATOM     14  N   UNL     1      38.991  11.405  12.076  0.00  0.00    +0.000 NA
ATOM     15  N   UNL     1      39.118  10.646  10.977  0.00  0.00    +0.000 N 
ATOM     16  C   UNL     1      37.955  10.331  10.186  0.00  0.00    +0.000 C 
ATOM     17  C   UNL     1      40.401  10.246  10.740  0.00  0.00    +0.000 A 
ATOM     18  C   UNL     1      41.167  10.779  11.749  0.00  0.00    +0.000 A 
ENDBRANCH  10  18
ENDBRANCH   8  10
ENDBRANCH   1   8
BRANCH   6  19
ATOM     19  N   UNL     1      45.079   5.424  11.553  0.00  0.00    +0.000 N 
ATOM     20  H   UNL     1      44.967   4.988  12.464  0.00  0.00    +0.000 HD
BRANCH  19  21
ATOM     21  C   UNL     1      44.182   4.836  10.548  0.00  0.00    +0.000 C 
ATOM     22  C   UNL     1      43.155   3.921  11.220  0.00  0.00    +0.000 C 
BRANCH  21  23
ATOM     23  C   UNL     1      45.014   4.100   9.505  0.00  0.00    +0.000 A 
ATOM     24  C   UNL     1      45.805   4.833   8.603  0.00  0.00    +0.000 A 
ATOM     25  C   UNL     1      46.579   4.184   7.635  0.00  0.00    +0.000 A 
ATOM     26  C   UNL     1      46.590   2.788   7.561  0.00  0.00    +0.000 A 
ATOM     27  C   UNL     1      45.802   2.047   8.447  0.00  0.00    +0.000 A 
ATOM     28  C   UNL     1      45.023   2.698   9.411  0.00  0.00    +0.000 A 
BRANCH  26  29
ATOM     29  C   UNL     1      47.425   2.145   6.517  0.00  0.00    +0.000 C 
ATOM     30  N   UNL     1      47.809   2.910   5.450  0.00  0.00    +0.000 N 
ATOM     31  O   UNL     1      47.733   0.959   6.576  0.00  0.00    +0.000 OA
ATOM     32  H   UNL     1      47.398   3.811   5.245  0.00  0.00    +0.000 HD
ATOM     33  H   UNL     1      48.285   2.427   4.700  0.00  0.00    +0.000 HD
ENDBRANCH  26  29
ENDBRANCH  21  23
ENDBRANCH  19  21
ENDBRANCH   6  19
TORSDOF 7
ENDMDL
MODEL 6
REMARK VINA RESULT:    -8.063      3.234      4.958
REMARK INTER + INTRA:         -12.121
REMARK INTER:                 -10.932
REMARK INTRA:                  -1.189
REMARK UNBOUND:                -0.758
REMARK  Name = 
REMARK  11 active torsions:
REMARK  status: ('A' for Active; 'I' for Inactive)
REMARK    1  A    between atoms: C_1  and  C_2
REMARK    2  A    between atoms: N_4  and  C_5
REMARK    3  A    between atoms: C_7  and  N_8
REMARK    4  A    between atoms: N_8  and  C_9
REMARK    5  A    between atoms: C_9  and  C_10
REMARK    6  A    between atoms: C_9  and  C_11
REMARK    7  A    between atoms: C_16  and  N_17
REMARK    8  A    between atoms: N_17  and  C_18
REMARK    9  A    between atoms: C_18  and  C_19
REMARK   10  A    between atoms: C_18  and  C_20
REMARK   11  A    between atoms: C_23  and  C_24
REMARK                            x       y       z     vdW  Elec       q    Type
REMARK                         _______ _______ _______ _____ _____    ______ ____
ROOT
ATOM      1  C   UNL     1      47.338   7.214  13.827  0.00  0.00    +0.000 A 
ATOM      2  C   UNL     1      46.748   8.397  13.357  0.00  0.00    +0.000 A 
ATOM      3  C   UNL     1      45.677   8.346  12.472  0.00  0.00    +0.000 A 
ATOM      4 CL   UNL     1      45.023   9.810  11.844  0.00  0.00    +0.000 Cl
ATOM      5  C   UNL     1      45.156   7.122  12.055  0.00  0.00    +0.000 A 
ATOM      6  C   UNL     1      45.668   5.917  12.545  0.00  0.00    +0.000 A 
ATOM      7  C   UNL     1      46.786   5.985  13.405  0.00  0.00    +0.000 A 
ENDROOT
BRANCH   1   8
ATOM      8  C   UNL     1      48.621   7.333  14.647  0.00  0.00    +0.000 C 
ATOM      9  C   UNL     1      49.777   7.677  13.701  0.00  0.00    +0.000 C 
BRANCH   8  10
ATOM     10  N   UNL     1      48.922   6.123  15.411  0.00  0.00    +0.000 N 
ATOM     11  H   UNL     1      49.836   5.748  15.175  0.00  0.00    +0.000 HD
BRANCH  10  18
ATOM     12  C   UNL     1      47.787   3.422  16.974  0.00  0.00    +0.000 C 
ATOM     13  C   UNL     1      48.021   4.818  17.416  0.00  0.00    +0.000 A 
ATOM     14  N   UNL     1      47.752   5.128  18.694  0.00  0.00    +0.000 NA
ATOM     15  N   UNL     1      48.111   6.416  18.804  0.00  0.00    +0.000 N 
ATOM     16  C   UNL     1      47.979   7.090  20.072  0.00  0.00    +0.000 C 
ATOM     17  C   UNL     1      48.577   6.951  17.639  0.00  0.00    +0.000 A 
ATOM     18  C   UNL     1      48.521   5.947  16.701  0.00  0.00    +0.000 A 
ENDBRANCH  10  18
ENDBRANCH   8  10
ENDBRANCH   1   8
BRANCH   6  19
ATOM     19  N   UNL     1      45.229   4.665  12.098  0.00  0.00    +0.000 N 
ATOM     20  H   UNL     1      44.992   4.038  12.862  0.00  0.00    +0.000 HD
BRANCH  19  21
ATOM     21  C   UNL     1      44.294   4.537  10.972  0.00  0.00    +0.000 C 
ATOM     22  C   UNL     1      43.078   3.700  11.380  0.00  0.00    +0.000 C 
BRANCH  21  23
ATOM     23  C   UNL     1      45.029   3.941   9.777  0.00  0.00    +0.000 A 
ATOM     24  C   UNL     1      45.096   2.545   9.627  0.00  0.00    +0.000 A 
ATOM     25  C   UNL     1      45.765   1.971   8.541  0.00  0.00    +0.000 A 
ATOM     26  C   UNL     1      46.364   2.782   7.573  0.00  0.00    +0.000 A 
ATOM     27  C   UNL     1      46.311   4.172   7.713  0.00  0.00    +0.000 A 
ATOM     28  C   UNL     1      45.648   4.745   8.805  0.00  0.00    +0.000 A 
BRANCH  26  29
ATOM     29  C   UNL     1      47.063   2.127   6.440  0.00  0.00    +0.000 C 
ATOM     30  N   UNL     1      47.330   2.887   5.334  0.00  0.00    +0.000 N 
ATOM     31  O   UNL     1      47.361   0.938   6.466  0.00  0.00    +0.000 OA
ATOM     32  H   UNL     1      46.909   3.792   5.176  0.00  0.00    +0.000 HD
ATOM     33  H   UNL     1      47.709   2.396   4.535  0.00  0.00    +0.000 HD
ENDBRANCH  26  29
ENDBRANCH  21  23
ENDBRANCH  19  21
ENDBRANCH   6  19
TORSDOF 7
ENDMDL
MODEL 7
REMARK VINA RESULT:    -7.729      2.470      3.269
REMARK INTER + INTRA:         -11.650
REMARK INTER:                 -11.347
REMARK INTRA:                  -0.303
REMARK UNBOUND:                -0.758
REMARK  Name = 
REMARK  11 active torsions:
REMARK  status: ('A' for Active; 'I' for Inactive)
REMARK    1  A    between atoms: C_1  and  C_2
REMARK    2  A    between atoms: N_4  and  C_5
REMARK    3  A    between atoms: C_7  and  N_8
REMARK    4  A    between atoms: N_8  and  C_9
REMARK    5  A    between atoms: C_9  and  C_10
REMARK    6  A    between atoms: C_9  and  C_11
REMARK    7  A    between atoms: C_16  and  N_17
REMARK    8  A    between atoms: N_17  and  C_18
REMARK    9  A    between atoms: C_18  and  C_19
REMARK   10  A    between atoms: C_18  and  C_20
REMARK   11  A    between atoms: C_23  and  C_24
REMARK                            x       y       z     vdW  Elec       q    Type
REMARK                         _______ _______ _______ _____ _____    ______ ____
ROOT
ATOM      1  C   UNL     1      46.882   7.229  12.909  0.00  0.00    +0.000 A 
ATOM      2  C   UNL     1      47.290   6.071  13.590  0.00  0.00    +0.000 A 
ATOM      3  C   UNL     1      46.665   4.854  13.346  0.00  0.00    +0.000 A 
ATOM      4 CL   UNL     1      47.125   3.465  14.252  0.00  0.00    +0.000 Cl
ATOM      5  C   UNL     1      45.641   4.756  12.404  0.00  0.00    +0.000 A 
ATOM      6  C   UNL     1      45.243   5.867  11.655  0.00  0.00    +0.000 A 
ATOM      7  C   UNL     1      45.854   7.105  11.950  0.00  0.00    +0.000 A 
ENDROOT
BRANCH   1   8
ATOM      8  C   UNL     1      47.477   8.564  13.352  0.00  0.00    +0.000 C 
ATOM      9  C   UNL     1      47.518   9.507  12.144  0.00  0.00    +0.000 C 
BRANCH   8  10
ATOM     10  N   UNL     1      48.806   8.426  13.945  0.00  0.00    +0.000 N 
ATOM     11  H   UNL     1      49.525   8.317  13.235  0.00  0.00    +0.000 HD
BRANCH  10  18
ATOM     12  C   UNL     1      50.259  11.387  14.335  0.00  0.00    +0.000 C 
ATOM     13  C   UNL     1      49.812  10.350  15.295  0.00  0.00    +0.000 A 
ATOM     14  N   UNL     1      49.987  10.586  16.605  0.00  0.00    +0.000 NA
ATOM     15  N   UNL     1      49.444   9.518  17.209  0.00  0.00    +0.000 N 
ATOM     16  C   UNL     1      49.433   9.439  18.649  0.00  0.00    +0.000 C 
ATOM     17  C   UNL     1      48.949   8.594  16.336  0.00  0.00    +0.000 A 
ATOM     18  C   UNL     1      49.181   9.088  15.075  0.00  0.00    +0.000 A 
ENDBRANCH  10  18
ENDBRANCH   8  10
ENDBRANCH   1   8
BRANCH   6  19
ATOM     19  N   UNL     1      44.170   5.835  10.755  0.00  0.00    +0.000 N 
ATOM     20  H   UNL     1      44.276   6.503   9.997  0.00  0.00    +0.000 HD
BRANCH  19  21
ATOM     21  C   UNL     1      43.595   4.564  10.292  0.00  0.00    +0.000 C 
ATOM     22  C   UNL     1      43.181   3.699  11.485  0.00  0.00    +0.000 C 
BRANCH  21  23
ATOM     23  C   UNL     1      44.603   3.860   9.391  0.00  0.00    +0.000 A 
ATOM     24  C   UNL     1      44.733   2.462   9.454  0.00  0.00    +0.000 A 
ATOM     25  C   UNL     1      45.650   1.788   8.640  0.00  0.00    +0.000 A 
ATOM     26  C   UNL     1      46.442   2.499   7.733  0.00  0.00    +0.000 A 
ATOM     27  C   UNL     1      46.328   3.891   7.665  0.00  0.00    +0.000 A 
ATOM     28  C   UNL     1      45.415   4.564   8.486  0.00  0.00    +0.000 A 
BRANCH  26  29
ATOM     29  C   UNL     1      47.401   1.742   6.892  0.00  0.00    +0.000 C 
ATOM     30  N   UNL     1      48.469   2.423   6.374  0.00  0.00    +0.000 N 
ATOM     31  O   UNL     1      47.232   0.556   6.630  0.00  0.00    +0.000 OA
ATOM     32  H   UNL     1      48.526   3.432   6.373  0.00  0.00    +0.000 HD
ATOM     33  H   UNL     1      49.048   1.916   5.719  0.00  0.00    +0.000 HD
ENDBRANCH  26  29
ENDBRANCH  21  23
ENDBRANCH  19  21
ENDBRANCH   6  19
TORSDOF 7
ENDMDL
MODEL 8
REMARK VINA RESULT:    -7.708      2.470      4.034
REMARK INTER + INTRA:         -11.621
REMARK INTER:                 -10.526
REMARK INTRA:                  -1.095
REMARK UNBOUND:                -0.758
REMARK  Name = 
REMARK  11 active torsions:
REMARK  status: ('A' for Active; 'I' for Inactive)
REMARK    1  A    between atoms: C_1  and  C_2
REMARK    2  A    between atoms: N_4  and  C_5
REMARK    3  A    between atoms: C_7  and  N_8
REMARK    4  A    between atoms: N_8  and  C_9
REMARK    5  A    between atoms: C_9  and  C_10
REMARK    6  A    between atoms: C_9  and  C_11
REMARK    7  A    between atoms: C_16  and  N_17
REMARK    8  A    between atoms: N_17  and  C_18
REMARK    9  A    between atoms: C_18  and  C_19
REMARK   10  A    between atoms: C_18  and  C_20
REMARK   11  A    between atoms: C_23  and  C_24
REMARK                            x       y       z     vdW  Elec       q    Type
REMARK                         _______ _______ _______ _____ _____    ______ ____
ROOT
ATOM      1  C   UNL     1      46.583   7.997  12.800  0.00  0.00    +0.000 A 
ATOM      2  C   UNL     1      45.643   8.870  12.231  0.00  0.00    +0.000 A 
ATOM      3  C   UNL     1      44.541   8.370  11.546  0.00  0.00    +0.000 A 
ATOM      4 CL   UNL     1      43.446   9.459  10.786  0.00  0.00    +0.000 Cl
ATOM      5  C   UNL     1      44.338   6.995  11.433  0.00  0.00    +0.000 A 
ATOM      6  C   UNL     1      45.211   6.085  12.037  0.00  0.00    +0.000 A 
ATOM      7  C   UNL     1      46.351   6.609  12.687  0.00  0.00    +0.000 A 
ENDROOT
BRANCH   1   8
ATOM      8  C   UNL     1      47.861   8.601  13.376  0.00  0.00    +0.000 C 
ATOM      9  C   UNL     1      48.080   9.980  12.743  0.00  0.00    +0.000 C 
BRANCH   8  10
ATOM     10  N   UNL     1      49.033   7.750  13.176  0.00  0.00    +0.000 N 
ATOM     11  H   UNL     1      48.883   7.073  12.433  0.00  0.00    +0.000 HD
BRANCH  10  18
ATOM     12  C   UNL     1      51.434   8.192  10.925  0.00  0.00    +0.000 C 
ATOM     13  C   UNL     1      51.375   8.406  12.391  0.00  0.00    +0.000 A 
ATOM     14  N   UNL     1      52.472   8.882  13.004  0.00  0.00    +0.000 NA
ATOM     15  N   UNL     1      52.100   9.022  14.285  0.00  0.00    +0.000 N 
ATOM     16  C   UNL     1      53.038   9.541  15.250  0.00  0.00    +0.000 C 
ATOM     17  C   UNL     1      50.815   8.630  14.523  0.00  0.00    +0.000 A 
ATOM     18  C   UNL     1      50.308   8.206  13.318  0.00  0.00    +0.000 A 
ENDBRANCH  10  18
ENDBRANCH   8  10
ENDBRANCH   1   8
BRANCH   6  19
ATOM     19  N   UNL     1      45.092   4.699  11.887  0.00  0.00    +0.000 N 
ATOM     20  H   UNL     1      45.048   4.211  12.777  0.00  0.00    +0.000 HD
BRANCH  19  21
ATOM     21  C   UNL     1      44.182   4.111  10.893  0.00  0.00    +0.000 C 
ATOM     22  C   UNL     1      43.342   3.000  11.530  0.00  0.00    +0.000 C 
BRANCH  21  23
ATOM     23  C   UNL     1      44.995   3.609   9.706  0.00  0.00    +0.000 A 
ATOM     24  C   UNL     1      45.580   4.534   8.824  0.00  0.00    +0.000 A 
ATOM     25  C   UNL     1      46.331   4.103   7.725  0.00  0.00    +0.000 A 
ATOM     26  C   UNL     1      46.526   2.738   7.497  0.00  0.00    +0.000 A 
ATOM     27  C   UNL     1      45.943   1.806   8.362  0.00  0.00    +0.000 A 
ATOM     28  C   UNL     1      45.186   2.240   9.457  0.00  0.00    +0.000 A 
BRANCH  26  29
ATOM     29  C   UNL     1      47.328   2.329   6.318  0.00  0.00    +0.000 C 
ATOM     30  N   UNL     1      47.208   3.075   5.177  0.00  0.00    +0.000 N 
ATOM     31  O   UNL     1      48.048   1.336   6.340  0.00  0.00    +0.000 OA
ATOM     32  H   UNL     1      46.470   3.752   5.041  0.00  0.00    +0.000 HD
ATOM     33  H   UNL     1      47.678   2.718   4.357  0.00  0.00    +0.000 HD
ENDBRANCH  26  29
ENDBRANCH  21  23
ENDBRANCH  19  21
ENDBRANCH   6  19
TORSDOF 7
ENDMDL
MODEL 9
REMARK VINA RESULT:    -7.567      4.349      8.024
REMARK INTER + INTRA:         -11.422
REMARK INTER:                  -9.616
REMARK INTRA:                  -1.806
REMARK UNBOUND:                -0.758
REMARK  Name = 
REMARK  11 active torsions:
REMARK  status: ('A' for Active; 'I' for Inactive)
REMARK    1  A    between atoms: C_1  and  C_2
REMARK    2  A    between atoms: N_4  and  C_5
REMARK    3  A    between atoms: C_7  and  N_8
REMARK    4  A    between atoms: N_8  and  C_9
REMARK    5  A    between atoms: C_9  and  C_10
REMARK    6  A    between atoms: C_9  and  C_11
REMARK    7  A    between atoms: C_16  and  N_17
REMARK    8  A    between atoms: N_17  and  C_18
REMARK    9  A    between atoms: C_18  and  C_19
REMARK   10  A    between atoms: C_18  and  C_20
REMARK   11  A    between atoms: C_23  and  C_24
REMARK                            x       y       z     vdW  Elec       q    Type
REMARK                         _______ _______ _______ _____ _____    ______ ____
ROOT
ATOM      1  C   UNL     1      47.398   7.731  12.906  0.00  0.00    +0.000 A 
ATOM      2  C   UNL     1      48.392   7.606  11.923  0.00  0.00    +0.000 A 
ATOM      3  C   UNL     1      49.735   7.717  12.262  0.00  0.00    +0.000 A 
ATOM      4 CL   UNL     1      50.933   7.644  11.027  0.00  0.00    +0.000 Cl
ATOM      5  C   UNL     1      50.120   7.929  13.585  0.00  0.00    +0.000 A 
ATOM      6  C   UNL     1      49.171   7.996  14.610  0.00  0.00    +0.000 A 
ATOM      7  C   UNL     1      47.810   7.930  14.242  0.00  0.00    +0.000 A 
ENDROOT
BRANCH   1   8
ATOM      8  C   UNL     1      45.943   7.785  12.447  0.00  0.00    +0.000 C 
ATOM      9  C   UNL     1      45.454   9.236  12.535  0.00  0.00    +0.000 C 
BRANCH   8  10
ATOM     10  N   UNL     1      45.070   6.899  13.217  0.00  0.00    +0.000 N 
ATOM     11  H   UNL     1      44.219   7.372  13.508  0.00  0.00    +0.000 HD
BRANCH  10  18
ATOM     12  C   UNL     1      46.979   4.337  14.123  0.00  0.00    +0.000 C 
ATOM     13  C   UNL     1      45.744   4.435  13.308  0.00  0.00    +0.000 A 
ATOM     14  N   UNL     1      45.226   3.302  12.808  0.00  0.00    +0.000 NA
ATOM     15  N   UNL     1      44.108   3.697  12.182  0.00  0.00    +0.000 N 
ATOM     16  C   UNL     1      43.267   2.720  11.534  0.00  0.00    +0.000 C 
ATOM     17  C   UNL     1      43.900   5.044  12.240  0.00  0.00    +0.000 A 
ATOM     18  C   UNL     1      44.952   5.569  12.952  0.00  0.00    +0.000 A 
ENDBRANCH  10  18
ENDBRANCH   8  10
ENDBRANCH   1   8
BRANCH   6  19
ATOM     19  N   UNL     1      49.503   8.283  15.939  0.00  0.00    +0.000 N 
ATOM     20  H   UNL     1      49.607   9.280  16.110  0.00  0.00    +0.000 HD
BRANCH  19  21
ATOM     21  C   UNL     1      48.842   7.600  17.059  0.00  0.00    +0.000 C 
ATOM     22  C   UNL     1      49.008   8.406  18.350  0.00  0.00    +0.000 C 
BRANCH  21  23
ATOM     23  C   UNL     1      49.404   6.189  17.185  0.00  0.00    +0.000 A 
ATOM     24  C   UNL     1      50.792   6.001  17.307  0.00  0.00    +0.000 A 
ATOM     25  C   UNL     1      51.335   4.718  17.423  0.00  0.00    +0.000 A 
ATOM     26  C   UNL     1      50.500   3.597  17.437  0.00  0.00    +0.000 A 
ATOM     27  C   UNL     1      49.118   3.768  17.309  0.00  0.00    +0.000 A 
ATOM     28  C   UNL     1      48.576   5.053  17.186  0.00  0.00    +0.000 A 
BRANCH  26  29
ATOM     29  C   UNL     1      51.123   2.256  17.561  0.00  0.00    +0.000 C 
ATOM     30  N   UNL     1      52.235   2.142  18.351  0.00  0.00    +0.000 N 
ATOM     31  O   UNL     1      50.690   1.284  16.951  0.00  0.00    +0.000 OA
ATOM     32  H   UNL     1      52.754   2.942  18.684  0.00  0.00    +0.000 HD
ATOM     33  H   UNL     1      52.705   1.247  18.336  0.00  0.00    +0.000 HD
ENDBRANCH  26  29
ENDBRANCH  21  23
ENDBRANCH  19  21
ENDBRANCH   6  19
TORSDOF 7
ENDMDL
