MODEL 1
REMARK VINA RESULT:    -7.890      0.000      0.000
REMARK INTER + INTRA:         -11.703
REMARK INTER:                 -10.889
REMARK INTRA:                  -0.814
REMARK UNBOUND:                -0.814
REMARK  Name = 
REMARK  8 active torsions:
REMARK  status: ('A' for Active; 'I' for Inactive)
REMARK    1  A    between atoms: C_1  and  C_2
REMARK    2  A    between atoms: C_2  and  C_3
REMARK    3  A    between atoms: C_2  and  C_14
REMARK    4  A    between atoms: C_3  and  O_4
REMARK    5  A    between atoms: O_4  and  C_5
REMARK    6  A    between atoms: C_8  and  C_9
REMARK    7  A    between atoms: C_18  and  C_19
REMARK    8  A    between atoms: C_19  and  N_20
REMARK                            x       y       z     vdW  Elec       q    Type
REMARK                         _______ _______ _______ _____ _____    ______ ____
ROOT
ATOM      1  C   UNL     1      43.607   3.370  11.449  0.00  0.00    +0.000 C 
ENDROOT
BRANCH   1   3
ATOM      2  C   UNL     1      42.814   5.785  11.435  0.00  0.00    +0.000 C 
ATOM      3  C   UNL     1      43.573   4.706  12.214  0.00  0.00    +0.000 C 
BRANCH   3   4
ATOM      4  C   UNL     1      44.990   5.140  12.553  0.00  0.00    +0.000 A 
ATOM      5  C   UNL     1      45.635   6.115  11.783  0.00  0.00    +0.000 A 
ATOM      6  C   UNL     1      46.909   6.568  12.133  0.00  0.00    +0.000 A 
ATOM      7  C   UNL     1      47.550   6.063  13.265  0.00  0.00    +0.000 A 
ATOM      8  C   UNL     1      46.925   5.091  14.055  0.00  0.00    +0.000 A 
ATOM      9  C   UNL     1      45.658   4.623  13.675  0.00  0.00    +0.000 A 
BRANCH   8  10
ATOM     10  C   UNL     1      47.586   4.543  15.295  0.00  0.00    +0.000 C 
BRANCH  10  11
ATOM     11  N   UNL     1      47.721   3.091  15.228  0.00  0.00    +0.000 NA
ATOM     12  H   UNL     1      48.384   2.860  14.488  0.00  0.00    +0.000 HD
ATOM     13  H   UNL     1      46.830   2.684  14.953  0.00  0.00    +0.000 HD
ENDBRANCH  10  11
ENDBRANCH   8  10
ENDBRANCH   3   4
ENDBRANCH   1   3
BRANCH   1  14
ATOM     14  O   UNL     1      43.428   3.596  10.048  0.00  0.00    +0.000 OA
BRANCH  14  15
ATOM     15  C   UNL     1      44.458   3.194   9.244  0.00  0.00    +0.000 A 
ATOM     16  C   UNL     1      44.981   1.905   9.160  0.00  0.00    +0.000 A 
ATOM     17  C   UNL     1      46.020   1.639   8.270  0.00  0.00    +0.000 A 
ATOM     18  C   UNL     1      46.505   2.679   7.490  0.00  0.00    +0.000 A 
ATOM     19  N   UNL     1      46.036   3.957   7.552  0.00  0.00    +0.000 NA
ATOM     20  C   UNL     1      45.026   4.172   8.432  0.00  0.00    +0.000 A 
BRANCH  18  21
ATOM     21  C   UNL     1      47.596   2.408   6.501  0.00  0.00    +0.000 C 
ATOM     22  N   UNL     1      47.507   3.101   5.325  0.00  0.00    +0.000 N 
ATOM     23  O   UNL     1      48.503   1.616   6.717  0.00  0.00    +0.000 OA
ATOM     24  H   UNL     1      46.729   3.737   5.177  0.00  0.00    +0.000 HD
ATOM     25  H   UNL     1      48.194   2.949   4.603  0.00  0.00    +0.000 HD
ENDBRANCH  18  21
ENDBRANCH  14  15
ENDBRANCH   1  14
TORSDOF 7
ENDMDL
MODEL 2
REMARK VINA RESULT:    -7.873      1.974      2.576
REMARK INTER + INTRA:         -11.679
REMARK INTER:                 -10.832
REMARK INTRA:                  -0.847
REMARK UNBOUND:                -0.814
REMARK  Name = 
REMARK  8 active torsions:
REMARK  status: ('A' for Active; 'I' for Inactive)
REMARK    1  A    between atoms: C_1  and  C_2
REMARK    2  A    between atoms: C_2  and  C_3
REMARK    3  A    between atoms: C_2  and  C_14
REMARK    4  A    between atoms: C_3  and  O_4
REMARK    5  A    between atoms: O_4  and  C_5
REMARK    6  A    between atoms: C_8  and  C_9
REMARK    7  A    between atoms: C_18  and  C_19
REMARK    8  A    between atoms: C_19  and  N_20
REMARK                            x       y       z     vdW  Elec       q    Type
REMARK                         _______ _______ _______ _____ _____    ______ ____
ROOT
ATOM      1  C   UNL     1      43.890   3.312  11.877  0.00  0.00    +0.000 C 
ENDROOT
BRANCH   1   3
ATOM      2  C   UNL     1      42.447   5.406  11.850  0.00  0.00    +0.000 C 
ATOM      3  C   UNL     1      43.537   4.628  12.595  0.00  0.00    +0.000 C 
BRANCH   3   4
ATOM      4  C   UNL     1      44.795   5.459  12.793  0.00  0.00    +0.000 A 
ATOM      5  C   UNL     1      46.002   4.841  13.141  0.00  0.00    +0.000 A 
ATOM      6  C   UNL     1      47.175   5.591  13.253  0.00  0.00    +0.000 A 
ATOM      7  C   UNL     1      47.161   6.965  13.005  0.00  0.00    +0.000 A 
ATOM      8  C   UNL     1      45.968   7.605  12.650  0.00  0.00    +0.000 A 
ATOM      9  C   UNL     1      44.791   6.845  12.570  0.00  0.00    +0.000 A 
BRANCH   8  10
ATOM     10  C   UNL     1      45.928   9.083  12.356  0.00  0.00    +0.000 C 
BRANCH  10  11
ATOM     11  N   UNL     1      44.635   9.661  12.713  0.00  0.00    +0.000 NA
ATOM     12  H   UNL     1      44.677  10.669  12.562  0.00  0.00    +0.000 HD
ATOM     13  H   UNL     1      44.470   9.525  13.708  0.00  0.00    +0.000 HD
ENDBRANCH  10  11
ENDBRANCH   8  10
ENDBRANCH   3   4
ENDBRANCH   1   3
BRANCH   1  14
ATOM     14  O   UNL     1      43.423   3.346  10.524  0.00  0.00    +0.000 OA
BRANCH  14  15
ATOM     15  C   UNL     1      44.383   3.219   9.560  0.00  0.00    +0.000 A 
ATOM     16  C   UNL     1      44.933   4.255   8.806  0.00  0.00    +0.000 A 
ATOM     17  C   UNL     1      45.929   3.974   7.872  0.00  0.00    +0.000 A 
ATOM     18  C   UNL     1      46.342   2.658   7.721  0.00  0.00    +0.000 A 
ATOM     19  N   UNL     1      45.820   1.614   8.424  0.00  0.00    +0.000 NA
ATOM     20  C   UNL     1      44.853   1.930   9.320  0.00  0.00    +0.000 A 
BRANCH  18  21
ATOM     21  C   UNL     1      47.436   2.339   6.750  0.00  0.00    +0.000 C 
ATOM     22  N   UNL     1      47.515   3.165   5.663  0.00  0.00    +0.000 N 
ATOM     23  O   UNL     1      48.205   1.399   6.906  0.00  0.00    +0.000 OA
ATOM     24  H   UNL     1      46.848   3.924   5.562  0.00  0.00    +0.000 HD
ATOM     25  H   UNL     1      48.213   2.994   4.957  0.00  0.00    +0.000 HD
ENDBRANCH  18  21
ENDBRANCH  14  15
ENDBRANCH   1  14
TORSDOF 7
ENDMDL
MODEL 3
REMARK VINA RESULT:    -7.539      1.348      1.673
REMARK INTER + INTRA:         -11.218
REMARK INTER:                 -10.260
REMARK INTRA:                  -0.958
REMARK UNBOUND:                -0.814
REMARK  Name = 
REMARK  8 active torsions:
REMARK  status: ('A' for Active; 'I' for Inactive)
REMARK    1  A    between atoms: C_1  and  C_2
REMARK    2  A    between atoms: C_2  and  C_3
REMARK    3  A    between atoms: C_2  and  C_14
REMARK    4  A    between atoms: C_3  and  O_4
REMARK    5  A    between atoms: O_4  and  C_5
REMARK    6  A    between atoms: C_8  and  C_9
REMARK    7  A    between atoms: C_18  and  C_19
REMARK    8  A    between atoms: C_19  and  N_20
REMARK                            x       y       z     vdW  Elec       q    Type
REMARK                         _______ _______ _______ _____ _____    ______ ____
ROOT
ATOM      1  C   UNL     1      44.090   3.351  11.793  0.00  0.00    +0.000 C 
ENDROOT
BRANCH   1   3
ATOM      2  C   UNL     1      42.403   5.252  11.873  0.00  0.00    +0.000 C 
ATOM      3  C   UNL     1      43.683   4.668  12.480  0.00  0.00    +0.000 C 
BRANCH   3   4
ATOM      4  C   UNL     1      44.839   5.653  12.428  0.00  0.00    +0.000 A 
ATOM      5  C   UNL     1      44.790   6.755  11.565  0.00  0.00    +0.000 A 
ATOM      6  C   UNL     1      45.818   7.702  11.566  0.00  0.00    +0.000 A 
ATOM      7  C   UNL     1      46.899   7.568  12.438  0.00  0.00    +0.000 A 
ATOM      8  C   UNL     1      46.969   6.479  13.314  0.00  0.00    +0.000 A 
ATOM      9  C   UNL     1      45.945   5.520  13.282  0.00  0.00    +0.000 A 
BRANCH   8  10
ATOM     10  C   UNL     1      48.115   6.322  14.281  0.00  0.00    +0.000 C 
BRANCH  10  11
ATOM     11  N   UNL     1      49.375   6.761  13.688  0.00  0.00    +0.000 NA
ATOM     12  H   UNL     1      49.200   7.606  13.145  0.00  0.00    +0.000 HD
ATOM     13  H   UNL     1      49.699   6.056  13.029  0.00  0.00    +0.000 HD
ENDBRANCH  10  11
ENDBRANCH   8  10
ENDBRANCH   3   4
ENDBRANCH   1   3
BRANCH   1  14
ATOM     14  O   UNL     1      43.597   3.321  10.449  0.00  0.00    +0.000 OA
BRANCH  14  15
ATOM     15  C   UNL     1      44.545   3.220   9.470  0.00  0.00    +0.000 A 
ATOM     16  C   UNL     1      45.102   4.278   8.752  0.00  0.00    +0.000 A 
ATOM     17  C   UNL     1      46.084   4.021   7.797  0.00  0.00    +0.000 A 
ATOM     18  C   UNL     1      46.475   2.707   7.587  0.00  0.00    +0.000 A 
ATOM     19  N   UNL     1      45.946   1.642   8.252  0.00  0.00    +0.000 NA
ATOM     20  C   UNL     1      44.993   1.935   9.172  0.00  0.00    +0.000 A 
BRANCH  18  21
ATOM     21  C   UNL     1      47.554   2.412   6.592  0.00  0.00    +0.000 C 
ATOM     22  N   UNL     1      47.453   3.079   5.402  0.00  0.00    +0.000 N 
ATOM     23  O   UNL     1      48.462   1.622   6.815  0.00  0.00    +0.000 OA
ATOM     24  H   UNL     1      46.676   3.714   5.250  0.00  0.00    +0.000 HD
ATOM     25  H   UNL     1      48.132   2.911   4.677  0.00  0.00    +0.000 HD
ENDBRANCH  18  21
ENDBRANCH  14  15
ENDBRANCH   1  14
TORSDOF 7
ENDMDL
MODEL 4
REMARK VINA RESULT:    -7.145      2.288      7.028
REMARK INTER + INTRA:         -10.675
REMARK INTER:                 -10.198
REMARK INTRA:                  -0.477
REMARK UNBOUND:                -0.814
REMARK  Name = 
REMARK  8 active torsions:
REMARK  status: ('A' for Active; 'I' for Inactive)
REMARK    1  A    between atoms: C_1  and  C_2
REMARK    2  A    between atoms: C_2  and  C_3
REMARK    3  A    between atoms: C_2  and  C_14
REMARK    4  A    between atoms: C_3  and  O_4
REMARK    5  A    between atoms: O_4  and  C_5
REMARK    6  A    between atoms: C_8  and  C_9
REMARK    7  A    between atoms: C_18  and  C_19
REMARK    8  A    between atoms: C_19  and  N_20
REMARK                            x       y       z     vdW  Elec       q    Type
REMARK                         _______ _______ _______ _____ _____    ______ ____
ROOT
ATOM      1  C   UNL     1      45.851   5.675  10.166  0.00  0.00    +0.000 C 
ENDROOT
BRANCH   1   3
ATOM      2  C   UNL     1      43.570   4.556  10.237  0.00  0.00    +0.000 C 
ATOM      3  C   UNL     1      44.782   4.907   9.367  0.00  0.00    +0.000 C 
BRANCH   3   4
ATOM      4  C   UNL     1      45.402   3.673   8.733  0.00  0.00    +0.000 A 
ATOM      5  C   UNL     1      45.145   2.401   9.259  0.00  0.00    +0.000 A 
ATOM      6  C   UNL     1      45.655   1.260   8.636  0.00  0.00    +0.000 A 
ATOM      7  C   UNL     1      46.417   1.372   7.472  0.00  0.00    +0.000 A 
ATOM      8  C   UNL     1      46.684   2.632   6.922  0.00  0.00    +0.000 A 
ATOM      9  C   UNL     1      46.190   3.772   7.575  0.00  0.00    +0.000 A 
BRANCH   8  10
ATOM     10  C   UNL     1      47.486   2.781   5.655  0.00  0.00    +0.000 C 
BRANCH  10  11
ATOM     11  N   UNL     1      48.550   1.784   5.579  0.00  0.00    +0.000 NA
ATOM     12  H   UNL     1      49.279   2.036   6.246  0.00  0.00    +0.000 HD
ATOM     13  H   UNL     1      48.979   1.820   4.656  0.00  0.00    +0.000 HD
ENDBRANCH  10  11
ENDBRANCH   8  10
ENDBRANCH   3   4
ENDBRANCH   1   3
BRANCH   1  14
ATOM     14  O   UNL     1      45.310   6.127  11.411  0.00  0.00    +0.000 OA
BRANCH  14  15
ATOM     15  C   UNL     1      45.997   5.749  12.531  0.00  0.00    +0.000 A 
ATOM     16  C   UNL     1      47.127   6.376  13.054  0.00  0.00    +0.000 A 
ATOM     17  C   UNL     1      47.706   5.889  14.224  0.00  0.00    +0.000 A 
ATOM     18  C   UNL     1      47.134   4.783  14.834  0.00  0.00    +0.000 A 
ATOM     19  N   UNL     1      46.041   4.129  14.349  0.00  0.00    +0.000 NA
ATOM     20  C   UNL     1      45.510   4.634  13.208  0.00  0.00    +0.000 A 
BRANCH  18  21
ATOM     21  C   UNL     1      47.717   4.265  16.112  0.00  0.00    +0.000 C 
ATOM     22  N   UNL     1      46.920   3.403  16.815  0.00  0.00    +0.000 N 
ATOM     23  O   UNL     1      48.827   4.592  16.513  0.00  0.00    +0.000 OA
ATOM     24  H   UNL     1      46.000   3.169  16.456  0.00  0.00    +0.000 HD
ATOM     25  H   UNL     1      47.240   3.034  17.696  0.00  0.00    +0.000 HD
ENDBRANCH  18  21
ENDBRANCH  14  15
ENDBRANCH   1  14
TORSDOF 7
ENDMDL
MODEL 5
REMARK VINA RESULT:    -6.950      1.653      2.140
REMARK INTER + INTRA:         -10.404
REMARK INTER:                  -9.654
REMARK INTRA:                  -0.751
REMARK UNBOUND:                -0.814
REMARK  Name = 
REMARK  8 active torsions:
REMARK  status: ('A' for Active; 'I' for Inactive)
REMARK    1  A    between atoms: C_1  and  C_2
REMARK    2  A    between atoms: C_2  and  C_3
REMARK    3  A    between atoms: C_2  and  C_14
REMARK    4  A    between atoms: C_3  and  O_4
REMARK    5  A    between atoms: O_4  and  C_5
REMARK    6  A    between atoms: C_8  and  C_9
REMARK    7  A    between atoms: C_18  and  C_19
REMARK    8  A    between atoms: C_19  and  N_20
REMARK                            x       y       z     vdW  Elec       q    Type
REMARK                         _______ _______ _______ _____ _____    ______ ____
ROOT
ATOM      1  C   UNL     1      44.606   5.726  10.864  0.00  0.00    +0.000 C 
ENDROOT
BRANCH   1   3
ATOM      2  C   UNL     1      44.647   4.604  13.144  0.00  0.00    +0.000 C 
ATOM      3  C   UNL     1      45.468   5.001  11.914  0.00  0.00    +0.000 C 
BRANCH   3   4
ATOM      4  C   UNL     1      46.664   5.864  12.281  0.00  0.00    +0.000 A 
ATOM      5  C   UNL     1      47.187   6.778  11.358  0.00  0.00    +0.000 A 
ATOM      6  C   UNL     1      48.239   7.623  11.716  0.00  0.00    +0.000 A 
ATOM      7  C   UNL     1      48.774   7.577  13.005  0.00  0.00    +0.000 A 
ATOM      8  C   UNL     1      48.266   6.676  13.948  0.00  0.00    +0.000 A 
ATOM      9  C   UNL     1      47.228   5.812  13.566  0.00  0.00    +0.000 A 
BRANCH   8  10
ATOM     10  C   UNL     1      48.810   6.620  15.352  0.00  0.00    +0.000 C 
BRANCH  10  11
ATOM     11  N   UNL     1      48.474   5.357  16.003  0.00  0.00    +0.000 NA
ATOM     12  H   UNL     1      47.478   5.179  15.871  0.00  0.00    +0.000 HD
ATOM     13  H   UNL     1      48.621   5.446  17.006  0.00  0.00    +0.000 HD
ENDBRANCH  10  11
ENDBRANCH   8  10
ENDBRANCH   3   4
ENDBRANCH   1   3
BRANCH   1  14
ATOM     14  O   UNL     1      43.935   4.775  10.030  0.00  0.00    +0.000 OA
BRANCH  14  15
ATOM     15  C   UNL     1      44.743   3.979   9.268  0.00  0.00    +0.000 A 
ATOM     16  C   UNL     1      45.670   4.412   8.321  0.00  0.00    +0.000 A 
ATOM     17  C   UNL     1      46.445   3.478   7.637  0.00  0.00    +0.000 A 
ATOM     18  C   UNL     1      46.264   2.133   7.922  0.00  0.00    +0.000 A 
ATOM     19  N   UNL     1      45.358   1.664   8.826  0.00  0.00    +0.000 NA
ATOM     20  C   UNL     1      44.624   2.605   9.468  0.00  0.00    +0.000 A 
BRANCH  18  21
ATOM     21  C   UNL     1      47.112   1.114   7.225  0.00  0.00    +0.000 C 
ATOM     22  N   UNL     1      46.800  -0.191   7.492  0.00  0.00    +0.000 N 
ATOM     23  O   UNL     1      48.029   1.419   6.474  0.00  0.00    +0.000 OA
ATOM     24  H   UNL     1      46.041  -0.402   8.134  0.00  0.00    +0.000 HD
ATOM     25  H   UNL     1      47.345  -0.929   7.076  0.00  0.00    +0.000 HD
ENDBRANCH  18  21
ENDBRANCH  14  15
ENDBRANCH   1  14
TORSDOF 7
ENDMDL
MODEL 6
REMARK VINA RESULT:    -6.266      3.537      7.130
REMARK INTER + INTRA:          -9.461
REMARK INTER:                  -8.857
REMARK INTRA:                  -0.604
REMARK UNBOUND:                -0.814
REMARK  Name = 
REMARK  8 active torsions:
REMARK  status: ('A' for Active; 'I' for Inactive)
REMARK    1  A    between atoms: C_1  and  C_2
REMARK    2  A    between atoms: C_2  and  C_3
REMARK    3  A    between atoms: C_2  and  C_14
REMARK    4  A    between atoms: C_3  and  O_4
REMARK    5  A    between atoms: O_4  and  C_5
REMARK    6  A    between atoms: C_8  and  C_9
REMARK    7  A    between atoms: C_18  and  C_19
REMARK    8  A    between atoms: C_19  and  N_20
REMARK                            x       y       z     vdW  Elec       q    Type
REMARK                         _______ _______ _______ _____ _____    ______ ____
ROOT
ATOM      1  C   UNL     1      47.676   6.459  12.234  0.00  0.00    +0.000 C 
ENDROOT
BRANCH   1   3
ATOM      2  C   UNL     1      45.538   7.831  12.316  0.00  0.00    +0.000 C 
ATOM      3  C   UNL     1      46.437   6.938  11.455  0.00  0.00    +0.000 C 
BRANCH   3   4
ATOM      4  C   UNL     1      45.685   5.740  10.900  0.00  0.00    +0.000 A 
ATOM      5  C   UNL     1      45.770   5.419   9.540  0.00  0.00    +0.000 A 
ATOM      6  C   UNL     1      45.139   4.278   9.039  0.00  0.00    +0.000 A 
ATOM      7  C   UNL     1      44.426   3.435   9.893  0.00  0.00    +0.000 A 
ATOM      8  C   UNL     1      44.330   3.729  11.258  0.00  0.00    +0.000 A 
ATOM      9  C   UNL     1      44.944   4.895  11.742  0.00  0.00    +0.000 A 
BRANCH   8  10
ATOM     10  C   UNL     1      43.585   2.824  12.205  0.00  0.00    +0.000 C 
BRANCH  10  11
ATOM     11  N   UNL     1      42.886   1.762  11.486  0.00  0.00    +0.000 NA
ATOM     12  H   UNL     1      43.240   1.730  10.531  0.00  0.00    +0.000 HD
ATOM     13  H   UNL     1      41.898   1.996  11.421  0.00  0.00    +0.000 HD
ENDBRANCH  10  11
ENDBRANCH   8  10
ENDBRANCH   3   4
ENDBRANCH   1   3
BRANCH   1  14
ATOM     14  O   UNL     1      47.695   7.041  13.542  0.00  0.00    +0.000 OA
BRANCH  14  15
ATOM     15  C   UNL     1      47.795   6.161  14.583  0.00  0.00    +0.000 A 
ATOM     16  C   UNL     1      48.591   6.316  15.717  0.00  0.00    +0.000 A 
ATOM     17  C   UNL     1      48.568   5.341  16.713  0.00  0.00    +0.000 A 
ATOM     18  C   UNL     1      47.747   4.237  16.539  0.00  0.00    +0.000 A 
ATOM     19  N   UNL     1      46.967   4.037  15.440  0.00  0.00    +0.000 NA
ATOM     20  C   UNL     1      47.020   5.008  14.495  0.00  0.00    +0.000 A 
BRANCH  18  21
ATOM     21  C   UNL     1      47.680   3.196  17.613  0.00  0.00    +0.000 C 
ATOM     22  N   UNL     1      48.797   3.085  18.394  0.00  0.00    +0.000 N 
ATOM     23  O   UNL     1      46.699   2.482  17.782  0.00  0.00    +0.000 OA
ATOM     24  H   UNL     1      49.596   3.684  18.212  0.00  0.00    +0.000 HD
ATOM     25  H   UNL     1      48.830   2.388  19.122  0.00  0.00    +0.000 HD
ENDBRANCH  18  21
ENDBRANCH  14  15
ENDBRANCH   1  14
TORSDOF 7
ENDMDL
MODEL 7
REMARK VINA RESULT:    -6.205      2.623      7.153
REMARK INTER + INTRA:          -9.377
REMARK INTER:                  -8.710
REMARK INTRA:                  -0.667
REMARK UNBOUND:                -0.814
REMARK  Name = 
REMARK  8 active torsions:
REMARK  status: ('A' for Active; 'I' for Inactive)
REMARK    1  A    between atoms: C_1  and  C_2
REMARK    2  A    between atoms: C_2  and  C_3
REMARK    3  A    between atoms: C_2  and  C_14
REMARK    4  A    between atoms: C_3  and  O_4
REMARK    5  A    between atoms: O_4  and  C_5
REMARK    6  A    between atoms: C_8  and  C_9
REMARK    7  A    between atoms: C_18  and  C_19
REMARK    8  A    between atoms: C_19  and  N_20
REMARK                            x       y       z     vdW  Elec       q    Type
REMARK                         _______ _______ _______ _____ _____    ______ ____
ROOT
ATOM      1  C   UNL     1      46.006   7.074  12.759  0.00  0.00    +0.000 C 
ENDROOT
BRANCH   1   3
ATOM      2  C   UNL     1      44.375   8.157  11.137  0.00  0.00    +0.000 C 
ATOM      3  C   UNL     1      45.521   7.153  11.299  0.00  0.00    +0.000 C 
BRANCH   3   4
ATOM      4  C   UNL     1      45.136   5.767  10.810  0.00  0.00    +0.000 A 
ATOM      5  C   UNL     1      44.282   4.959  11.571  0.00  0.00    +0.000 A 
ATOM      6  C   UNL     1      43.869   3.714  11.092  0.00  0.00    +0.000 A 
ATOM      7  C   UNL     1      44.292   3.265   9.840  0.00  0.00    +0.000 A 
ATOM      8  C   UNL     1      45.141   4.055   9.056  0.00  0.00    +0.000 A 
ATOM      9  C   UNL     1      45.572   5.291   9.563  0.00  0.00    +0.000 A 
BRANCH   8  10
ATOM     10  C   UNL     1      45.596   3.603   7.692  0.00  0.00    +0.000 C 
BRANCH  10  11
ATOM     11  N   UNL     1      46.829   4.276   7.293  0.00  0.00    +0.000 NA
ATOM     12  H   UNL     1      47.431   3.599   6.825  0.00  0.00    +0.000 HD
ATOM     13  H   UNL     1      47.329   4.580   8.126  0.00  0.00    +0.000 HD
ENDBRANCH  10  11
ENDBRANCH   8  10
ENDBRANCH   3   4
ENDBRANCH   1   3
BRANCH   1  14
ATOM     14  O   UNL     1      47.215   6.313  12.839  0.00  0.00    +0.000 OA
BRANCH  14  15
ATOM     15  C   UNL     1      47.421   5.644  14.012  0.00  0.00    +0.000 A 
ATOM     16  C   UNL     1      48.149   6.108  15.107  0.00  0.00    +0.000 A 
ATOM     17  C   UNL     1      48.250   5.319  16.252  0.00  0.00    +0.000 A 
ATOM     18  C   UNL     1      47.619   4.084  16.262  0.00  0.00    +0.000 A 
ATOM     19  N   UNL     1      46.913   3.584  15.209  0.00  0.00    +0.000 NA
ATOM     20  C   UNL     1      46.841   4.382  14.115  0.00  0.00    +0.000 A 
BRANCH  18  21
ATOM     21  C   UNL     1      47.684   3.236  17.495  0.00  0.00    +0.000 C 
ATOM     22  N   UNL     1      48.841   3.340  18.217  0.00  0.00    +0.000 N 
ATOM     23  O   UNL     1      46.773   2.492  17.834  0.00  0.00    +0.000 OA
ATOM     24  H   UNL     1      49.579   3.956  17.893  0.00  0.00    +0.000 HD
ATOM     25  H   UNL     1      48.963   2.779  19.046  0.00  0.00    +0.000 HD
ENDBRANCH  18  21
ENDBRANCH  14  15
ENDBRANCH   1  14
TORSDOF 7
ENDMDL
MODEL 8
REMARK VINA RESULT:    -6.106      3.835      6.496
REMARK INTER + INTRA:          -9.240
REMARK INTER:                  -8.656
REMARK INTRA:                  -0.584
REMARK UNBOUND:                -0.814
REMARK  Name = 
REMARK  8 active torsions:
REMARK  status: ('A' for Active; 'I' for Inactive)
REMARK    1  A    between atoms: C_1  and  C_2
REMARK    2  A    between atoms: C_2  and  C_3
REMARK    3  A    between atoms: C_2  and  C_14
REMARK    4  A    between atoms: C_3  and  O_4
REMARK    5  A    between atoms: O_4  and  C_5
REMARK    6  A    between atoms: C_8  and  C_9
REMARK    7  A    between atoms: C_18  and  C_19
REMARK    8  A    between atoms: C_19  and  N_20
REMARK                            x       y       z     vdW  Elec       q    Type
REMARK                         _______ _______ _______ _____ _____    ______ ____
ROOT
ATOM      1  C   UNL     1      47.655   4.681  16.153  0.00  0.00    +0.000 C 
ENDROOT
BRANCH   1   3
ATOM      2  C   UNL     1      47.116   2.754  17.721  0.00  0.00    +0.000 C 
ATOM      3  C   UNL     1      48.064   3.278  16.638  0.00  0.00    +0.000 C 
BRANCH   3   4
ATOM      4  C   UNL     1      49.509   3.297  17.106  0.00  0.00    +0.000 A 
ATOM      5  C   UNL     1      50.047   4.450  17.692  0.00  0.00    +0.000 A 
ATOM      6  C   UNL     1      51.353   4.449  18.189  0.00  0.00    +0.000 A 
ATOM      7  C   UNL     1      52.133   3.294  18.121  0.00  0.00    +0.000 A 
ATOM      8  C   UNL     1      51.617   2.127  17.545  0.00  0.00    +0.000 A 
ATOM      9  C   UNL     1      50.314   2.150  17.023  0.00  0.00    +0.000 A 
BRANCH   8  10
ATOM     10  C   UNL     1      52.430   0.860  17.478  0.00  0.00    +0.000 C 
BRANCH  10  11
ATOM     11  N   UNL     1      51.954  -0.129  18.441  0.00  0.00    +0.000 NA
ATOM     12  H   UNL     1      51.754   0.345  19.321  0.00  0.00    +0.000 HD
ATOM     13  H   UNL     1      52.699  -0.795  18.634  0.00  0.00    +0.000 HD
ENDBRANCH  10  11
ENDBRANCH   8  10
ENDBRANCH   3   4
ENDBRANCH   1   3
BRANCH   1  14
ATOM     14  O   UNL     1      48.003   4.851  14.775  0.00  0.00    +0.000 OA
BRANCH  14  15
ATOM     15  C   UNL     1      46.977   4.722  13.882  0.00  0.00    +0.000 A 
ATOM     16  C   UNL     1      46.481   3.526  13.366  0.00  0.00    +0.000 A 
ATOM     17  C   UNL     1      45.407   3.551  12.478  0.00  0.00    +0.000 A 
ATOM     18  C   UNL     1      44.864   4.779  12.132  0.00  0.00    +0.000 A 
ATOM     19  N   UNL     1      45.328   5.973  12.597  0.00  0.00    +0.000 NA
ATOM     20  C   UNL     1      46.374   5.904  13.457  0.00  0.00    +0.000 A 
BRANCH  18  21
ATOM     21  C   UNL     1      43.686   4.827  11.208  0.00  0.00    +0.000 C 
ATOM     22  N   UNL     1      43.170   6.073  10.979  0.00  0.00    +0.000 N 
ATOM     23  O   UNL     1      43.206   3.824  10.697  0.00  0.00    +0.000 OA
ATOM     24  H   UNL     1      43.587   6.878  11.436  0.00  0.00    +0.000 HD
ATOM     25  H   UNL     1      42.362   6.177  10.387  0.00  0.00    +0.000 HD
ENDBRANCH  18  21
ENDBRANCH  14  15
ENDBRANCH   1  14
TORSDOF 7
ENDMDL
MODEL 9
REMARK VINA RESULT:    -5.934      4.181      7.887
REMARK INTER + INTRA:          -9.003
REMARK INTER:                  -8.556
REMARK INTRA:                  -0.447
REMARK UNBOUND:                -0.814
REMARK  Name = 
REMARK  8 active torsions:
REMARK  status: ('A' for Active; 'I' for Inactive)
REMARK    1  A    between atoms: C_1  and  C_2
REMARK    2  A    between atoms: C_2  and  C_3
REMARK    3  A    between atoms: C_2  and  C_14
REMARK    4  A    between atoms: C_3  and  O_4
REMARK    5  A    between atoms: O_4  and  C_5
REMARK    6  A    between atoms: C_8  and  C_9
REMARK    7  A    between atoms: C_18  and  C_19
REMARK    8  A    between atoms: C_19  and  N_20
REMARK                            x       y       z     vdW  Elec       q    Type
REMARK                         _______ _______ _______ _____ _____    ______ ____
ROOT
ATOM      1  C   UNL     1      46.909   4.340  15.324  0.00  0.00    +0.000 C 
ENDROOT
BRANCH   1   3
ATOM      2  C   UNL     1      48.002   6.355  14.224  0.00  0.00    +0.000 C 
ATOM      3  C   UNL     1      47.294   5.016  13.994  0.00  0.00    +0.000 C 
BRANCH   3   4
ATOM      4  C   UNL     1      46.061   5.167  13.119  0.00  0.00    +0.000 A 
ATOM      5  C   UNL     1      45.504   6.431  12.893  0.00  0.00    +0.000 A 
ATOM      6  C   UNL     1      44.415   6.583  12.032  0.00  0.00    +0.000 A 
ATOM      7  C   UNL     1      43.876   5.476  11.374  0.00  0.00    +0.000 A 
ATOM      8  C   UNL     1      44.417   4.202  11.579  0.00  0.00    +0.000 A 
ATOM      9  C   UNL     1      45.493   4.059  12.469  0.00  0.00    +0.000 A 
BRANCH   8  10
ATOM     10  C   UNL     1      43.868   2.992  10.865  0.00  0.00    +0.000 C 
BRANCH  10  11
ATOM     11  N   UNL     1      43.173   2.101  11.789  0.00  0.00    +0.000 NA
ATOM     12  H   UNL     1      42.621   2.666  12.434  0.00  0.00    +0.000 HD
ATOM     13  H   UNL     1      43.858   1.604  12.355  0.00  0.00    +0.000 HD
ENDBRANCH  10  11
ENDBRANCH   8  10
ENDBRANCH   3   4
ENDBRANCH   1   3
BRANCH   1  14
ATOM     14  O   UNL     1      47.711   4.854  16.391  0.00  0.00    +0.000 OA
BRANCH  14  15
ATOM     15  C   UNL     1      48.808   4.109  16.724  0.00  0.00    +0.000 A 
ATOM     16  C   UNL     1      49.940   4.566  17.397  0.00  0.00    +0.000 A 
ATOM     17  C   UNL     1      50.973   3.678  17.691  0.00  0.00    +0.000 A 
ATOM     18  C   UNL     1      50.840   2.355  17.296  0.00  0.00    +0.000 A 
ATOM     19  N   UNL     1      49.761   1.870  16.621  0.00  0.00    +0.000 NA
ATOM     20  C   UNL     1      48.779   2.767  16.354  0.00  0.00    +0.000 A 
BRANCH  18  21
ATOM     21  C   UNL     1      51.922   1.376  17.633  0.00  0.00    +0.000 C 
ATOM     22  N   UNL     1      51.492   0.173  18.121  0.00  0.00    +0.000 N 
ATOM     23  O   UNL     1      53.111   1.631  17.494  0.00  0.00    +0.000 OA
ATOM     24  H   UNL     1      50.497   0.007  18.237  0.00  0.00    +0.000 HD
ATOM     25  H   UNL     1      52.167  -0.525  18.391  0.00  0.00    +0.000 HD
ENDBRANCH  18  21
ENDBRANCH  14  15
ENDBRANCH   1  14
TORSDOF 7
ENDMDL
