MODEL 1
REMARK VINA RESULT:    -7.325      0.000      0.000
REMARK INTER + INTRA:         -10.178
REMARK INTER:                  -9.466
REMARK INTRA:                  -0.712
REMARK UNBOUND:                -0.712
REMARK  Name = 
REMARK  5 active torsions:
REMARK  status: ('A' for Active; 'I' for Inactive)
REMARK    1  A    between atoms: C_2  and  C_4
REMARK    2  A    between atoms: C_8  and  C_9
REMARK    3  A    between atoms: C_9  and  O_10
REMARK    4  A    between atoms: O_10  and  C_11
REMARK    5  A    between atoms: C_15  and  C_16
REMARK                            x       y       z     vdW  Elec       q    Type
REMARK                         _______ _______ _______ _____ _____    ______ ____
ROOT
ATOM      1  O   UNL     1      44.595   5.260  10.906  0.00  0.00    +0.000 OA
ENDROOT
BRANCH   1   2
ATOM      2  C   UNL     1      45.538   5.506  11.863  0.00  0.00    +0.000 A 
ATOM      3  C   UNL     1      45.815   4.454  12.729  0.00  0.00    +0.000 A 
ATOM      4  C   UNL     1      46.706   4.643  13.780  0.00  0.00    +0.000 A 
ATOM      5  C   UNL     1      47.352   5.872  13.940  0.00  0.00    +0.000 A 
ATOM      6  C   UNL     1      47.164   6.912  13.021  0.00  0.00    +0.000 A 
ATOM      7  C   UNL     1      46.220   6.715  12.001  0.00  0.00    +0.000 A 
BRANCH   6   8
ATOM      8  C   UNL     1      47.913   8.243  13.054  0.00  0.00    +0.000 C 
ATOM      9  C   UNL     1      48.735   8.470  11.765  0.00  0.00    +0.000 C 
ATOM     10  C   UNL     1      49.992   7.607  11.739  0.00  0.00    +0.000 C 
ATOM     11  N   UNL     1      50.853   7.886  12.889  0.00  0.00    +0.000 NA
ATOM     12  C   UNL     1      50.147   7.669  14.153  0.00  0.00    +0.000 C 
ATOM     13  C   UNL     1      48.848   8.474  14.253  0.00  0.00    +0.000 C 
ATOM     14  H   UNL     1      51.162   8.857  12.844  0.00  0.00    +0.000 HD
ENDBRANCH   6   8
ENDBRANCH   1   2
BRANCH   1  15
ATOM     15  C   UNL     1      45.067   5.384   9.564  0.00  0.00    +0.000 C 
BRANCH  15  20
ATOM     16  C   UNL     1      46.517   2.523   7.518  0.00  0.00    +0.000 A 
ATOM     17  C   UNL     1      45.838   1.426   8.063  0.00  0.00    +0.000 A 
ATOM     18  C   UNL     1      44.894   1.619   9.074  0.00  0.00    +0.000 A 
ATOM     19  C   UNL     1      44.640   2.903   9.551  0.00  0.00    +0.000 A 
ATOM     20  C   UNL     1      45.330   4.005   9.030  0.00  0.00    +0.000 A 
ATOM     21  C   UNL     1      46.261   3.808   8.002  0.00  0.00    +0.000 A 
BRANCH  16  23
ATOM     22  N   UNL     1      47.398   3.151   5.332  0.00  0.00    +0.000 N 
ATOM     23  C   UNL     1      47.539   2.375   6.449  0.00  0.00    +0.000 C 
ATOM     24  O   UNL     1      48.494   1.622   6.570  0.00  0.00    +0.000 OA
ATOM     25  H   UNL     1      48.156   3.108   4.664  0.00  0.00    +0.000 HD
ATOM     26  H   UNL     1      46.790   3.957   5.304  0.00  0.00    +0.000 HD
ENDBRANCH  16  23
ENDBRANCH  15  20
ENDBRANCH   1  15
TORSDOF 5
ENDMDL
MODEL 2
REMARK VINA RESULT:    -6.747      4.208      8.126
REMARK INTER + INTRA:          -9.432
REMARK INTER:                  -9.366
REMARK INTRA:                  -0.066
REMARK UNBOUND:                -0.712
REMARK  Name = 
REMARK  5 active torsions:
REMARK  status: ('A' for Active; 'I' for Inactive)
REMARK    1  A    between atoms: C_2  and  C_4
REMARK    2  A    between atoms: C_8  and  C_9
REMARK    3  A    between atoms: C_9  and  O_10
REMARK    4  A    between atoms: O_10  and  C_11
REMARK    5  A    between atoms: C_15  and  C_16
REMARK                            x       y       z     vdW  Elec       q    Type
REMARK                         _______ _______ _______ _____ _____    ______ ____
ROOT
ATOM      1  O   UNL     1      47.184   3.716  14.757  0.00  0.00    +0.000 OA
ENDROOT
BRANCH   1   2
ATOM      2  C   UNL     1      46.845   4.569  13.745  0.00  0.00    +0.000 A 
ATOM      3  C   UNL     1      47.727   5.617  13.510  0.00  0.00    +0.000 A 
ATOM      4  C   UNL     1      47.419   6.576  12.550  0.00  0.00    +0.000 A 
ATOM      5  C   UNL     1      46.249   6.461  11.795  0.00  0.00    +0.000 A 
ATOM      6  C   UNL     1      45.397   5.359  11.944  0.00  0.00    +0.000 A 
ATOM      7  C   UNL     1      45.702   4.436  12.957  0.00  0.00    +0.000 A 
BRANCH   6   8
ATOM      8  C   UNL     1      44.162   5.097  11.086  0.00  0.00    +0.000 C 
ATOM      9  C   UNL     1      43.080   4.311  11.862  0.00  0.00    +0.000 C 
ATOM     10  C   UNL     1      43.454   2.841  12.016  0.00  0.00    +0.000 C 
ATOM     11  N   UNL     1      43.642   2.200  10.715  0.00  0.00    +0.000 NA
ATOM     12  C   UNL     1      44.674   2.877   9.928  0.00  0.00    +0.000 C 
ATOM     13  C   UNL     1      44.397   4.373   9.749  0.00  0.00    +0.000 C 
ATOM     14  H   UNL     1      42.762   2.226  10.201  0.00  0.00    +0.000 HD
ENDBRANCH   6   8
ENDBRANCH   1   2
BRANCH   1  15
ATOM     15  C   UNL     1      47.006   4.252  16.068  0.00  0.00    +0.000 C 
BRANCH  15  20
ATOM     16  C   UNL     1      50.420   3.308  17.454  0.00  0.00    +0.000 A 
ATOM     17  C   UNL     1      50.880   4.548  17.916  0.00  0.00    +0.000 A 
ATOM     18  C   UNL     1      50.072   5.681  17.801  0.00  0.00    +0.000 A 
ATOM     19  C   UNL     1      48.814   5.580  17.212  0.00  0.00    +0.000 A 
ATOM     20  C   UNL     1      48.354   4.350  16.724  0.00  0.00    +0.000 A 
ATOM     21  C   UNL     1      49.160   3.213  16.859  0.00  0.00    +0.000 A 
BRANCH  16  23
ATOM     22  N   UNL     1      52.271   2.064  18.441  0.00  0.00    +0.000 N 
ATOM     23  C   UNL     1      51.243   2.072  17.541  0.00  0.00    +0.000 C 
ATOM     24  O   UNL     1      50.993   1.083  16.867  0.00  0.00    +0.000 OA
ATOM     25  H   UNL     1      52.753   1.182  18.555  0.00  0.00    +0.000 HD
ATOM     26  H   UNL     1      52.347   2.742  19.185  0.00  0.00    +0.000 HD
ENDBRANCH  16  23
ENDBRANCH  15  20
ENDBRANCH   1  15
TORSDOF 5
ENDMDL
MODEL 3
REMARK VINA RESULT:    -6.732      4.149      7.889
REMARK INTER + INTRA:          -9.412
REMARK INTER:                  -8.847
REMARK INTRA:                  -0.565
REMARK UNBOUND:                -0.712
REMARK  Name = 
REMARK  5 active torsions:
REMARK  status: ('A' for Active; 'I' for Inactive)
REMARK    1  A    between atoms: C_2  and  C_4
REMARK    2  A    between atoms: C_8  and  C_9
REMARK    3  A    between atoms: C_9  and  O_10
REMARK    4  A    between atoms: O_10  and  C_11
REMARK    5  A    between atoms: C_15  and  C_16
REMARK                            x       y       z     vdW  Elec       q    Type
REMARK                         _______ _______ _______ _____ _____    ______ ____
ROOT
ATOM      1  O   UNL     1      48.959   6.477  14.742  0.00  0.00    +0.000 OA
ENDROOT
BRANCH   1   2
ATOM      2  C   UNL     1      47.788   6.684  14.069  0.00  0.00    +0.000 A 
ATOM      3  C   UNL     1      47.574   7.975  13.601  0.00  0.00    +0.000 A 
ATOM      4  C   UNL     1      46.373   8.290  12.974  0.00  0.00    +0.000 A 
ATOM      5  C   UNL     1      45.404   7.302  12.775  0.00  0.00    +0.000 A 
ATOM      6  C   UNL     1      45.641   5.973  13.147  0.00  0.00    +0.000 A 
ATOM      7  C   UNL     1      46.837   5.692  13.827  0.00  0.00    +0.000 A 
BRANCH   6   8
ATOM      8  C   UNL     1      44.690   4.812  12.866  0.00  0.00    +0.000 C 
ATOM      9  C   UNL     1      45.073   4.057  11.574  0.00  0.00    +0.000 C 
ATOM     10  C   UNL     1      44.695   4.848  10.326  0.00  0.00    +0.000 C 
ATOM     11  N   UNL     1      43.260   5.127  10.286  0.00  0.00    +0.000 NA
ATOM     12  C   UNL     1      42.824   5.865  11.473  0.00  0.00    +0.000 C 
ATOM     13  C   UNL     1      43.193   5.157  12.781  0.00  0.00    +0.000 C 
ATOM     14  H   UNL     1      42.751   4.244  10.240  0.00  0.00    +0.000 HD
ENDBRANCH   6   8
ENDBRANCH   1   2
BRANCH   1  15
ATOM     15  C   UNL     1      48.966   6.967  16.083  0.00  0.00    +0.000 C 
BRANCH  15  20
ATOM     16  C   UNL     1      49.392   3.466  17.509  0.00  0.00    +0.000 A 
ATOM     17  C   UNL     1      48.793   3.609  18.768  0.00  0.00    +0.000 A 
ATOM     18  C   UNL     1      48.230   4.831  19.140  0.00  0.00    +0.000 A 
ATOM     19  C   UNL     1      48.278   5.913  18.265  0.00  0.00    +0.000 A 
ATOM     20  C   UNL     1      48.897   5.789  17.013  0.00  0.00    +0.000 A 
ATOM     21  C   UNL     1      49.442   4.555  16.637  0.00  0.00    +0.000 A 
BRANCH  16  23
ATOM     22  N   UNL     1      50.974   1.647  17.875  0.00  0.00    +0.000 N 
ATOM     23  C   UNL     1      50.017   2.192  17.066  0.00  0.00    +0.000 C 
ATOM     24  O   UNL     1      49.667   1.624  16.041  0.00  0.00    +0.000 OA
ATOM     25  H   UNL     1      51.314   0.732  17.605  0.00  0.00    +0.000 HD
ATOM     26  H   UNL     1      51.102   1.934  18.834  0.00  0.00    +0.000 HD
ENDBRANCH  16  23
ENDBRANCH  15  20
ENDBRANCH   1  15
TORSDOF 5
ENDMDL
MODEL 4
REMARK VINA RESULT:    -6.700      3.861      8.113
REMARK INTER + INTRA:          -9.371
REMARK INTER:                  -8.723
REMARK INTRA:                  -0.647
REMARK UNBOUND:                -0.712
REMARK  Name = 
REMARK  5 active torsions:
REMARK  status: ('A' for Active; 'I' for Inactive)
REMARK    1  A    between atoms: C_2  and  C_4
REMARK    2  A    between atoms: C_8  and  C_9
REMARK    3  A    between atoms: C_9  and  O_10
REMARK    4  A    between atoms: O_10  and  C_11
REMARK    5  A    between atoms: C_15  and  C_16
REMARK                            x       y       z     vdW  Elec       q    Type
REMARK                         _______ _______ _______ _____ _____    ______ ____
ROOT
ATOM      1  O   UNL     1      49.101   6.577  13.883  0.00  0.00    +0.000 OA
ENDROOT
BRANCH   1   2
ATOM      2  C   UNL     1      47.832   6.646  13.382  0.00  0.00    +0.000 A 
ATOM      3  C   UNL     1      47.532   7.782  12.640  0.00  0.00    +0.000 A 
ATOM      4  C   UNL     1      46.240   7.970  12.159  0.00  0.00    +0.000 A 
ATOM      5  C   UNL     1      45.260   6.999  12.383  0.00  0.00    +0.000 A 
ATOM      6  C   UNL     1      45.567   5.800  13.040  0.00  0.00    +0.000 A 
ATOM      7  C   UNL     1      46.862   5.660  13.563  0.00  0.00    +0.000 A 
BRANCH   6   8
ATOM      8  C   UNL     1      44.591   4.641  13.228  0.00  0.00    +0.000 C 
ATOM      9  C   UNL     1      45.005   3.404  12.400  0.00  0.00    +0.000 C 
ATOM     10  C   UNL     1      44.708   3.594  10.916  0.00  0.00    +0.000 C 
ATOM     11  N   UNL     1      43.285   3.845  10.686  0.00  0.00    +0.000 NA
ATOM     12  C   UNL     1      42.823   5.023  11.423  0.00  0.00    +0.000 C 
ATOM     13  C   UNL     1      43.111   4.934  12.925  0.00  0.00    +0.000 C 
ATOM     14  H   UNL     1      42.750   3.032  10.991  0.00  0.00    +0.000 HD
ENDBRANCH   6   8
ENDBRANCH   1   2
BRANCH   1  15
ATOM     15  C   UNL     1      49.279   7.235  15.138  0.00  0.00    +0.000 C 
BRANCH  15  20
ATOM     16  C   UNL     1      48.996   4.348  17.600  0.00  0.00    +0.000 A 
ATOM     17  C   UNL     1      50.317   4.247  18.055  0.00  0.00    +0.000 A 
ATOM     18  C   UNL     1      51.289   5.131  17.584  0.00  0.00    +0.000 A 
ATOM     19  C   UNL     1      50.948   6.104  16.647  0.00  0.00    +0.000 A 
ATOM     20  C   UNL     1      49.635   6.198  16.166  0.00  0.00    +0.000 A 
ATOM     21  C   UNL     1      48.660   5.322  16.656  0.00  0.00    +0.000 A 
BRANCH  16  23
ATOM     22  N   UNL     1      48.084   2.835  19.281  0.00  0.00    +0.000 N 
ATOM     23  C   UNL     1      47.923   3.426  18.059  0.00  0.00    +0.000 C 
ATOM     24  O   UNL     1      46.915   3.228  17.396  0.00  0.00    +0.000 OA
ATOM     25  H   UNL     1      47.299   2.292  19.617  0.00  0.00    +0.000 HD
ATOM     26  H   UNL     1      48.754   3.165  19.960  0.00  0.00    +0.000 HD
ENDBRANCH  16  23
ENDBRANCH  15  20
ENDBRANCH   1  15
TORSDOF 5
ENDMDL
MODEL 5
REMARK VINA RESULT:    -6.629      3.848      7.738
REMARK INTER + INTRA:          -9.279
REMARK INTER:                  -8.594
REMARK INTRA:                  -0.686
REMARK UNBOUND:                -0.712
REMARK  Name = 
REMARK  5 active torsions:
REMARK  status: ('A' for Active; 'I' for Inactive)
REMARK    1  A    between atoms: C_2  and  C_4
REMARK    2  A    between atoms: C_8  and  C_9
REMARK    3  A    between atoms: C_9  and  O_10
REMARK    4  A    between atoms: O_10  and  C_11
REMARK    5  A    between atoms: C_15  and  C_16
REMARK                            x       y       z     vdW  Elec       q    Type
REMARK                         _______ _______ _______ _____ _____    ______ ____
ROOT
ATOM      1  O   UNL     1      48.747   6.534  13.562  0.00  0.00    +0.000 OA
ENDROOT
BRANCH   1   2
ATOM      2  C   UNL     1      47.559   6.948  13.030  0.00  0.00    +0.000 A 
ATOM      3  C   UNL     1      47.270   8.301  13.163  0.00  0.00    +0.000 A 
ATOM      4  C   UNL     1      46.046   8.791  12.718  0.00  0.00    +0.000 A 
ATOM      5  C   UNL     1      45.129   7.935  12.101  0.00  0.00    +0.000 A 
ATOM      6  C   UNL     1      45.442   6.590  11.866  0.00  0.00    +0.000 A 
ATOM      7  C   UNL     1      46.659   6.108  12.373  0.00  0.00    +0.000 A 
BRANCH   6   8
ATOM      8  C   UNL     1      44.550   5.616  11.100  0.00  0.00    +0.000 C 
ATOM      9  C   UNL     1      43.119   5.569  11.683  0.00  0.00    +0.000 C 
ATOM     10  C   UNL     1      43.071   4.795  12.996  0.00  0.00    +0.000 C 
ATOM     11  N   UNL     1      43.541   3.421  12.822  0.00  0.00    +0.000 NA
ATOM     12  C   UNL     1      44.905   3.384  12.293  0.00  0.00    +0.000 C 
ATOM     13  C   UNL     1      45.056   4.167  10.985  0.00  0.00    +0.000 C 
ATOM     14  H   UNL     1      42.920   2.937  12.173  0.00  0.00    +0.000 HD
ENDBRANCH   6   8
ENDBRANCH   1   2
BRANCH   1  15
ATOM     15  C   UNL     1      49.227   7.342  14.637  0.00  0.00    +0.000 C 
BRANCH  15  20
ATOM     16  C   UNL     1      48.039   4.752  17.159  0.00  0.00    +0.000 A 
ATOM     17  C   UNL     1      48.091   5.487  18.350  0.00  0.00    +0.000 A 
ATOM     18  C   UNL     1      48.486   6.826  18.329  0.00  0.00    +0.000 A 
ATOM     19  C   UNL     1      48.843   7.427  17.124  0.00  0.00    +0.000 A 
ATOM     20  C   UNL     1      48.819   6.694  15.930  0.00  0.00    +0.000 A 
ATOM     21  C   UNL     1      48.403   5.357  15.953  0.00  0.00    +0.000 A 
BRANCH  16  23
ATOM     22  N   UNL     1      48.598   2.408  16.789  0.00  0.00    +0.000 N 
ATOM     23  C   UNL     1      47.637   3.321  17.123  0.00  0.00    +0.000 C 
ATOM     24  O   UNL     1      46.507   2.961  17.419  0.00  0.00    +0.000 OA
ATOM     25  H   UNL     1      48.330   1.435  16.868  0.00  0.00    +0.000 HD
ATOM     26  H   UNL     1      49.583   2.628  16.796  0.00  0.00    +0.000 HD
ENDBRANCH  16  23
ENDBRANCH  15  20
ENDBRANCH   1  15
TORSDOF 5
ENDMDL
MODEL 6
REMARK VINA RESULT:    -6.298      3.146      4.812
REMARK INTER + INTRA:          -8.852
REMARK INTER:                  -8.399
REMARK INTRA:                  -0.453
REMARK UNBOUND:                -0.712
REMARK  Name = 
REMARK  5 active torsions:
REMARK  status: ('A' for Active; 'I' for Inactive)
REMARK    1  A    between atoms: C_2  and  C_4
REMARK    2  A    between atoms: C_8  and  C_9
REMARK    3  A    between atoms: C_9  and  O_10
REMARK    4  A    between atoms: O_10  and  C_11
REMARK    5  A    between atoms: C_15  and  C_16
REMARK                            x       y       z     vdW  Elec       q    Type
REMARK                         _______ _______ _______ _____ _____    ______ ____
ROOT
ATOM      1  O   UNL     1      47.385   6.378  12.379  0.00  0.00    +0.000 OA
ENDROOT
BRANCH   1   2
ATOM      2  C   UNL     1      47.832   6.307  13.668  0.00  0.00    +0.000 A 
ATOM      3  C   UNL     1      48.712   7.308  14.064  0.00  0.00    +0.000 A 
ATOM      4  C   UNL     1      49.275   7.267  15.335  0.00  0.00    +0.000 A 
ATOM      5  C   UNL     1      48.923   6.249  16.227  0.00  0.00    +0.000 A 
ATOM      6  C   UNL     1      47.962   5.290  15.884  0.00  0.00    +0.000 A 
ATOM      7  C   UNL     1      47.450   5.321  14.578  0.00  0.00    +0.000 A 
BRANCH   6   8
ATOM      8  C   UNL     1      47.437   4.215  16.833  0.00  0.00    +0.000 C 
ATOM      9  C   UNL     1      47.655   4.600  18.313  0.00  0.00    +0.000 C 
ATOM     10  C   UNL     1      49.115   4.445  18.726  0.00  0.00    +0.000 C 
ATOM     11  N   UNL     1      49.579   3.070  18.536  0.00  0.00    +0.000 NA
ATOM     12  C   UNL     1      49.426   2.640  17.145  0.00  0.00    +0.000 C 
ATOM     13  C   UNL     1      47.990   2.793  16.633  0.00  0.00    +0.000 C 
ATOM     14  H   UNL     1      49.037   2.450  19.137  0.00  0.00    +0.000 HD
ENDBRANCH   6   8
ENDBRANCH   1   2
BRANCH   1  15
ATOM     15  C   UNL     1      46.079   6.937  12.235  0.00  0.00    +0.000 C 
BRANCH  15  20
ATOM     16  C   UNL     1      44.358   4.012  10.517  0.00  0.00    +0.000 A 
ATOM     17  C   UNL     1      43.344   3.714  11.435  0.00  0.00    +0.000 A 
ATOM     18  C   UNL     1      43.203   4.479  12.595  0.00  0.00    +0.000 A 
ATOM     19  C   UNL     1      44.084   5.528  12.846  0.00  0.00    +0.000 A 
ATOM     20  C   UNL     1      45.118   5.819  11.947  0.00  0.00    +0.000 A 
ATOM     21  C   UNL     1      45.242   5.062  10.776  0.00  0.00    +0.000 A 
BRANCH  16  23
ATOM     22  N   UNL     1      45.047   3.889   8.181  0.00  0.00    +0.000 N 
ATOM     23  C   UNL     1      44.561   3.224   9.272  0.00  0.00    +0.000 C 
ATOM     24  O   UNL     1      44.345   2.022   9.227  0.00  0.00    +0.000 OA
ATOM     25  H   UNL     1      45.271   3.316   7.377  0.00  0.00    +0.000 HD
ATOM     26  H   UNL     1      45.478   4.799   8.247  0.00  0.00    +0.000 HD
ENDBRANCH  16  23
ENDBRANCH  15  20
ENDBRANCH   1  15
TORSDOF 5
ENDMDL
MODEL 7
REMARK VINA RESULT:    -6.257      4.627      6.332
REMARK INTER + INTRA:          -8.798
REMARK INTER:                  -8.280
REMARK INTRA:                  -0.518
REMARK UNBOUND:                -0.712
REMARK  Name = 
REMARK  5 active torsions:
REMARK  status: ('A' for Active; 'I' for Inactive)
REMARK    1  A    between atoms: C_2  and  C_4
REMARK    2  A    between atoms: C_8  and  C_9
REMARK    3  A    between atoms: C_9  and  O_10
REMARK    4  A    between atoms: O_10  and  C_11
REMARK    5  A    between atoms: C_15  and  C_16
REMARK                            x       y       z     vdW  Elec       q    Type
REMARK                         _______ _______ _______ _____ _____    ______ ____
ROOT
ATOM      1  O   UNL     1      47.703   5.067  15.159  0.00  0.00    +0.000 OA
ENDROOT
BRANCH   1   2
ATOM      2  C   UNL     1      48.041   4.623  16.406  0.00  0.00    +0.000 A 
ATOM      3  C   UNL     1      47.828   3.271  16.651  0.00  0.00    +0.000 A 
ATOM      4  C   UNL     1      48.073   2.753  17.918  0.00  0.00    +0.000 A 
ATOM      5  C   UNL     1      48.573   3.578  18.929  0.00  0.00    +0.000 A 
ATOM      6  C   UNL     1      48.891   4.919  18.676  0.00  0.00    +0.000 A 
ATOM      7  C   UNL     1      48.584   5.431  17.406  0.00  0.00    +0.000 A 
BRANCH   6   8
ATOM      8  C   UNL     1      49.545   5.859  19.687  0.00  0.00    +0.000 C 
ATOM      9  C   UNL     1      49.482   5.290  21.123  0.00  0.00    +0.000 C 
ATOM     10  C   UNL     1      48.081   5.408  21.714  0.00  0.00    +0.000 C 
ATOM     11  N   UNL     1      47.634   6.801  21.751  0.00  0.00    +0.000 NA
ATOM     12  C   UNL     1      47.644   7.403  20.417  0.00  0.00    +0.000 C 
ATOM     13  C   UNL     1      49.010   7.300  19.730  0.00  0.00    +0.000 C 
ATOM     14  H   UNL     1      48.255   7.333  22.360  0.00  0.00    +0.000 HD
ENDBRANCH   6   8
ENDBRANCH   1   2
BRANCH   1  15
ATOM     15  C   UNL     1      46.934   4.141  14.390  0.00  0.00    +0.000 C 
BRANCH  15  20
ATOM     16  C   UNL     1      44.991   4.910  11.211  0.00  0.00    +0.000 A 
ATOM     17  C   UNL     1      45.413   6.218  10.943  0.00  0.00    +0.000 A 
ATOM     18  C   UNL     1      46.346   6.838  11.777  0.00  0.00    +0.000 A 
ATOM     19  C   UNL     1      46.844   6.159  12.886  0.00  0.00    +0.000 A 
ATOM     20  C   UNL     1      46.410   4.859  13.179  0.00  0.00    +0.000 A 
ATOM     21  C   UNL     1      45.489   4.235  12.328  0.00  0.00    +0.000 A 
BRANCH  16  23
ATOM     22  N   UNL     1      44.010   4.468   9.022  0.00  0.00    +0.000 N 
ATOM     23  C   UNL     1      43.992   4.206  10.364  0.00  0.00    +0.000 C 
ATOM     24  O   UNL     1      43.207   3.394  10.832  0.00  0.00    +0.000 OA
ATOM     25  H   UNL     1      43.391   3.906   8.453  0.00  0.00    +0.000 HD
ATOM     26  H   UNL     1      44.792   4.917   8.568  0.00  0.00    +0.000 HD
ENDBRANCH  16  23
ENDBRANCH  15  20
ENDBRANCH   1  15
TORSDOF 5
ENDMDL
MODEL 8
REMARK VINA RESULT:    -6.229      4.593      8.628
REMARK INTER + INTRA:          -8.763
REMARK INTER:                  -8.098
REMARK INTRA:                  -0.664
REMARK UNBOUND:                -0.712
REMARK  Name = 
REMARK  5 active torsions:
REMARK  status: ('A' for Active; 'I' for Inactive)
REMARK    1  A    between atoms: C_2  and  C_4
REMARK    2  A    between atoms: C_8  and  C_9
REMARK    3  A    between atoms: C_9  and  O_10
REMARK    4  A    between atoms: O_10  and  C_11
REMARK    5  A    between atoms: C_15  and  C_16
REMARK                            x       y       z     vdW  Elec       q    Type
REMARK                         _______ _______ _______ _____ _____    ______ ____
ROOT
ATOM      1  O   UNL     1      48.495   5.657  14.500  0.00  0.00    +0.000 OA
ENDROOT
BRANCH   1   2
ATOM      2  C   UNL     1      47.565   6.081  13.594  0.00  0.00    +0.000 A 
ATOM      3  C   UNL     1      48.013   6.987  12.640  0.00  0.00    +0.000 A 
ATOM      4  C   UNL     1      47.113   7.529  11.728  0.00  0.00    +0.000 A 
ATOM      5  C   UNL     1      45.773   7.129  11.742  0.00  0.00    +0.000 A 
ATOM      6  C   UNL     1      45.323   6.142  12.629  0.00  0.00    +0.000 A 
ATOM      7  C   UNL     1      46.237   5.653  13.574  0.00  0.00    +0.000 A 
BRANCH   6   8
ATOM      8  C   UNL     1      43.909   5.567  12.637  0.00  0.00    +0.000 C 
ATOM      9  C   UNL     1      43.895   4.087  13.084  0.00  0.00    +0.000 C 
ATOM     10  C   UNL     1      44.412   3.163  11.987  0.00  0.00    +0.000 C 
ATOM     11  N   UNL     1      43.611   3.282  10.769  0.00  0.00    +0.000 NA
ATOM     12  C   UNL     1      43.596   4.658  10.269  0.00  0.00    +0.000 C 
ATOM     13  C   UNL     1      43.119   5.665  11.320  0.00  0.00    +0.000 C 
ATOM     14  H   UNL     1      42.654   2.992  10.971  0.00  0.00    +0.000 HD
ENDBRANCH   6   8
ENDBRANCH   1   2
BRANCH   1  15
ATOM     15  C   UNL     1      48.393   6.272  15.785  0.00  0.00    +0.000 C 
BRANCH  15  20
ATOM     16  C   UNL     1      48.576   4.441  19.115  0.00  0.00    +0.000 A 
ATOM     17  C   UNL     1      48.127   3.165  18.750  0.00  0.00    +0.000 A 
ATOM     18  C   UNL     1      47.793   2.894  17.421  0.00  0.00    +0.000 A 
ATOM     19  C   UNL     1      47.890   3.900  16.462  0.00  0.00    +0.000 A 
ATOM     20  C   UNL     1      48.313   5.186  16.821  0.00  0.00    +0.000 A 
ATOM     21  C   UNL     1      48.666   5.447  18.150  0.00  0.00    +0.000 A 
BRANCH  16  23
ATOM     22  N   UNL     1      47.916   4.858  21.425  0.00  0.00    +0.000 N 
ATOM     23  C   UNL     1      48.934   4.788  20.516  0.00  0.00    +0.000 C 
ATOM     24  O   UNL     1      50.094   4.965  20.860  0.00  0.00    +0.000 OA
ATOM     25  H   UNL     1      48.192   4.997  22.389  0.00  0.00    +0.000 HD
ATOM     26  H   UNL     1      47.001   4.471  21.247  0.00  0.00    +0.000 HD
ENDBRANCH  16  23
ENDBRANCH  15  20
ENDBRANCH   1  15
TORSDOF 5
ENDMDL
MODEL 9
REMARK VINA RESULT:    -6.210      3.883      5.465
REMARK INTER + INTRA:          -8.738
REMARK INTER:                  -8.067
REMARK INTRA:                  -0.671
REMARK UNBOUND:                -0.712
REMARK  Name = 
REMARK  5 active torsions:
REMARK  status: ('A' for Active; 'I' for Inactive)
REMARK    1  A    between atoms: C_2  and  C_4
REMARK    2  A    between atoms: C_8  and  C_9
REMARK    3  A    between atoms: C_9  and  O_10
REMARK    4  A    between atoms: O_10  and  C_11
REMARK    5  A    between atoms: C_15  and  C_16
REMARK                            x       y       z     vdW  Elec       q    Type
REMARK                         _______ _______ _______ _____ _____    ______ ____
ROOT
ATOM      1  O   UNL     1      46.724   4.116  15.433  0.00  0.00    +0.000 OA
ENDROOT
BRANCH   1   2
ATOM      2  C   UNL     1      47.855   4.111  16.198  0.00  0.00    +0.000 A 
ATOM      3  C   UNL     1      48.316   2.863  16.598  0.00  0.00    +0.000 A 
ATOM      4  C   UNL     1      49.417   2.772  17.443  0.00  0.00    +0.000 A 
ATOM      5  C   UNL     1      50.085   3.930  17.853  0.00  0.00    +0.000 A 
ATOM      6  C   UNL     1      49.699   5.192  17.380  0.00  0.00    +0.000 A 
ATOM      7  C   UNL     1      48.553   5.260  16.573  0.00  0.00    +0.000 A 
BRANCH   6   8
ATOM      8  C   UNL     1      50.438   6.492  17.685  0.00  0.00    +0.000 C 
ATOM      9  C   UNL     1      50.150   7.578  16.623  0.00  0.00    +0.000 C 
ATOM     10  C   UNL     1      50.892   7.301  15.320  0.00  0.00    +0.000 C 
ATOM     11  N   UNL     1      52.338   7.239  15.533  0.00  0.00    +0.000 NA
ATOM     12  C   UNL     1      52.692   6.213  16.514  0.00  0.00    +0.000 C 
ATOM     13  C   UNL     1      51.964   6.393  17.850  0.00  0.00    +0.000 C 
ATOM     14  H   UNL     1      52.663   8.146  15.870  0.00  0.00    +0.000 HD
ENDBRANCH   6   8
ENDBRANCH   1   2
BRANCH   1  15
ATOM     15  C   UNL     1      46.919   3.683  14.086  0.00  0.00    +0.000 C 
BRANCH  15  20
ATOM     16  C   UNL     1      44.708   5.657  11.700  0.00  0.00    +0.000 A 
ATOM     17  C   UNL     1      45.488   6.800  11.488  0.00  0.00    +0.000 A 
ATOM     18  C   UNL     1      46.740   6.917  12.097  0.00  0.00    +0.000 A 
ATOM     19  C   UNL     1      47.204   5.901  12.929  0.00  0.00    +0.000 A 
ATOM     20  C   UNL     1      46.421   4.764  13.169  0.00  0.00    +0.000 A 
ATOM     21  C   UNL     1      45.176   4.643  12.540  0.00  0.00    +0.000 A 
BRANCH  16  23
ATOM     22  N   UNL     1      42.316   6.133  11.680  0.00  0.00    +0.000 N 
ATOM     23  C   UNL     1      43.364   5.486  11.087  0.00  0.00    +0.000 C 
ATOM     24  O   UNL     1      43.198   4.827  10.071  0.00  0.00    +0.000 OA
ATOM     25  H   UNL     1      41.432   6.084  11.191  0.00  0.00    +0.000 HD
ATOM     26  H   UNL     1      42.446   6.880  12.346  0.00  0.00    +0.000 HD
ENDBRANCH  16  23
ENDBRANCH  15  20
ENDBRANCH   1  15
TORSDOF 5
ENDMDL
