MODEL 1
REMARK VINA RESULT:    -6.323      0.000      0.000
REMARK INTER + INTRA:          -8.668
REMARK INTER:                  -7.801
REMARK INTRA:                  -0.866
REMARK UNBOUND:                -0.866
REMARK  Name = 
REMARK  6 active torsions:
REMARK  status: ('A' for Active; 'I' for Inactive)
REMARK    1  A    between atoms: C_1  and  O_2
REMARK    2  A    between atoms: O_2  and  C_3
REMARK    3  A    between atoms: C_5  and  C_6
REMARK    4  A    between atoms: N_9  and  C_10
REMARK    5  A    between atoms: C_10  and  C_11
REMARK    6  A    between atoms: C_15  and  C_16
REMARK                            x       y       z     vdW  Elec       q    Type
REMARK                         _______ _______ _______ _____ _____    ______ ____
ROOT
ATOM      1  C   UNL     1      48.984   7.842  12.519  0.00  0.00    +0.000 C 
ATOM      2  C   UNL     1      49.900   7.978  11.307  0.00  0.00    +0.000 C 
ATOM      3  C   UNL     1      49.817   9.093  12.294  0.00  0.00    +0.000 C 
ENDROOT
BRANCH   1  10
ATOM      4  C   UNL     1      48.718   8.215  16.745  0.00  0.00    +0.000 A 
ATOM      5  C   UNL     1      48.583   7.098  17.531  0.00  0.00    +0.000 A 
ATOM      6  C   UNL     1      48.681   5.897  16.872  0.00  0.00    +0.000 A 
ATOM      7  C   UNL     1      48.466   4.601  17.591  0.00  0.00    +0.000 C 
ATOM      8  N   UNL     1      48.924   5.823  15.547  0.00  0.00    +0.000 NA
ATOM      9  C   UNL     1      49.066   6.974  14.867  0.00  0.00    +0.000 A 
ATOM     10  N   UNL     1      49.368   6.827  13.507  0.00  0.00    +0.000 N 
ATOM     11  N   UNL     1      48.959   8.184  15.425  0.00  0.00    +0.000 NA
ATOM     12  H   UNL     1      49.176   5.856  13.287  0.00  0.00    +0.000 HD
BRANCH   4  14
ATOM     13  C   UNL     1      47.757   9.363  18.530  0.00  0.00    +0.000 C 
ATOM     14  O   UNL     1      48.610   9.432  17.392  0.00  0.00    +0.000 OA
ENDBRANCH   4  14
ENDBRANCH   1  10
BRANCH   1  15
ATOM     15  C   UNL     1      47.482   7.972  12.289  0.00  0.00    +0.000 A 
ATOM     16  C   UNL     1      46.860   9.227  12.314  0.00  0.00    +0.000 A 
ATOM     17  C   UNL     1      45.521   9.372  11.963  0.00  0.00    +0.000 A 
ATOM     18  C   UNL     1      44.780   8.258  11.569  0.00  0.00    +0.000 A 
ATOM     19  C   UNL     1      45.339   6.973  11.569  0.00  0.00    +0.000 A 
ATOM     20  C   UNL     1      46.686   6.857  11.962  0.00  0.00    +0.000 A 
BRANCH  19  21
ATOM     21  C   UNL     1      44.615   5.734  11.041  0.00  0.00    +0.000 C 
ATOM     22  C   UNL     1      43.122   5.620  11.394  0.00  0.00    +0.000 C 
ATOM     23  C   UNL     1      42.893   5.141  12.829  0.00  0.00    +0.000 C 
ATOM     24  N   UNL     1      43.564   3.869  13.097  0.00  0.00    +0.000 NA
ATOM     25  C   UNL     1      45.000   3.967  12.836  0.00  0.00    +0.000 C 
ATOM     26  C   UNL     1      45.303   4.401  11.404  0.00  0.00    +0.000 C 
ATOM     27  H   UNL     1      43.163   3.149  12.498  0.00  0.00    +0.000 HD
ENDBRANCH  19  21
ENDBRANCH   1  15
TORSDOF 4
ENDMDL
MODEL 2
REMARK VINA RESULT:    -5.952      2.855      6.586
REMARK INTER + INTRA:          -8.210
REMARK INTER:                  -8.203
REMARK INTRA:                  -0.007
REMARK UNBOUND:                -0.866
REMARK  Name = 
REMARK  6 active torsions:
REMARK  status: ('A' for Active; 'I' for Inactive)
REMARK    1  A    between atoms: C_1  and  O_2
REMARK    2  A    between atoms: O_2  and  C_3
REMARK    3  A    between atoms: C_5  and  C_6
REMARK    4  A    between atoms: N_9  and  C_10
REMARK    5  A    between atoms: C_10  and  C_11
REMARK    6  A    between atoms: C_15  and  C_16
REMARK                            x       y       z     vdW  Elec       q    Type
REMARK                         _______ _______ _______ _____ _____    ______ ____
ROOT
ATOM      1  C   UNL     1      47.494   7.646  13.131  0.00  0.00    +0.000 C 
ATOM      2  C   UNL     1      47.419   9.121  12.754  0.00  0.00    +0.000 C 
ATOM      3  C   UNL     1      47.997   8.144  11.787  0.00  0.00    +0.000 C 
ENDROOT
BRANCH   1  10
ATOM      4  C   UNL     1      45.617   5.241  10.171  0.00  0.00    +0.000 A 
ATOM      5  C   UNL     1      44.752   4.241  10.538  0.00  0.00    +0.000 A 
ATOM      6  C   UNL     1      44.451   4.183  11.877  0.00  0.00    +0.000 A 
ATOM      7  C   UNL     1      43.590   3.089  12.430  0.00  0.00    +0.000 C 
ATOM      8  N   UNL     1      44.949   5.070  12.764  0.00  0.00    +0.000 NA
ATOM      9  C   UNL     1      45.770   6.030  12.302  0.00  0.00    +0.000 A 
ATOM     10  N   UNL     1      46.210   6.947  13.264  0.00  0.00    +0.000 N 
ATOM     11  N   UNL     1      46.136   6.140  11.021  0.00  0.00    +0.000 NA
ATOM     12  H   UNL     1      45.989   6.531  14.162  0.00  0.00    +0.000 HD
BRANCH   4  14
ATOM     13  C   UNL     1      45.773   4.050   8.174  0.00  0.00    +0.000 C 
ATOM     14  O   UNL     1      45.940   5.303   8.828  0.00  0.00    +0.000 OA
ENDBRANCH   4  14
ENDBRANCH   1  10
BRANCH   1  15
ATOM     15  C   UNL     1      48.556   7.228  14.144  0.00  0.00    +0.000 A 
ATOM     16  C   UNL     1      49.852   7.757  14.083  0.00  0.00    +0.000 A 
ATOM     17  C   UNL     1      50.782   7.494  15.083  0.00  0.00    +0.000 A 
ATOM     18  C   UNL     1      50.426   6.701  16.174  0.00  0.00    +0.000 A 
ATOM     19  C   UNL     1      49.159   6.110  16.264  0.00  0.00    +0.000 A 
ATOM     20  C   UNL     1      48.253   6.368  15.218  0.00  0.00    +0.000 A 
BRANCH  19  21
ATOM     21  C   UNL     1      48.673   5.327  17.484  0.00  0.00    +0.000 C 
ATOM     22  C   UNL     1      49.763   4.644  18.329  0.00  0.00    +0.000 C 
ATOM     23  C   UNL     1      50.266   3.344  17.696  0.00  0.00    +0.000 C 
ATOM     24  N   UNL     1      49.176   2.402  17.437  0.00  0.00    +0.000 NA
ATOM     25  C   UNL     1      48.157   3.003  16.577  0.00  0.00    +0.000 C 
ATOM     26  C   UNL     1      47.579   4.286  17.169  0.00  0.00    +0.000 C 
ATOM     27  H   UNL     1      48.752   2.133  18.323  0.00  0.00    +0.000 HD
ENDBRANCH  19  21
ENDBRANCH   1  15
TORSDOF 4
ENDMDL
MODEL 3
REMARK VINA RESULT:    -5.684      1.994      2.864
REMARK INTER + INTRA:          -7.879
REMARK INTER:                  -8.070
REMARK INTRA:                   0.191
REMARK UNBOUND:                -0.866
REMARK  Name = 
REMARK  6 active torsions:
REMARK  status: ('A' for Active; 'I' for Inactive)
REMARK    1  A    between atoms: C_1  and  O_2
REMARK    2  A    between atoms: O_2  and  C_3
REMARK    3  A    between atoms: C_5  and  C_6
REMARK    4  A    between atoms: N_9  and  C_10
REMARK    5  A    between atoms: C_10  and  C_11
REMARK    6  A    between atoms: C_15  and  C_16
REMARK                            x       y       z     vdW  Elec       q    Type
REMARK                         _______ _______ _______ _____ _____    ______ ____
ROOT
ATOM      1  C   UNL     1      48.491   7.848  14.496  0.00  0.00    +0.000 C 
ATOM      2  C   UNL     1      49.812   7.290  13.977  0.00  0.00    +0.000 C 
ATOM      3  C   UNL     1      49.572   8.761  13.943  0.00  0.00    +0.000 C 
ENDROOT
BRANCH   1  10
ATOM      4  C   UNL     1      48.585   4.240  16.742  0.00  0.00    +0.000 A 
ATOM      5  C   UNL     1      48.883   4.266  18.082  0.00  0.00    +0.000 A 
ATOM      6  C   UNL     1      49.004   5.518  18.635  0.00  0.00    +0.000 A 
ATOM      7  C   UNL     1      49.413   5.695  20.065  0.00  0.00    +0.000 C 
ATOM      8  N   UNL     1      48.810   6.643  17.916  0.00  0.00    +0.000 NA
ATOM      9  C   UNL     1      48.495   6.512  16.615  0.00  0.00    +0.000 A 
ATOM     10  N   UNL     1      48.257   7.716  15.939  0.00  0.00    +0.000 N 
ATOM     11  N   UNL     1      48.386   5.335  15.992  0.00  0.00    +0.000 NA
ATOM     12  H   UNL     1      48.612   8.446  16.545  0.00  0.00    +0.000 HD
BRANCH   4  14
ATOM     13  C   UNL     1      49.398   2.057  16.720  0.00  0.00    +0.000 C 
ATOM     14  O   UNL     1      48.473   2.988  16.168  0.00  0.00    +0.000 OA
ENDBRANCH   4  14
ENDBRANCH   1  10
BRANCH   1  15
ATOM     15  C   UNL     1      47.251   7.656  13.628  0.00  0.00    +0.000 A 
ATOM     16  C   UNL     1      46.487   8.755  13.217  0.00  0.00    +0.000 A 
ATOM     17  C   UNL     1      45.443   8.605  12.310  0.00  0.00    +0.000 A 
ATOM     18  C   UNL     1      45.150   7.345  11.788  0.00  0.00    +0.000 A 
ATOM     19  C   UNL     1      45.853   6.204  12.197  0.00  0.00    +0.000 A 
ATOM     20  C   UNL     1      46.881   6.386  13.143  0.00  0.00    +0.000 A 
BRANCH  19  21
ATOM     21  C   UNL     1      45.655   4.820  11.580  0.00  0.00    +0.000 C 
ATOM     22  C   UNL     1      44.756   4.756  10.333  0.00  0.00    +0.000 C 
ATOM     23  C   UNL     1      43.266   4.812  10.681  0.00  0.00    +0.000 C 
ATOM     24  N   UNL     1      42.883   3.760  11.624  0.00  0.00    +0.000 NA
ATOM     25  C   UNL     1      43.676   3.839  12.850  0.00  0.00    +0.000 C 
ATOM     26  C   UNL     1      45.176   3.747  12.580  0.00  0.00    +0.000 C 
ATOM     27  H   UNL     1      43.032   2.852  11.187  0.00  0.00    +0.000 HD
ENDBRANCH  19  21
ENDBRANCH   1  15
TORSDOF 4
ENDMDL
MODEL 4
REMARK VINA RESULT:    -5.571      2.734      6.629
REMARK INTER + INTRA:          -7.740
REMARK INTER:                  -6.894
REMARK INTRA:                  -0.846
REMARK UNBOUND:                -0.866
REMARK  Name = 
REMARK  6 active torsions:
REMARK  status: ('A' for Active; 'I' for Inactive)
REMARK    1  A    between atoms: C_1  and  O_2
REMARK    2  A    between atoms: O_2  and  C_3
REMARK    3  A    between atoms: C_5  and  C_6
REMARK    4  A    between atoms: N_9  and  C_10
REMARK    5  A    between atoms: C_10  and  C_11
REMARK    6  A    between atoms: C_15  and  C_16
REMARK                            x       y       z     vdW  Elec       q    Type
REMARK                         _______ _______ _______ _____ _____    ______ ____
ROOT
ATOM      1  C   UNL     1      49.709   7.902  15.454  0.00  0.00    +0.000 C 
ATOM      2  C   UNL     1      51.053   8.600  15.281  0.00  0.00    +0.000 C 
ATOM      3  C   UNL     1      51.016   7.132  15.540  0.00  0.00    +0.000 C 
ENDROOT
BRANCH   1  10
ATOM      4  C   UNL     1      47.184   4.673  14.327  0.00  0.00    +0.000 A 
ATOM      5  C   UNL     1      46.076   4.900  13.549  0.00  0.00    +0.000 A 
ATOM      6  C   UNL     1      45.941   6.181  13.073  0.00  0.00    +0.000 A 
ATOM      7  C   UNL     1      44.735   6.591  12.285  0.00  0.00    +0.000 C 
ATOM      8  N   UNL     1      46.855   7.141  13.327  0.00  0.00    +0.000 NA
ATOM      9  C   UNL     1      47.921   6.813  14.078  0.00  0.00    +0.000 A 
ATOM     10  N   UNL     1      48.855   7.840  14.261  0.00  0.00    +0.000 N 
ATOM     11  N   UNL     1      48.114   5.600  14.604  0.00  0.00    +0.000 NA
ATOM     12  H   UNL     1      48.389   8.692  13.969  0.00  0.00    +0.000 HD
BRANCH   4  14
ATOM     13  C   UNL     1      47.701   3.385  16.198  0.00  0.00    +0.000 C 
ATOM     14  O   UNL     1      47.326   3.391  14.825  0.00  0.00    +0.000 OA
ENDBRANCH   4  14
ENDBRANCH   1  10
BRANCH   1  15
ATOM     15  C   UNL     1      48.960   8.122  16.764  0.00  0.00    +0.000 A 
ATOM     16  C   UNL     1      48.381   9.363  17.059  0.00  0.00    +0.000 A 
ATOM     17  C   UNL     1      47.575   9.531  18.180  0.00  0.00    +0.000 A 
ATOM     18  C   UNL     1      47.324   8.451  19.025  0.00  0.00    +0.000 A 
ATOM     19  C   UNL     1      47.912   7.199  18.804  0.00  0.00    +0.000 A 
ATOM     20  C   UNL     1      48.750   7.071  17.679  0.00  0.00    +0.000 A 
BRANCH  19  21
ATOM     21  C   UNL     1      47.588   5.952  19.627  0.00  0.00    +0.000 C 
ATOM     22  C   UNL     1      47.287   6.183  21.118  0.00  0.00    +0.000 C 
ATOM     23  C   UNL     1      48.557   6.397  21.945  0.00  0.00    +0.000 C 
ATOM     24  N   UNL     1      49.503   5.290  21.795  0.00  0.00    +0.000 NA
ATOM     25  C   UNL     1      49.861   5.091  20.391  0.00  0.00    +0.000 C 
ATOM     26  C   UNL     1      48.641   4.830  19.512  0.00  0.00    +0.000 C 
ATOM     27  H   UNL     1      49.077   4.438  22.156  0.00  0.00    +0.000 HD
ENDBRANCH  19  21
ENDBRANCH   1  15
TORSDOF 4
ENDMDL
MODEL 5
REMARK VINA RESULT:    -5.364      2.653      4.547
REMARK INTER + INTRA:          -7.485
REMARK INTER:                  -7.256
REMARK INTRA:                  -0.229
REMARK UNBOUND:                -0.866
REMARK  Name = 
REMARK  6 active torsions:
REMARK  status: ('A' for Active; 'I' for Inactive)
REMARK    1  A    between atoms: C_1  and  O_2
REMARK    2  A    between atoms: O_2  and  C_3
REMARK    3  A    between atoms: C_5  and  C_6
REMARK    4  A    between atoms: N_9  and  C_10
REMARK    5  A    between atoms: C_10  and  C_11
REMARK    6  A    between atoms: C_15  and  C_16
REMARK                            x       y       z     vdW  Elec       q    Type
REMARK                         _______ _______ _______ _____ _____    ______ ____
ROOT
ATOM      1  C   UNL     1      47.665   4.273  17.098  0.00  0.00    +0.000 C 
ATOM      2  C   UNL     1      47.394   2.773  17.063  0.00  0.00    +0.000 C 
ATOM      3  C   UNL     1      48.794   3.263  17.217  0.00  0.00    +0.000 C 
ENDROOT
BRANCH   1  10
ATOM      4  C   UNL     1      49.956   6.532  19.876  0.00  0.00    +0.000 A 
ATOM      5  C   UNL     1      49.377   7.562  20.574  0.00  0.00    +0.000 A 
ATOM      6  C   UNL     1      48.021   7.700  20.407  0.00  0.00    +0.000 A 
ATOM      7  C   UNL     1      47.275   8.835  21.040  0.00  0.00    +0.000 C 
ATOM      8  N   UNL     1      47.303   6.858  19.634  0.00  0.00    +0.000 NA
ATOM      9  C   UNL     1      47.958   5.863  19.011  0.00  0.00    +0.000 A 
ATOM     10  N   UNL     1      47.149   4.996  18.266  0.00  0.00    +0.000 N 
ATOM     11  N   UNL     1      49.278   5.675  19.096  0.00  0.00    +0.000 NA
ATOM     12  H   UNL     1      46.254   5.465  18.176  0.00  0.00    +0.000 HD
BRANCH   4  14
ATOM     13  C   UNL     1      51.683   5.090  20.481  0.00  0.00    +0.000 C 
ATOM     14  O   UNL     1      51.323   6.389  20.023  0.00  0.00    +0.000 OA
ENDBRANCH   4  14
ENDBRANCH   1  10
BRANCH   1  15
ATOM     15  C   UNL     1      47.573   5.040  15.782  0.00  0.00    +0.000 A 
ATOM     16  C   UNL     1      48.455   6.091  15.502  0.00  0.00    +0.000 A 
ATOM     17  C   UNL     1      48.473   6.699  14.251  0.00  0.00    +0.000 A 
ATOM     18  C   UNL     1      47.611   6.256  13.249  0.00  0.00    +0.000 A 
ATOM     19  C   UNL     1      46.678   5.238  13.486  0.00  0.00    +0.000 A 
ATOM     20  C   UNL     1      46.661   4.668  14.774  0.00  0.00    +0.000 A 
BRANCH  19  21
ATOM     21  C   UNL     1      45.787   4.633  12.401  0.00  0.00    +0.000 C 
ATOM     22  C   UNL     1      45.569   5.496  11.145  0.00  0.00    +0.000 C 
ATOM     23  C   UNL     1      44.541   6.607  11.368  0.00  0.00    +0.000 C 
ATOM     24  N   UNL     1      43.258   6.081  11.838  0.00  0.00    +0.000 NA
ATOM     25  C   UNL     1      43.425   5.312  13.071  0.00  0.00    +0.000 C 
ATOM     26  C   UNL     1      44.410   4.158  12.908  0.00  0.00    +0.000 C 
ATOM     27  H   UNL     1      42.863   5.478  11.118  0.00  0.00    +0.000 HD
ENDBRANCH  19  21
ENDBRANCH   1  15
TORSDOF 4
ENDMDL
MODEL 6
REMARK VINA RESULT:    -5.223      2.393      6.136
REMARK INTER + INTRA:          -7.311
REMARK INTER:                  -6.502
REMARK INTRA:                  -0.809
REMARK UNBOUND:                -0.866
REMARK  Name = 
REMARK  6 active torsions:
REMARK  status: ('A' for Active; 'I' for Inactive)
REMARK    1  A    between atoms: C_1  and  O_2
REMARK    2  A    between atoms: O_2  and  C_3
REMARK    3  A    between atoms: C_5  and  C_6
REMARK    4  A    between atoms: N_9  and  C_10
REMARK    5  A    between atoms: C_10  and  C_11
REMARK    6  A    between atoms: C_15  and  C_16
REMARK                            x       y       z     vdW  Elec       q    Type
REMARK                         _______ _______ _______ _____ _____    ______ ____
ROOT
ATOM      1  C   UNL     1      48.450   9.091  16.125  0.00  0.00    +0.000 C 
ATOM      2  C   UNL     1      48.085   9.966  17.319  0.00  0.00    +0.000 C 
ATOM      3  C   UNL     1      49.115  10.439  16.349  0.00  0.00    +0.000 C 
ENDROOT
BRANCH   1  10
ATOM      4  C   UNL     1      49.032   7.988  12.060  0.00  0.00    +0.000 A 
ATOM      5  C   UNL     1      48.038   7.340  11.371  0.00  0.00    +0.000 A 
ATOM      6  C   UNL     1      46.843   7.213  12.036  0.00  0.00    +0.000 A 
ATOM      7  C   UNL     1      45.701   6.451  11.437  0.00  0.00    +0.000 C 
ATOM      8  N   UNL     1      46.652   7.719  13.272  0.00  0.00    +0.000 NA
ATOM      9  C   UNL     1      47.680   8.361  13.855  0.00  0.00    +0.000 A 
ATOM     10  N   UNL     1      47.401   8.907  15.115  0.00  0.00    +0.000 N 
ATOM     11  N   UNL     1      48.883   8.504  13.291  0.00  0.00    +0.000 NA
ATOM     12  H   UNL     1      46.529   8.483  15.411  0.00  0.00    +0.000 HD
BRANCH   4  14
ATOM     13  C   UNL     1      51.259   8.642  12.254  0.00  0.00    +0.000 C 
ATOM     14  O   UNL     1      50.244   8.112  11.409  0.00  0.00    +0.000 OA
ENDBRANCH   4  14
ENDBRANCH   1  10
BRANCH   1  15
ATOM     15  C   UNL     1      49.307   7.857  16.387  0.00  0.00    +0.000 A 
ATOM     16  C   UNL     1      50.705   7.930  16.332  0.00  0.00    +0.000 A 
ATOM     17  C   UNL     1      51.495   6.849  16.710  0.00  0.00    +0.000 A 
ATOM     18  C   UNL     1      50.897   5.674  17.163  0.00  0.00    +0.000 A 
ATOM     19  C   UNL     1      49.504   5.529  17.196  0.00  0.00    +0.000 A 
ATOM     20  C   UNL     1      48.733   6.629  16.774  0.00  0.00    +0.000 A 
BRANCH  19  21
ATOM     21  C   UNL     1      48.792   4.312  17.787  0.00  0.00    +0.000 C 
ATOM     22  C   UNL     1      49.674   3.086  18.079  0.00  0.00    +0.000 C 
ATOM     23  C   UNL     1      49.998   2.283  16.817  0.00  0.00    +0.000 C 
ATOM     24  N   UNL     1      48.788   1.866  16.106  0.00  0.00    +0.000 NA
ATOM     25  C   UNL     1      47.961   3.020  15.754  0.00  0.00    +0.000 C 
ATOM     26  C   UNL     1      47.565   3.846  16.975  0.00  0.00    +0.000 C 
ATOM     27  H   UNL     1      48.251   1.239  16.703  0.00  0.00    +0.000 HD
ENDBRANCH  19  21
ENDBRANCH   1  15
TORSDOF 4
ENDMDL
MODEL 7
REMARK VINA RESULT:    -5.118      2.237      3.668
REMARK INTER + INTRA:          -7.181
REMARK INTER:                  -7.532
REMARK INTRA:                   0.351
REMARK UNBOUND:                -0.866
REMARK  Name = 
REMARK  6 active torsions:
REMARK  status: ('A' for Active; 'I' for Inactive)
REMARK    1  A    between atoms: C_1  and  O_2
REMARK    2  A    between atoms: O_2  and  C_3
REMARK    3  A    between atoms: C_5  and  C_6
REMARK    4  A    between atoms: N_9  and  C_10
REMARK    5  A    between atoms: C_10  and  C_11
REMARK    6  A    between atoms: C_15  and  C_16
REMARK                            x       y       z     vdW  Elec       q    Type
REMARK                         _______ _______ _______ _____ _____    ______ ____
ROOT
ATOM      1  C   UNL     1      49.782   7.647  15.510  0.00  0.00    +0.000 C 
ATOM      2  C   UNL     1      51.212   7.122  15.557  0.00  0.00    +0.000 C 
ATOM      3  C   UNL     1      50.969   8.593  15.575  0.00  0.00    +0.000 C 
ENDROOT
BRANCH   1  10
ATOM      4  C   UNL     1      49.165   3.846  17.312  0.00  0.00    +0.000 A 
ATOM      5  C   UNL     1      48.845   3.756  18.644  0.00  0.00    +0.000 A 
ATOM      6  C   UNL     1      48.614   4.952  19.278  0.00  0.00    +0.000 A 
ATOM      7  C   UNL     1      48.343   5.007  20.750  0.00  0.00    +0.000 C 
ATOM      8  N   UNL     1      48.667   6.133  18.626  0.00  0.00    +0.000 NA
ATOM      9  C   UNL     1      48.963   6.115  17.315  0.00  0.00    +0.000 A 
ATOM     10  N   UNL     1      48.952   7.368  16.688  0.00  0.00    +0.000 N 
ATOM     11  N   UNL     1      49.229   5.000  16.628  0.00  0.00    +0.000 NA
ATOM     12  H   UNL     1      48.949   8.050  17.437  0.00  0.00    +0.000 HD
BRANCH   4  14
ATOM     13  C   UNL     1      50.612   2.032  17.114  0.00  0.00    +0.000 C 
ATOM     14  O   UNL     1      49.413   2.652  16.663  0.00  0.00    +0.000 OA
ENDBRANCH   4  14
ENDBRANCH   1  10
BRANCH   1  15
ATOM     15  C   UNL     1      49.044   7.571  14.177  0.00  0.00    +0.000 A 
ATOM     16  C   UNL     1      49.726   7.758  12.968  0.00  0.00    +0.000 A 
ATOM     17  C   UNL     1      49.094   7.548  11.747  0.00  0.00    +0.000 A 
ATOM     18  C   UNL     1      47.762   7.135  11.714  0.00  0.00    +0.000 A 
ATOM     19  C   UNL     1      47.019   6.976  12.891  0.00  0.00    +0.000 A 
ATOM     20  C   UNL     1      47.678   7.230  14.109  0.00  0.00    +0.000 A 
BRANCH  19  21
ATOM     21  C   UNL     1      45.595   6.419  12.925  0.00  0.00    +0.000 C 
ATOM     22  C   UNL     1      45.427   5.028  13.563  0.00  0.00    +0.000 C 
ATOM     23  C   UNL     1      45.846   3.897  12.620  0.00  0.00    +0.000 C 
ATOM     24  N   UNL     1      45.126   3.950  11.346  0.00  0.00    +0.000 NA
ATOM     25  C   UNL     1      45.324   5.239  10.684  0.00  0.00    +0.000 C 
ATOM     26  C   UNL     1      44.887   6.414  11.554  0.00  0.00    +0.000 C 
ATOM     27  H   UNL     1      44.132   3.812  11.521  0.00  0.00    +0.000 HD
ENDBRANCH  19  21
ENDBRANCH   1  15
TORSDOF 4
ENDMDL
MODEL 8
REMARK VINA RESULT:    -5.067      2.605      4.331
REMARK INTER + INTRA:          -7.118
REMARK INTER:                  -7.368
REMARK INTRA:                   0.250
REMARK UNBOUND:                -0.866
REMARK  Name = 
REMARK  6 active torsions:
REMARK  status: ('A' for Active; 'I' for Inactive)
REMARK    1  A    between atoms: C_1  and  O_2
REMARK    2  A    between atoms: O_2  and  C_3
REMARK    3  A    between atoms: C_5  and  C_6
REMARK    4  A    between atoms: N_9  and  C_10
REMARK    5  A    between atoms: C_10  and  C_11
REMARK    6  A    between atoms: C_15  and  C_16
REMARK                            x       y       z     vdW  Elec       q    Type
REMARK                         _______ _______ _______ _____ _____    ______ ____
ROOT
ATOM      1  C   UNL     1      47.760   4.555  16.469  0.00  0.00    +0.000 C 
ATOM      2  C   UNL     1      47.055   3.357  17.096  0.00  0.00    +0.000 C 
ATOM      3  C   UNL     1      48.434   3.197  16.551  0.00  0.00    +0.000 C 
ENDROOT
BRANCH   1  10
ATOM      4  C   UNL     1      51.671   6.035  17.238  0.00  0.00    +0.000 A 
ATOM      5  C   UNL     1      51.851   7.330  17.652  0.00  0.00    +0.000 A 
ATOM      6  C   UNL     1      50.700   8.030  17.921  0.00  0.00    +0.000 A 
ATOM      7  C   UNL     1      50.746   9.479  18.297  0.00  0.00    +0.000 C 
ATOM      8  N   UNL     1      49.477   7.469  17.814  0.00  0.00    +0.000 NA
ATOM      9  C   UNL     1      49.406   6.184  17.425  0.00  0.00    +0.000 A 
ATOM     10  N   UNL     1      48.112   5.648  17.383  0.00  0.00    +0.000 N 
ATOM     11  N   UNL     1      50.473   5.441  17.117  0.00  0.00    +0.000 NA
ATOM     12  H   UNL     1      47.484   6.442  17.436  0.00  0.00    +0.000 HD
BRANCH   4  14
ATOM     13  C   UNL     1      53.775   6.102  16.241  0.00  0.00    +0.000 C 
ATOM     14  O   UNL     1      52.819   5.322  16.951  0.00  0.00    +0.000 OA
ENDBRANCH   4  14
ENDBRANCH   1  10
BRANCH   1  15
ATOM     15  C   UNL     1      47.297   5.005  15.086  0.00  0.00    +0.000 A 
ATOM     16  C   UNL     1      48.006   5.983  14.377  0.00  0.00    +0.000 A 
ATOM     17  C   UNL     1      47.678   6.294  13.061  0.00  0.00    +0.000 A 
ATOM     18  C   UNL     1      46.636   5.620  12.425  0.00  0.00    +0.000 A 
ATOM     19  C   UNL     1      45.866   4.664  13.101  0.00  0.00    +0.000 A 
ATOM     20  C   UNL     1      46.201   4.398  14.442  0.00  0.00    +0.000 A 
BRANCH  19  21
ATOM     21  C   UNL     1      44.788   3.814  12.427  0.00  0.00    +0.000 C 
ATOM     22  C   UNL     1      44.986   3.533  10.927  0.00  0.00    +0.000 C 
ATOM     23  C   UNL     1      44.592   4.724  10.051  0.00  0.00    +0.000 C 
ATOM     24  N   UNL     1      43.215   5.155  10.298  0.00  0.00    +0.000 NA
ATOM     25  C   UNL     1      43.015   5.496  11.706  0.00  0.00    +0.000 C 
ATOM     26  C   UNL     1      43.351   4.335  12.638  0.00  0.00    +0.000 C 
ATOM     27  H   UNL     1      42.580   4.401  10.042  0.00  0.00    +0.000 HD
ENDBRANCH  19  21
ENDBRANCH   1  15
TORSDOF 4
ENDMDL
MODEL 9
REMARK VINA RESULT:    -5.060      2.418      5.976
REMARK INTER + INTRA:          -7.110
REMARK INTER:                  -6.101
REMARK INTRA:                  -1.008
REMARK UNBOUND:                -0.866
REMARK  Name = 
REMARK  6 active torsions:
REMARK  status: ('A' for Active; 'I' for Inactive)
REMARK    1  A    between atoms: C_1  and  O_2
REMARK    2  A    between atoms: O_2  and  C_3
REMARK    3  A    between atoms: C_5  and  C_6
REMARK    4  A    between atoms: N_9  and  C_10
REMARK    5  A    between atoms: C_10  and  C_11
REMARK    6  A    between atoms: C_15  and  C_16
REMARK                            x       y       z     vdW  Elec       q    Type
REMARK                         _______ _______ _______ _____ _____    ______ ____
ROOT
ATOM      1  C   UNL     1      50.191   8.785  14.642  0.00  0.00    +0.000 C 
ATOM      2  C   UNL     1      51.495   9.557  14.471  0.00  0.00    +0.000 C 
ATOM      3  C   UNL     1      51.529   8.069  14.563  0.00  0.00    +0.000 C 
ENDROOT
BRANCH   1  10
ATOM      4  C   UNL     1      47.544   5.679  13.452  0.00  0.00    +0.000 A 
ATOM      5  C   UNL     1      46.395   5.976  12.762  0.00  0.00    +0.000 A 
ATOM      6  C   UNL     1      46.255   7.290  12.385  0.00  0.00    +0.000 A 
ATOM      7  C   UNL     1      45.011   7.770  11.704  0.00  0.00    +0.000 C 
ATOM      8  N   UNL     1      47.200   8.216  12.648  0.00  0.00    +0.000 NA
ATOM      9  C   UNL     1      48.303   7.822  13.308  0.00  0.00    +0.000 A 
ATOM     10  N   UNL     1      49.266   8.820  13.504  0.00  0.00    +0.000 N 
ATOM     11  N   UNL     1      48.505   6.572  13.735  0.00  0.00    +0.000 NA
ATOM     12  H   UNL     1      48.798   9.696  13.301  0.00  0.00    +0.000 HD
BRANCH   4  14
ATOM     13  C   UNL     1      46.605   3.546  13.428  0.00  0.00    +0.000 C 
ATOM     14  O   UNL     1      47.692   4.364  13.849  0.00  0.00    +0.000 OA
ENDBRANCH   4  14
ENDBRANCH   1  10
BRANCH   1  15
ATOM     15  C   UNL     1      49.519   8.824  16.012  0.00  0.00    +0.000 A 
ATOM     16  C   UNL     1      48.678   9.886  16.367  0.00  0.00    +0.000 A 
ATOM     17  C   UNL     1      47.949   9.860  17.551  0.00  0.00    +0.000 A 
ATOM     18  C   UNL     1      48.043   8.758  18.401  0.00  0.00    +0.000 A 
ATOM     19  C   UNL     1      48.902   7.688  18.118  0.00  0.00    +0.000 A 
ATOM     20  C   UNL     1      49.651   7.763  16.928  0.00  0.00    +0.000 A 
BRANCH  19  21
ATOM     21  C   UNL     1      48.963   6.407  18.950  0.00  0.00    +0.000 C 
ATOM     22  C   UNL     1      49.351   5.125  18.192  0.00  0.00    +0.000 C 
ATOM     23  C   UNL     1      48.186   4.545  17.386  0.00  0.00    +0.000 C 
ATOM     24  N   UNL     1      47.013   4.291  18.224  0.00  0.00    +0.000 NA
ATOM     25  C   UNL     1      46.579   5.510  18.905  0.00  0.00    +0.000 C 
ATOM     26  C   UNL     1      47.684   6.122  19.763  0.00  0.00    +0.000 C 
ATOM     27  H   UNL     1      47.248   3.584  18.919  0.00  0.00    +0.000 HD
ENDBRANCH  19  21
ENDBRANCH   1  15
TORSDOF 4
ENDMDL
