MODEL 1
REMARK VINA RESULT:    -7.768      0.000      0.000
REMARK INTER + INTRA:         -10.654
REMARK INTER:                 -10.039
REMARK INTRA:                  -0.615
REMARK UNBOUND:                -0.615
REMARK  Name = 
REMARK  5 active torsions:
REMARK  status: ('A' for Active; 'I' for Inactive)
REMARK    1  A    between atoms: C_2  and  C_4
REMARK    2  A    between atoms: C_8  and  O_9
REMARK    3  A    between atoms: O_9  and  C_10
REMARK    4  A    between atoms: C_10  and  C_11
REMARK    5  A    between atoms: C_16  and  C_17
REMARK                            x       y       z     vdW  Elec       q    Type
REMARK                         _______ _______ _______ _____ _____    ______ ____
ROOT
ATOM      1  C   UNL     1      45.203   5.056  11.653  0.00  0.00    +0.000 A 
ATOM      2  C   UNL     1      45.587   4.002  12.485  0.00  0.00    +0.000 A 
ATOM      3  C   UNL     1      46.592   4.200  13.418  0.00  0.00    +0.000 A 
ATOM      4  F   UNL     1      46.937   3.199  14.240  0.00  0.00    +0.000 F 
ATOM      5  C   UNL     1      47.235   5.430  13.540  0.00  0.00    +0.000 A 
ATOM      6  C   UNL     1      46.907   6.499  12.696  0.00  0.00    +0.000 A 
ATOM      7  C   UNL     1      45.880   6.287  11.753  0.00  0.00    +0.000 A 
ENDROOT
BRANCH   6   8
ATOM      8  C   UNL     1      47.552   7.882  12.792  0.00  0.00    +0.000 C 
ATOM      9  C   UNL     1      48.533   8.175  11.643  0.00  0.00    +0.000 C 
ATOM     10  C   UNL     1      49.870   7.463  11.839  0.00  0.00    +0.000 C 
ATOM     11  N   UNL     1      50.508   7.818  13.108  0.00  0.00    +0.000 NA
ATOM     12  C   UNL     1      49.634   7.561  14.252  0.00  0.00    +0.000 C 
ATOM     13  C   UNL     1      48.260   8.224  14.117  0.00  0.00    +0.000 C 
ATOM     14  H   UNL     1      50.766   8.801  13.094  0.00  0.00    +0.000 HD
ENDBRANCH   6   8
BRANCH   1  15
ATOM     15  C   UNL     1      44.053   4.889  10.690  0.00  0.00    +0.000 C 
BRANCH  15  16
ATOM     16  O   UNL     1      44.530   4.928   9.344  0.00  0.00    +0.000 OA
BRANCH  16  21
ATOM     17  C   UNL     1      46.484   2.458   7.547  0.00  0.00    +0.000 A 
ATOM     18  C   UNL     1      45.934   1.280   8.053  0.00  0.00    +0.000 A 
ATOM     19  C   UNL     1      44.926   1.392   8.989  0.00  0.00    +0.000 A 
ATOM     20  N   UNL     1      44.446   2.571   9.428  0.00  0.00    +0.000 NA
ATOM     21  C   UNL     1      45.008   3.698   8.934  0.00  0.00    +0.000 A 
ATOM     22  C   UNL     1      46.033   3.696   8.010  0.00  0.00    +0.000 A 
BRANCH  17  24
ATOM     23  N   UNL     1      47.409   3.260   5.448  0.00  0.00    +0.000 N 
ATOM     24  C   UNL     1      47.551   2.430   6.524  0.00  0.00    +0.000 C 
ATOM     25  O   UNL     1      48.541   1.715   6.647  0.00  0.00    +0.000 OA
ATOM     26  H   UNL     1      48.198   3.310   4.815  0.00  0.00    +0.000 HD
ATOM     27  H   UNL     1      46.758   4.032   5.439  0.00  0.00    +0.000 HD
ENDBRANCH  17  24
ENDBRANCH  16  21
ENDBRANCH  15  16
ENDBRANCH   1  15
TORSDOF 5
ENDMDL
MODEL 2
REMARK VINA RESULT:    -7.727      4.454      8.145
REMARK INTER + INTRA:         -10.602
REMARK INTER:                 -10.285
REMARK INTRA:                  -0.317
REMARK UNBOUND:                -0.615
REMARK  Name = 
REMARK  5 active torsions:
REMARK  status: ('A' for Active; 'I' for Inactive)
REMARK    1  A    between atoms: C_2  and  C_4
REMARK    2  A    between atoms: C_8  and  O_9
REMARK    3  A    between atoms: O_9  and  C_10
REMARK    4  A    between atoms: C_10  and  C_11
REMARK    5  A    between atoms: C_16  and  C_17
REMARK                            x       y       z     vdW  Elec       q    Type
REMARK                         _______ _______ _______ _____ _____    ______ ____
ROOT
ATOM      1  C   UNL     1      46.633   4.996  13.624  0.00  0.00    +0.000 A 
ATOM      2  C   UNL     1      47.563   5.970  13.253  0.00  0.00    +0.000 A 
ATOM      3  C   UNL     1      47.416   6.627  12.042  0.00  0.00    +0.000 A 
ATOM      4  F   UNL     1      48.288   7.586  11.701  0.00  0.00    +0.000 F 
ATOM      5  C   UNL     1      46.362   6.330  11.180  0.00  0.00    +0.000 A 
ATOM      6  C   UNL     1      45.433   5.331  11.498  0.00  0.00    +0.000 A 
ATOM      7  C   UNL     1      45.590   4.673  12.735  0.00  0.00    +0.000 A 
ENDROOT
BRANCH   6   8
ATOM      8  C   UNL     1      44.239   4.974  10.613  0.00  0.00    +0.000 C 
ATOM      9  C   UNL     1      43.112   4.255  11.376  0.00  0.00    +0.000 C 
ATOM     10  C   UNL     1      43.444   2.787  11.637  0.00  0.00    +0.000 C 
ATOM     11  N   UNL     1      43.722   2.053  10.401  0.00  0.00    +0.000 NA
ATOM     12  C   UNL     1      44.791   2.675   9.621  0.00  0.00    +0.000 C 
ATOM     13  C   UNL     1      44.540   4.160   9.339  0.00  0.00    +0.000 C 
ATOM     14  H   UNL     1      42.877   2.006   9.838  0.00  0.00    +0.000 HD
ENDBRANCH   6   8
BRANCH   1  15
ATOM     15  C   UNL     1      46.723   4.330  14.976  0.00  0.00    +0.000 C 
BRANCH  15  16
ATOM     16  O   UNL     1      47.480   3.123  14.879  0.00  0.00    +0.000 OA
BRANCH  16  21
ATOM     17  C   UNL     1      48.954   3.631  18.153  0.00  0.00    +0.000 A 
ATOM     18  C   UNL     1      49.967   2.673  18.129  0.00  0.00    +0.000 A 
ATOM     19  C   UNL     1      50.089   1.897  16.995  0.00  0.00    +0.000 A 
ATOM     20  N   UNL     1      49.292   2.022  15.917  0.00  0.00    +0.000 NA
ATOM     21  C   UNL     1      48.307   2.948  15.972  0.00  0.00    +0.000 A 
ATOM     22  C   UNL     1      48.087   3.761  17.066  0.00  0.00    +0.000 A 
BRANCH  17  24
ATOM     23  N   UNL     1      48.607   3.929  20.540  0.00  0.00    +0.000 N 
ATOM     24  C   UNL     1      48.767   4.522  19.319  0.00  0.00    +0.000 C 
ATOM     25  O   UNL     1      48.787   5.743  19.205  0.00  0.00    +0.000 OA
ATOM     26  H   UNL     1      48.592   4.551  21.339  0.00  0.00    +0.000 HD
ATOM     27  H   UNL     1      48.840   2.961  20.709  0.00  0.00    +0.000 HD
ENDBRANCH  17  24
ENDBRANCH  16  21
ENDBRANCH  15  16
ENDBRANCH   1  15
TORSDOF 5
ENDMDL
MODEL 3
REMARK VINA RESULT:    -7.039      4.104      7.876
REMARK INTER + INTRA:          -9.713
REMARK INTER:                  -9.092
REMARK INTRA:                  -0.621
REMARK UNBOUND:                -0.615
REMARK  Name = 
REMARK  5 active torsions:
REMARK  status: ('A' for Active; 'I' for Inactive)
REMARK    1  A    between atoms: C_2  and  C_4
REMARK    2  A    between atoms: C_8  and  O_9
REMARK    3  A    between atoms: O_9  and  C_10
REMARK    4  A    between atoms: C_10  and  C_11
REMARK    5  A    between atoms: C_16  and  C_17
REMARK                            x       y       z     vdW  Elec       q    Type
REMARK                         _______ _______ _______ _____ _____    ______ ____
ROOT
ATOM      1  C   UNL     1      47.197   7.158  12.863  0.00  0.00    +0.000 A 
ATOM      2  C   UNL     1      46.779   8.490  12.873  0.00  0.00    +0.000 A 
ATOM      3  C   UNL     1      45.574   8.832  12.280  0.00  0.00    +0.000 A 
ATOM      4  F   UNL     1      45.156  10.104  12.321  0.00  0.00    +0.000 F 
ATOM      5  C   UNL     1      44.772   7.873  11.665  0.00  0.00    +0.000 A 
ATOM      6  C   UNL     1      45.177   6.533  11.598  0.00  0.00    +0.000 A 
ATOM      7  C   UNL     1      46.402   6.196  12.209  0.00  0.00    +0.000 A 
ENDROOT
BRANCH   6   8
ATOM      8  C   UNL     1      44.335   5.426  10.963  0.00  0.00    +0.000 C 
ATOM      9  C   UNL     1      42.984   5.211  11.671  0.00  0.00    +0.000 C 
ATOM     10  C   UNL     1      43.142   4.436  12.977  0.00  0.00    +0.000 C 
ATOM     11  N   UNL     1      43.785   3.136  12.778  0.00  0.00    +0.000 NA
ATOM     12  C   UNL     1      45.081   3.260  12.114  0.00  0.00    +0.000 C 
ATOM     13  C   UNL     1      45.009   4.050  10.802  0.00  0.00    +0.000 C 
ATOM     14  H   UNL     1      43.177   2.539  12.224  0.00  0.00    +0.000 HD
ENDBRANCH   6   8
BRANCH   1  15
ATOM     15  C   UNL     1      48.462   6.748  13.578  0.00  0.00    +0.000 C 
BRANCH  15  16
ATOM     16  O   UNL     1      48.448   7.235  14.920  0.00  0.00    +0.000 OA
BRANCH  16  21
ATOM     17  C   UNL     1      48.649   4.465  17.251  0.00  0.00    +0.000 A 
ATOM     18  C   UNL     1      49.997   4.524  17.604  0.00  0.00    +0.000 A 
ATOM     19  C   UNL     1      50.770   5.507  17.020  0.00  0.00    +0.000 A 
ATOM     20  N   UNL     1      50.291   6.407  16.140  0.00  0.00    +0.000 NA
ATOM     21  C   UNL     1      48.983   6.317  15.803  0.00  0.00    +0.000 A 
ATOM     22  C   UNL     1      48.130   5.361  16.315  0.00  0.00    +0.000 A 
BRANCH  17  24
ATOM     23  N   UNL     1      48.161   2.841  18.993  0.00  0.00    +0.000 N 
ATOM     24  C   UNL     1      47.743   3.459  17.848  0.00  0.00    +0.000 C 
ATOM     25  O   UNL     1      46.647   3.209  17.357  0.00  0.00    +0.000 OA
ATOM     26  H   UNL     1      47.485   2.240  19.448  0.00  0.00    +0.000 HD
ATOM     27  H   UNL     1      48.919   3.198  19.557  0.00  0.00    +0.000 HD
ENDBRANCH  17  24
ENDBRANCH  16  21
ENDBRANCH  15  16
ENDBRANCH   1  15
TORSDOF 5
ENDMDL
MODEL 4
REMARK VINA RESULT:    -6.951      4.286      7.971
REMARK INTER + INTRA:          -9.598
REMARK INTER:                  -9.346
REMARK INTRA:                  -0.251
REMARK UNBOUND:                -0.615
REMARK  Name = 
REMARK  5 active torsions:
REMARK  status: ('A' for Active; 'I' for Inactive)
REMARK    1  A    between atoms: C_2  and  C_4
REMARK    2  A    between atoms: C_8  and  O_9
REMARK    3  A    between atoms: O_9  and  C_10
REMARK    4  A    between atoms: C_10  and  C_11
REMARK    5  A    between atoms: C_16  and  C_17
REMARK                            x       y       z     vdW  Elec       q    Type
REMARK                         _______ _______ _______ _____ _____    ______ ____
ROOT
ATOM      1  C   UNL     1      46.859   4.789  13.544  0.00  0.00    +0.000 A 
ATOM      2  C   UNL     1      47.635   5.923  13.291  0.00  0.00    +0.000 A 
ATOM      3  C   UNL     1      47.290   6.767  12.247  0.00  0.00    +0.000 A 
ATOM      4  F   UNL     1      48.014   7.873  12.027  0.00  0.00    +0.000 F 
ATOM      5  C   UNL     1      46.187   6.504  11.438  0.00  0.00    +0.000 A 
ATOM      6  C   UNL     1      45.409   5.356  11.633  0.00  0.00    +0.000 A 
ATOM      7  C   UNL     1      45.766   4.507  12.701  0.00  0.00    +0.000 A 
ENDROOT
BRANCH   6   8
ATOM      8  C   UNL     1      44.171   5.021  10.802  0.00  0.00    +0.000 C 
ATOM      9  C   UNL     1      43.066   4.319  11.613  0.00  0.00    +0.000 C 
ATOM     10  C   UNL     1      43.385   2.845  11.855  0.00  0.00    +0.000 C 
ATOM     11  N   UNL     1      43.596   2.110  10.606  0.00  0.00    +0.000 NA
ATOM     12  C   UNL     1      44.639   2.717   9.781  0.00  0.00    +0.000 C 
ATOM     13  C   UNL     1      44.402   4.207   9.514  0.00  0.00    +0.000 C 
ATOM     14  H   UNL     1      42.726   2.079  10.081  0.00  0.00    +0.000 HD
ENDBRANCH   6   8
BRANCH   1  15
ATOM     15  C   UNL     1      47.164   3.903  14.727  0.00  0.00    +0.000 C 
BRANCH  15  16
ATOM     16  O   UNL     1      46.867   4.589  15.944  0.00  0.00    +0.000 OA
BRANCH  16  21
ATOM     17  C   UNL     1      49.860   3.380  17.596  0.00  0.00    +0.000 A 
ATOM     18  C   UNL     1      49.966   4.299  18.639  0.00  0.00    +0.000 A 
ATOM     19  C   UNL     1      49.010   5.291  18.719  0.00  0.00    +0.000 A 
ATOM     20  N   UNL     1      47.985   5.410  17.854  0.00  0.00    +0.000 NA
ATOM     21  C   UNL     1      47.915   4.514  16.842  0.00  0.00    +0.000 A 
ATOM     22  C   UNL     1      48.831   3.497  16.661  0.00  0.00    +0.000 A 
BRANCH  17  24
ATOM     23  N   UNL     1      51.960   2.322  18.214  0.00  0.00    +0.000 N 
ATOM     24  C   UNL     1      50.828   2.271  17.449  0.00  0.00    +0.000 C 
ATOM     25  O   UNL     1      50.614   1.325  16.698  0.00  0.00    +0.000 OA
ATOM     26  H   UNL     1      52.556   1.504  18.184  0.00  0.00    +0.000 HD
ATOM     27  H   UNL     1      52.048   2.932  19.014  0.00  0.00    +0.000 HD
ENDBRANCH  17  24
ENDBRANCH  16  21
ENDBRANCH  15  16
ENDBRANCH   1  15
TORSDOF 5
ENDMDL
MODEL 5
REMARK VINA RESULT:    -6.725      3.545      5.075
REMARK INTER + INTRA:          -9.306
REMARK INTER:                  -8.720
REMARK INTRA:                  -0.586
REMARK UNBOUND:                -0.615
REMARK  Name = 
REMARK  5 active torsions:
REMARK  status: ('A' for Active; 'I' for Inactive)
REMARK    1  A    between atoms: C_2  and  C_4
REMARK    2  A    between atoms: C_8  and  O_9
REMARK    3  A    between atoms: O_9  and  C_10
REMARK    4  A    between atoms: C_10  and  C_11
REMARK    5  A    between atoms: C_16  and  C_17
REMARK                            x       y       z     vdW  Elec       q    Type
REMARK                         _______ _______ _______ _____ _____    ______ ____
ROOT
ATOM      1  C   UNL     1      47.830   5.972  14.563  0.00  0.00    +0.000 A 
ATOM      2  C   UNL     1      48.451   7.223  14.564  0.00  0.00    +0.000 A 
ATOM      3  C   UNL     1      49.158   7.633  15.683  0.00  0.00    +0.000 A 
ATOM      4  F   UNL     1      49.783   8.818  15.671  0.00  0.00    +0.000 F 
ATOM      5  C   UNL     1      49.256   6.824  16.814  0.00  0.00    +0.000 A 
ATOM      6  C   UNL     1      48.613   5.581  16.867  0.00  0.00    +0.000 A 
ATOM      7  C   UNL     1      47.900   5.172  15.720  0.00  0.00    +0.000 A 
ENDROOT
BRANCH   6   8
ATOM      8  C   UNL     1      48.702   4.633  18.062  0.00  0.00    +0.000 C 
ATOM      9  C   UNL     1      50.080   4.648  18.747  0.00  0.00    +0.000 C 
ATOM     10  C   UNL     1      51.120   3.856  17.956  0.00  0.00    +0.000 C 
ATOM     11  N   UNL     1      50.713   2.466  17.741  0.00  0.00    +0.000 NA
ATOM     12  C   UNL     1      49.409   2.371  17.086  0.00  0.00    +0.000 C 
ATOM     13  C   UNL     1      48.315   3.162  17.810  0.00  0.00    +0.000 C 
ATOM     14  H   UNL     1      50.679   1.981  18.633  0.00  0.00    +0.000 HD
ENDBRANCH   6   8
BRANCH   1  15
ATOM     15  C   UNL     1      47.128   5.468  13.325  0.00  0.00    +0.000 C 
BRANCH  15  16
ATOM     16  O   UNL     1      45.719   5.410  13.548  0.00  0.00    +0.000 OA
BRANCH  16  21
ATOM     17  C   UNL     1      44.729   3.980  10.366  0.00  0.00    +0.000 A 
ATOM     18  C   UNL     1      43.813   3.018  10.791  0.00  0.00    +0.000 A 
ATOM     19  C   UNL     1      43.587   2.904  12.148  0.00  0.00    +0.000 A 
ATOM     20  N   UNL     1      44.194   3.672  13.072  0.00  0.00    +0.000 NA
ATOM     21  C   UNL     1      45.090   4.587  12.634  0.00  0.00    +0.000 A 
ATOM     22  C   UNL     1      45.402   4.768  11.301  0.00  0.00    +0.000 A 
BRANCH  17  24
ATOM     23  N   UNL     1      44.286   3.453   8.035  0.00  0.00    +0.000 N 
ATOM     24  C   UNL     1      45.013   4.187   8.929  0.00  0.00    +0.000 C 
ATOM     25  O   UNL     1      45.845   5.005   8.549  0.00  0.00    +0.000 OA
ATOM     26  H   UNL     1      44.413   3.686   7.058  0.00  0.00    +0.000 HD
ATOM     27  H   UNL     1      43.434   2.974   8.291  0.00  0.00    +0.000 HD
ENDBRANCH  17  24
ENDBRANCH  16  21
ENDBRANCH  15  16
ENDBRANCH   1  15
TORSDOF 5
ENDMDL
MODEL 6
REMARK VINA RESULT:    -6.631      4.873      8.189
REMARK INTER + INTRA:          -9.184
REMARK INTER:                  -8.453
REMARK INTRA:                  -0.732
REMARK UNBOUND:                -0.615
REMARK  Name = 
REMARK  5 active torsions:
REMARK  status: ('A' for Active; 'I' for Inactive)
REMARK    1  A    between atoms: C_2  and  C_4
REMARK    2  A    between atoms: C_8  and  O_9
REMARK    3  A    between atoms: O_9  and  C_10
REMARK    4  A    between atoms: C_10  and  C_11
REMARK    5  A    between atoms: C_16  and  C_17
REMARK                            x       y       z     vdW  Elec       q    Type
REMARK                         _______ _______ _______ _____ _____    ______ ____
ROOT
ATOM      1  C   UNL     1      47.277   4.944  14.756  0.00  0.00    +0.000 A 
ATOM      2  C   UNL     1      48.050   6.043  14.376  0.00  0.00    +0.000 A 
ATOM      3  C   UNL     1      47.833   6.637  13.143  0.00  0.00    +0.000 A 
ATOM      4  F   UNL     1      48.551   7.714  12.794  0.00  0.00    +0.000 F 
ATOM      5  C   UNL     1      46.864   6.154  12.267  0.00  0.00    +0.000 A 
ATOM      6  C   UNL     1      46.097   5.028  12.594  0.00  0.00    +0.000 A 
ATOM      7  C   UNL     1      46.322   4.435  13.853  0.00  0.00    +0.000 A 
ENDROOT
BRANCH   6   8
ATOM      8  C   UNL     1      44.999   4.462  11.694  0.00  0.00    +0.000 C 
ATOM      9  C   UNL     1      44.462   5.485  10.676  0.00  0.00    +0.000 C 
ATOM     10  C   UNL     1      43.509   6.488  11.323  0.00  0.00    +0.000 C 
ATOM     11  N   UNL     1      42.376   5.833  11.980  0.00  0.00    +0.000 NA
ATOM     12  C   UNL     1      42.808   4.847  12.969  0.00  0.00    +0.000 C 
ATOM     13  C   UNL     1      43.789   3.817  12.398  0.00  0.00    +0.000 C 
ATOM     14  H   UNL     1      41.796   5.378  11.280  0.00  0.00    +0.000 HD
ENDBRANCH   6   8
BRANCH   1  15
ATOM     15  C   UNL     1      47.435   4.335  16.128  0.00  0.00    +0.000 C 
BRANCH  15  16
ATOM     16  O   UNL     1      47.901   2.990  16.018  0.00  0.00    +0.000 OA
BRANCH  16  21
ATOM     17  C   UNL     1      50.823   3.695  18.046  0.00  0.00    +0.000 A 
ATOM     18  C   UNL     1      51.580   2.547  17.814  0.00  0.00    +0.000 A 
ATOM     19  C   UNL     1      51.047   1.586  16.979  0.00  0.00    +0.000 A 
ATOM     20  N   UNL     1      49.848   1.704  16.377  0.00  0.00    +0.000 NA
ATOM     21  C   UNL     1      49.127   2.820  16.632  0.00  0.00    +0.000 A 
ATOM     22  C   UNL     1      49.560   3.831  17.466  0.00  0.00    +0.000 A 
BRANCH  17  24
ATOM     23  N   UNL     1      51.003   6.066  18.555  0.00  0.00    +0.000 N 
ATOM     24  C   UNL     1      51.329   4.786  18.908  0.00  0.00    +0.000 C 
ATOM     25  O   UNL     1      51.987   4.555  19.918  0.00  0.00    +0.000 OA
ATOM     26  H   UNL     1      51.261   6.790  19.214  0.00  0.00    +0.000 HD
ATOM     27  H   UNL     1      50.266   6.277  17.898  0.00  0.00    +0.000 HD
ENDBRANCH  17  24
ENDBRANCH  16  21
ENDBRANCH  15  16
ENDBRANCH   1  15
TORSDOF 5
ENDMDL
MODEL 7
REMARK VINA RESULT:    -6.473      4.762      6.975
REMARK INTER + INTRA:          -8.981
REMARK INTER:                  -8.144
REMARK INTRA:                  -0.837
REMARK UNBOUND:                -0.615
REMARK  Name = 
REMARK  5 active torsions:
REMARK  status: ('A' for Active; 'I' for Inactive)
REMARK    1  A    between atoms: C_2  and  C_4
REMARK    2  A    between atoms: C_8  and  O_9
REMARK    3  A    between atoms: O_9  and  C_10
REMARK    4  A    between atoms: C_10  and  C_11
REMARK    5  A    between atoms: C_16  and  C_17
REMARK                            x       y       z     vdW  Elec       q    Type
REMARK                         _______ _______ _______ _____ _____    ______ ____
ROOT
ATOM      1  C   UNL     1      46.830   4.765  13.415  0.00  0.00    +0.000 A 
ATOM      2  C   UNL     1      45.713   4.782  12.576  0.00  0.00    +0.000 A 
ATOM      3  C   UNL     1      45.580   5.792  11.637  0.00  0.00    +0.000 A 
ATOM      4  F   UNL     1      44.526   5.788  10.809  0.00  0.00    +0.000 F 
ATOM      5  C   UNL     1      46.535   6.799  11.516  0.00  0.00    +0.000 A 
ATOM      6  C   UNL     1      47.648   6.840  12.367  0.00  0.00    +0.000 A 
ATOM      7  C   UNL     1      47.775   5.804  13.315  0.00  0.00    +0.000 A 
ENDROOT
BRANCH   6   8
ATOM      8  C   UNL     1      48.746   7.899  12.272  0.00  0.00    +0.000 C 
ATOM      9  C   UNL     1      49.408   8.209  13.627  0.00  0.00    +0.000 C 
ATOM     10  C   UNL     1      48.529   9.103  14.500  0.00  0.00    +0.000 C 
ATOM     11  N   UNL     1      48.189  10.364  13.839  0.00  0.00    +0.000 NA
ATOM     12  C   UNL     1      47.549  10.149  12.542  0.00  0.00    +0.000 C 
ATOM     13  C   UNL     1      48.362   9.239  11.615  0.00  0.00    +0.000 C 
ATOM     14  H   UNL     1      49.032  10.917  13.711  0.00  0.00    +0.000 HD
ENDBRANCH   6   8
BRANCH   1  15
ATOM     15  C   UNL     1      47.039   3.628  14.385  0.00  0.00    +0.000 C 
BRANCH  15  16
ATOM     16  O   UNL     1      46.444   3.941  15.645  0.00  0.00    +0.000 OA
BRANCH  16  21
ATOM     17  C   UNL     1      49.433   3.175  17.549  0.00  0.00    +0.000 A 
ATOM     18  C   UNL     1      49.226   3.966  18.679  0.00  0.00    +0.000 A 
ATOM     19  C   UNL     1      48.076   4.726  18.729  0.00  0.00    +0.000 A 
ATOM     20  N   UNL     1      47.148   4.737  17.753  0.00  0.00    +0.000 NA
ATOM     21  C   UNL     1      47.381   3.974  16.660  0.00  0.00    +0.000 A 
ATOM     22  C   UNL     1      48.508   3.193  16.504  0.00  0.00    +0.000 A 
BRANCH  17  24
ATOM     23  N   UNL     1      51.716   2.635  18.186  0.00  0.00    +0.000 N 
ATOM     24  C   UNL     1      50.628   2.311  17.425  0.00  0.00    +0.000 C 
ATOM     25  O   UNL     1      50.635   1.326  16.694  0.00  0.00    +0.000 OA
ATOM     26  H   UNL     1      52.481   1.972  18.174  0.00  0.00    +0.000 HD
ATOM     27  H   UNL     1      51.661   3.265  18.973  0.00  0.00    +0.000 HD
ENDBRANCH  17  24
ENDBRANCH  16  21
ENDBRANCH  15  16
ENDBRANCH   1  15
TORSDOF 5
ENDMDL
MODEL 8
REMARK VINA RESULT:    -6.349      4.062      7.933
REMARK INTER + INTRA:          -8.820
REMARK INTER:                  -8.319
REMARK INTRA:                  -0.502
REMARK UNBOUND:                -0.615
REMARK  Name = 
REMARK  5 active torsions:
REMARK  status: ('A' for Active; 'I' for Inactive)
REMARK    1  A    between atoms: C_2  and  C_4
REMARK    2  A    between atoms: C_8  and  O_9
REMARK    3  A    between atoms: O_9  and  C_10
REMARK    4  A    between atoms: C_10  and  C_11
REMARK    5  A    between atoms: C_16  and  C_17
REMARK                            x       y       z     vdW  Elec       q    Type
REMARK                         _______ _______ _______ _____ _____    ______ ____
ROOT
ATOM      1  C   UNL     1      46.889   7.076  12.918  0.00  0.00    +0.000 A 
ATOM      2  C   UNL     1      46.515   8.418  12.818  0.00  0.00    +0.000 A 
ATOM      3  C   UNL     1      45.357   8.755  12.135  0.00  0.00    +0.000 A 
ATOM      4  F   UNL     1      44.980  10.039  12.070  0.00  0.00    +0.000 F 
ATOM      5  C   UNL     1      44.560   7.781  11.537  0.00  0.00    +0.000 A 
ATOM      6  C   UNL     1      44.923   6.429  11.579  0.00  0.00    +0.000 A 
ATOM      7  C   UNL     1      46.101   6.097  12.281  0.00  0.00    +0.000 A 
ENDROOT
BRANCH   6   8
ATOM      8  C   UNL     1      44.082   5.308  10.969  0.00  0.00    +0.000 C 
ATOM      9  C   UNL     1      42.861   4.931  11.826  0.00  0.00    +0.000 C 
ATOM     10  C   UNL     1      43.251   4.075  13.030  0.00  0.00    +0.000 C 
ATOM     11  N   UNL     1      43.950   2.850  12.637  0.00  0.00    +0.000 NA
ATOM     12  C   UNL     1      45.131   3.130  11.821  0.00  0.00    +0.000 C 
ATOM     13  C   UNL     1      44.823   4.007  10.603  0.00  0.00    +0.000 C 
ATOM     14  H   UNL     1      43.316   2.249  12.118  0.00  0.00    +0.000 HD
ENDBRANCH   6   8
BRANCH   1  15
ATOM     15  C   UNL     1      48.097   6.677  13.729  0.00  0.00    +0.000 C 
BRANCH  15  16
ATOM     16  O   UNL     1      48.039   5.287  14.048  0.00  0.00    +0.000 OA
BRANCH  16  21
ATOM     17  C   UNL     1      48.427   5.732  17.626  0.00  0.00    +0.000 A 
ATOM     18  C   UNL     1      47.674   4.658  18.101  0.00  0.00    +0.000 A 
ATOM     19  C   UNL     1      47.066   3.840  17.170  0.00  0.00    +0.000 A 
ATOM     20  N   UNL     1      47.168   4.020  15.840  0.00  0.00    +0.000 NA
ATOM     21  C   UNL     1      47.891   5.078  15.406  0.00  0.00    +0.000 A 
ATOM     22  C   UNL     1      48.523   5.967  16.253  0.00  0.00    +0.000 A 
BRANCH  17  24
ATOM     23  N   UNL     1      50.488   6.749  18.417  0.00  0.00    +0.000 N 
ATOM     24  C   UNL     1      49.132   6.644  18.553  0.00  0.00    +0.000 C 
ATOM     25  O   UNL     1      48.526   7.305  19.390  0.00  0.00    +0.000 OA
ATOM     26  H   UNL     1      50.939   7.458  18.982  0.00  0.00    +0.000 HD
ATOM     27  H   UNL     1      50.978   6.431  17.593  0.00  0.00    +0.000 HD
ENDBRANCH  17  24
ENDBRANCH  16  21
ENDBRANCH  15  16
ENDBRANCH   1  15
TORSDOF 5
ENDMDL
MODEL 9
REMARK VINA RESULT:    -6.222      4.872      8.933
REMARK INTER + INTRA:          -8.656
REMARK INTER:                  -8.029
REMARK INTRA:                  -0.627
REMARK UNBOUND:                -0.615
REMARK  Name = 
REMARK  5 active torsions:
REMARK  status: ('A' for Active; 'I' for Inactive)
REMARK    1  A    between atoms: C_2  and  C_4
REMARK    2  A    between atoms: C_8  and  O_9
REMARK    3  A    between atoms: O_9  and  C_10
REMARK    4  A    between atoms: C_10  and  C_11
REMARK    5  A    between atoms: C_16  and  C_17
REMARK                            x       y       z     vdW  Elec       q    Type
REMARK                         _______ _______ _______ _____ _____    ______ ____
ROOT
ATOM      1  C   UNL     1      47.398   5.505  14.051  0.00  0.00    +0.000 A 
ATOM      2  C   UNL     1      48.032   6.573  13.413  0.00  0.00    +0.000 A 
ATOM      3  C   UNL     1      47.618   6.954  12.146  0.00  0.00    +0.000 A 
ATOM      4  F   UNL     1      48.202   8.001  11.548  0.00  0.00    +0.000 F 
ATOM      5  C   UNL     1      46.586   6.286  11.491  0.00  0.00    +0.000 A 
ATOM      6  C   UNL     1      45.954   5.184  12.081  0.00  0.00    +0.000 A 
ATOM      7  C   UNL     1      46.380   4.809  13.372  0.00  0.00    +0.000 A 
ENDROOT
BRANCH   6   8
ATOM      8  C   UNL     1      44.798   4.424  11.430  0.00  0.00    +0.000 C 
ATOM      9  C   UNL     1      43.937   5.304  10.506  0.00  0.00    +0.000 C 
ATOM     10  C   UNL     1      42.989   6.204  11.297  0.00  0.00    +0.000 C 
ATOM     11  N   UNL     1      42.107   5.442  12.182  0.00  0.00    +0.000 NA
ATOM     12  C   UNL     1      42.857   4.582  13.097  0.00  0.00    +0.000 C 
ATOM     13  C   UNL     1      43.850   3.663  12.378  0.00  0.00    +0.000 C 
ATOM     14  H   UNL     1      41.477   4.872  11.623  0.00  0.00    +0.000 HD
ENDBRANCH   6   8
BRANCH   1  15
ATOM     15  C   UNL     1      47.773   5.128  15.464  0.00  0.00    +0.000 C 
BRANCH  15  16
ATOM     16  O   UNL     1      48.950   5.830  15.864  0.00  0.00    +0.000 OA
BRANCH  16  21
ATOM     17  C   UNL     1      48.687   5.709  19.479  0.00  0.00    +0.000 A 
ATOM     18  C   UNL     1      48.648   7.071  19.779  0.00  0.00    +0.000 A 
ATOM     19  C   UNL     1      48.720   7.961  18.727  0.00  0.00    +0.000 A 
ATOM     20  N   UNL     1      48.818   7.585  17.438  0.00  0.00    +0.000 NA
ATOM     21  C   UNL     1      48.871   6.259  17.176  0.00  0.00    +0.000 A 
ATOM     22  C   UNL     1      48.825   5.287  18.155  0.00  0.00    +0.000 A 
BRANCH  17  24
ATOM     23  N   UNL     1      48.515   3.379  20.150  0.00  0.00    +0.000 N 
ATOM     24  C   UNL     1      48.591   4.686  20.543  0.00  0.00    +0.000 C 
ATOM     25  O   UNL     1      48.609   4.991  21.731  0.00  0.00    +0.000 OA
ATOM     26  H   UNL     1      48.562   2.688  20.889  0.00  0.00    +0.000 HD
ATOM     27  H   UNL     1      48.754   3.078  19.216  0.00  0.00    +0.000 HD
ENDBRANCH  17  24
ENDBRANCH  16  21
ENDBRANCH  15  16
ENDBRANCH   1  15
TORSDOF 5
ENDMDL
