MODEL 1
REMARK VINA RESULT:    -7.099      0.000      0.000
REMARK INTER + INTRA:         -11.219
REMARK INTER:                 -10.005
REMARK INTRA:                  -1.215
REMARK UNBOUND:                -1.215
REMARK  Name = 
REMARK  7 active torsions:
REMARK  status: ('A' for Active; 'I' for Inactive)
REMARK    1  A    between atoms: C_2  and  C_3
REMARK    2  A    between atoms: C_8  and  C_9
REMARK    3  A    between atoms: N_11  and  C_12
REMARK    4  A    between atoms: C_12  and  C_13
REMARK    5  A    between atoms: C_16  and  C_17
REMARK    6  A    between atoms: C_17  and  N_18
REMARK    7  A    between atoms: C_19  and  C_21
REMARK                            x       y       z     vdW  Elec       q    Type
REMARK                         _______ _______ _______ _____ _____    ______ ____
ROOT
ATOM      1  C   UNL     1      47.698   5.920  14.428  0.00  0.00    +0.000 A 
ATOM      2  C   UNL     1      47.097   4.654  14.437  0.00  0.00    +0.000 A 
ATOM      3  C   UNL     1      47.280   3.785  15.518  0.00  0.00    +0.000 A 
ATOM      4  C   UNL     1      48.053   4.172  16.621  0.00  0.00    +0.000 A 
ATOM      5  C   UNL     1      48.677   5.426  16.598  0.00  0.00    +0.000 A 
ATOM      6  C   UNL     1      48.493   6.295  15.519  0.00  0.00    +0.000 A 
ENDROOT
BRANCH   1   7
ATOM      7  C   UNL     1      47.503   6.856  13.268  0.00  0.00    +0.000 C 
BRANCH   7  10
ATOM      8  C   UNL     1      45.422   6.562  12.030  0.00  0.00    +0.000 C 
ATOM      9  O   UNL     1      44.840   7.304  12.819  0.00  0.00    +0.000 OA
ATOM     10  N   UNL     1      46.752   6.255  12.183  0.00  0.00    +0.000 N 
ATOM     11  H   UNL     1      47.220   5.595  11.572  0.00  0.00    +0.000 HD
BRANCH   8  17
ATOM     12  C   UNL     1      45.339   4.513  10.556  0.00  0.00    +0.000 C 
ATOM     13  C   UNL     1      44.969   3.464  11.621  0.00  0.00    +0.000 C 
ATOM     14  C   UNL     1      43.471   3.385  11.907  0.00  0.00    +0.000 C 
ATOM     15  C   UNL     1      42.838   4.751  12.155  0.00  0.00    +0.000 C 
ATOM     16  C   UNL     1      43.190   5.769  11.076  0.00  0.00    +0.000 C 
ATOM     17  C   UNL     1      44.706   5.894  10.849  0.00  0.00    +0.000 C 
BRANCH  12  19
ATOM     18  N   UNL     1      44.643   3.658   8.158  0.00  0.00    +0.000 NA
ATOM     19  C   UNL     1      44.946   4.043   9.212  0.00  0.00    +0.000 C 
ENDBRANCH  12  19
ENDBRANCH   8  17
ENDBRANCH   7  10
ENDBRANCH   1   7
BRANCH   4  20
ATOM     20  C   UNL     1      48.234   3.254  17.802  0.00  0.00    +0.000 C 
BRANCH  20  21
ATOM     21  N   UNL     1      49.626   2.972  18.046  0.00  0.00    +0.000 N 
ATOM     22  C   UNL     1      50.334   2.139  17.221  0.00  0.00    +0.000 C 
ATOM     23  O   UNL     1      49.833   1.636  16.218  0.00  0.00    +0.000 OA
ATOM     24  H   UNL     1      49.982   3.182  18.974  0.00  0.00    +0.000 HD
BRANCH  22  25
ATOM     25  C   UNL     1      51.748   1.927  17.558  0.00  0.00    +0.000 A 
ATOM     26  C   UNL     1      52.228   0.635  17.729  0.00  0.00    +0.000 A 
ATOM     27  S   UNL     1      53.900   0.564  18.058  0.00  0.00    +0.000 S 
ATOM     28  C   UNL     1      54.031   2.260  18.036  0.00  0.00    +0.000 A 
ATOM     29  N   UNL     1      55.223   2.873  18.273  0.00  0.00    +0.000 NA
ATOM     30  C   UNL     1      55.171   4.163  18.258  0.00  0.00    +0.000 A 
ATOM     31  N   UNL     1      54.037   4.897  18.023  0.00  0.00    +0.000 N 
ATOM     32  C   UNL     1      52.820   4.322  17.749  0.00  0.00    +0.000 A 
ATOM     33  O   UNL     1      51.834   5.007  17.499  0.00  0.00    +0.000 OA
ATOM     34  C   UNL     1      52.820   2.871  17.764  0.00  0.00    +0.000 A 
ATOM     35  H   UNL     1      54.067   5.906  18.018  0.00  0.00    +0.000 HD
ENDBRANCH  22  25
ENDBRANCH  20  21
ENDBRANCH   4  20
TORSDOF 7
ENDMDL
MODEL 2
REMARK VINA RESULT:    -6.904      3.395      9.334
REMARK INTER + INTRA:         -10.943
REMARK INTER:                  -9.592
REMARK INTRA:                  -1.351
REMARK UNBOUND:                -1.215
REMARK  Name = 
REMARK  7 active torsions:
REMARK  status: ('A' for Active; 'I' for Inactive)
REMARK    1  A    between atoms: C_2  and  C_3
REMARK    2  A    between atoms: C_8  and  C_9
REMARK    3  A    between atoms: N_11  and  C_12
REMARK    4  A    between atoms: C_12  and  C_13
REMARK    5  A    between atoms: C_16  and  C_17
REMARK    6  A    between atoms: C_17  and  N_18
REMARK    7  A    between atoms: C_19  and  C_21
REMARK                            x       y       z     vdW  Elec       q    Type
REMARK                         _______ _______ _______ _____ _____    ______ ____
ROOT
ATOM      1  C   UNL     1      50.075   8.088  15.327  0.00  0.00    +0.000 A 
ATOM      2  C   UNL     1      48.676   8.119  15.403  0.00  0.00    +0.000 A 
ATOM      3  C   UNL     1      47.899   8.101  14.240  0.00  0.00    +0.000 A 
ATOM      4  C   UNL     1      48.504   8.032  12.978  0.00  0.00    +0.000 A 
ATOM      5  C   UNL     1      49.903   8.031  12.903  0.00  0.00    +0.000 A 
ATOM      6  C   UNL     1      50.680   8.047  14.066  0.00  0.00    +0.000 A 
ENDROOT
BRANCH   1   7
ATOM      7  C   UNL     1      50.913   8.107  16.576  0.00  0.00    +0.000 C 
BRANCH   7  10
ATOM      8  C   UNL     1      50.724   5.861  17.508  0.00  0.00    +0.000 C 
ATOM      9  O   UNL     1      51.367   5.407  16.563  0.00  0.00    +0.000 OA
ATOM     10  N   UNL     1      50.423   7.198  17.594  0.00  0.00    +0.000 N 
ATOM     11  H   UNL     1      49.841   7.566  18.338  0.00  0.00    +0.000 HD
BRANCH   8  17
ATOM     12  C   UNL     1      48.885   5.587  19.216  0.00  0.00    +0.000 C 
ATOM     13  C   UNL     1      47.686   5.441  18.260  0.00  0.00    +0.000 C 
ATOM     14  C   UNL     1      47.489   4.018  17.740  0.00  0.00    +0.000 C 
ATOM     15  C   UNL     1      48.774   3.396  17.203  0.00  0.00    +0.000 C 
ATOM     16  C   UNL     1      49.943   3.523  18.174  0.00  0.00    +0.000 C 
ATOM     17  C   UNL     1      50.179   4.971  18.632  0.00  0.00    +0.000 C 
BRANCH  12  19
ATOM     18  N   UNL     1      48.314   4.512  21.558  0.00  0.00    +0.000 NA
ATOM     19  C   UNL     1      48.574   4.981  20.527  0.00  0.00    +0.000 C 
ENDBRANCH  12  19
ENDBRANCH   8  17
ENDBRANCH   7  10
ENDBRANCH   1   7
BRANCH   4  20
ATOM     20  C   UNL     1      47.675   7.986  11.721  0.00  0.00    +0.000 C 
BRANCH  20  21
ATOM     21  N   UNL     1      46.968   6.736  11.599  0.00  0.00    +0.000 N 
ATOM     22  C   UNL     1      45.602   6.685  11.696  0.00  0.00    +0.000 C 
ATOM     23  O   UNL     1      44.921   7.698  11.844  0.00  0.00    +0.000 OA
ATOM     24  H   UNL     1      47.511   5.886  11.711  0.00  0.00    +0.000 HD
BRANCH  22  25
ATOM     25  C   UNL     1      44.982   5.362  11.549  0.00  0.00    +0.000 A 
ATOM     26  C   UNL     1      44.297   4.800  12.619  0.00  0.00    +0.000 A 
ATOM     27  S   UNL     1      43.590   3.290  12.262  0.00  0.00    +0.000 S 
ATOM     28  C   UNL     1      44.218   3.309  10.681  0.00  0.00    +0.000 A 
ATOM     29  N   UNL     1      43.996   2.272   9.827  0.00  0.00    +0.000 NA
ATOM     30  C   UNL     1      44.558   2.404   8.672  0.00  0.00    +0.000 A 
ATOM     31  N   UNL     1      45.319   3.479   8.291  0.00  0.00    +0.000 N 
ATOM     32  C   UNL     1      45.544   4.561   9.108  0.00  0.00    +0.000 A 
ATOM     33  O   UNL     1      46.193   5.527   8.720  0.00  0.00    +0.000 OA
ATOM     34  C   UNL     1      44.943   4.459  10.424  0.00  0.00    +0.000 A 
ATOM     35  H   UNL     1      45.725   3.523   7.368  0.00  0.00    +0.000 HD
ENDBRANCH  22  25
ENDBRANCH  20  21
ENDBRANCH   4  20
TORSDOF 7
ENDMDL
MODEL 3
REMARK VINA RESULT:    -6.739      3.492      9.260
REMARK INTER + INTRA:         -10.711
REMARK INTER:                  -9.690
REMARK INTRA:                  -1.021
REMARK UNBOUND:                -1.215
REMARK  Name = 
REMARK  7 active torsions:
REMARK  status: ('A' for Active; 'I' for Inactive)
REMARK    1  A    between atoms: C_2  and  C_3
REMARK    2  A    between atoms: C_8  and  C_9
REMARK    3  A    between atoms: N_11  and  C_12
REMARK    4  A    between atoms: C_12  and  C_13
REMARK    5  A    between atoms: C_16  and  C_17
REMARK    6  A    between atoms: C_17  and  N_18
REMARK    7  A    between atoms: C_19  and  C_21
REMARK                            x       y       z     vdW  Elec       q    Type
REMARK                         _______ _______ _______ _____ _____    ______ ____
ROOT
ATOM      1  C   UNL     1      50.550   7.236  15.498  0.00  0.00    +0.000 A 
ATOM      2  C   UNL     1      51.106   8.023  14.481  0.00  0.00    +0.000 A 
ATOM      3  C   UNL     1      50.364   8.340  13.338  0.00  0.00    +0.000 A 
ATOM      4  C   UNL     1      49.044   7.891  13.197  0.00  0.00    +0.000 A 
ATOM      5  C   UNL     1      48.500   7.079  14.201  0.00  0.00    +0.000 A 
ATOM      6  C   UNL     1      49.241   6.764  15.344  0.00  0.00    +0.000 A 
ENDROOT
BRANCH   1   7
ATOM      7  C   UNL     1      51.345   6.894  16.727  0.00  0.00    +0.000 C 
BRANCH   7  10
ATOM      8  C   UNL     1      50.439   4.929  17.853  0.00  0.00    +0.000 C 
ATOM      9  O   UNL     1      50.993   4.197  17.035  0.00  0.00    +0.000 OA
ATOM     10  N   UNL     1      50.535   6.297  17.771  0.00  0.00    +0.000 N 
ATOM     11  H   UNL     1      50.029   6.905  18.406  0.00  0.00    +0.000 HD
BRANCH   8  17
ATOM     12  C   UNL     1      49.008   5.544  19.840  0.00  0.00    +0.000 C 
ATOM     13  C   UNL     1      47.891   6.310  19.106  0.00  0.00    +0.000 C 
ATOM     14  C   UNL     1      46.802   5.404  18.535  0.00  0.00    +0.000 C 
ATOM     15  C   UNL     1      47.361   4.231  17.735  0.00  0.00    +0.000 C 
ATOM     16  C   UNL     1      48.445   3.466  18.487  0.00  0.00    +0.000 C 
ATOM     17  C   UNL     1      49.573   4.379  18.994  0.00  0.00    +0.000 C 
BRANCH  12  19
ATOM     18  N   UNL     1      48.122   4.660  22.164  0.00  0.00    +0.000 NA
ATOM     19  C   UNL     1      48.519   5.043  21.142  0.00  0.00    +0.000 C 
ENDBRANCH  12  19
ENDBRANCH   8  17
ENDBRANCH   7  10
ENDBRANCH   1   7
BRANCH   4  20
ATOM     20  C   UNL     1      48.228   8.248  11.983  0.00  0.00    +0.000 C 
BRANCH  20  21
ATOM     21  N   UNL     1      47.572   7.093  11.425  0.00  0.00    +0.000 N 
ATOM     22  C   UNL     1      46.206   6.997  11.404  0.00  0.00    +0.000 C 
ATOM     23  O   UNL     1      45.483   7.902  11.814  0.00  0.00    +0.000 OA
ATOM     24  H   UNL     1      48.136   6.257  11.303  0.00  0.00    +0.000 HD
BRANCH  22  25
ATOM     25  C   UNL     1      45.642   5.780  10.806  0.00  0.00    +0.000 A 
ATOM     26  C   UNL     1      45.843   5.519   9.456  0.00  0.00    +0.000 A 
ATOM     27  S   UNL     1      45.173   4.039   8.938  0.00  0.00    +0.000 S 
ATOM     28  C   UNL     1      44.546   3.718  10.487  0.00  0.00    +0.000 A 
ATOM     29  N   UNL     1      43.825   2.590  10.729  0.00  0.00    +0.000 NA
ATOM     30  C   UNL     1      43.382   2.490  11.939  0.00  0.00    +0.000 A 
ATOM     31  N   UNL     1      43.598   3.414  12.928  0.00  0.00    +0.000 N 
ATOM     32  C   UNL     1      44.344   4.552  12.737  0.00  0.00    +0.000 A 
ATOM     33  O   UNL     1      44.556   5.337  13.656  0.00  0.00    +0.000 OA
ATOM     34  C   UNL     1      44.858   4.718  11.391  0.00  0.00    +0.000 A 
ATOM     35  H   UNL     1      43.229   3.272  13.857  0.00  0.00    +0.000 HD
ENDBRANCH  22  25
ENDBRANCH  20  21
ENDBRANCH   4  20
TORSDOF 7
ENDMDL
MODEL 4
REMARK VINA RESULT:    -6.692      1.637      2.618
REMARK INTER + INTRA:         -10.645
REMARK INTER:                  -9.419
REMARK INTRA:                  -1.226
REMARK UNBOUND:                -1.215
REMARK  Name = 
REMARK  7 active torsions:
REMARK  status: ('A' for Active; 'I' for Inactive)
REMARK    1  A    between atoms: C_2  and  C_3
REMARK    2  A    between atoms: C_8  and  C_9
REMARK    3  A    between atoms: N_11  and  C_12
REMARK    4  A    between atoms: C_12  and  C_13
REMARK    5  A    between atoms: C_16  and  C_17
REMARK    6  A    between atoms: C_17  and  N_18
REMARK    7  A    between atoms: C_19  and  C_21
REMARK                            x       y       z     vdW  Elec       q    Type
REMARK                         _______ _______ _______ _____ _____    ______ ____
ROOT
ATOM      1  C   UNL     1      47.954   7.083  13.477  0.00  0.00    +0.000 A 
ATOM      2  C   UNL     1      47.737   5.850  14.106  0.00  0.00    +0.000 A 
ATOM      3  C   UNL     1      47.989   5.692  15.473  0.00  0.00    +0.000 A 
ATOM      4  C   UNL     1      48.446   6.770  16.243  0.00  0.00    +0.000 A 
ATOM      5  C   UNL     1      48.691   7.994  15.607  0.00  0.00    +0.000 A 
ATOM      6  C   UNL     1      48.437   8.152  14.242  0.00  0.00    +0.000 A 
ENDROOT
BRANCH   1   7
ATOM      7  C   UNL     1      47.683   7.256  12.008  0.00  0.00    +0.000 C 
BRANCH   7  10
ATOM      8  C   UNL     1      45.453   6.534  11.335  0.00  0.00    +0.000 C 
ATOM      9  O   UNL     1      44.990   7.619  11.682  0.00  0.00    +0.000 OA
ATOM     10  N   UNL     1      46.788   6.245  11.481  0.00  0.00    +0.000 N 
ATOM     11  H   UNL     1      47.162   5.330  11.254  0.00  0.00    +0.000 HD
BRANCH   8  17
ATOM     12  C   UNL     1      45.177   4.034  11.116  0.00  0.00    +0.000 C 
ATOM     13  C   UNL     1      44.981   3.680  12.602  0.00  0.00    +0.000 C 
ATOM     14  C   UNL     1      43.543   3.850  13.086  0.00  0.00    +0.000 C 
ATOM     15  C   UNL     1      42.937   5.195  12.697  0.00  0.00    +0.000 C 
ATOM     16  C   UNL     1      43.114   5.517  11.217  0.00  0.00    +0.000 C 
ATOM     17  C   UNL     1      44.578   5.415  10.757  0.00  0.00    +0.000 C 
BRANCH  12  19
ATOM     18  N   UNL     1      44.136   2.146   9.592  0.00  0.00    +0.000 NA
ATOM     19  C   UNL     1      44.596   2.983  10.255  0.00  0.00    +0.000 C 
ENDBRANCH  12  19
ENDBRANCH   8  17
ENDBRANCH   7  10
ENDBRANCH   1   7
BRANCH   4  20
ATOM     20  C   UNL     1      48.696   6.617  17.721  0.00  0.00    +0.000 C 
BRANCH  20  21
ATOM     21  N   UNL     1      49.698   5.617  17.989  0.00  0.00    +0.000 N 
ATOM     22  C   UNL     1      51.026   5.868  17.759  0.00  0.00    +0.000 C 
ATOM     23  O   UNL     1      51.422   6.961  17.361  0.00  0.00    +0.000 OA
ATOM     24  H   UNL     1      49.379   4.658  18.088  0.00  0.00    +0.000 HD
BRANCH  22  25
ATOM     25  C   UNL     1      51.963   4.783  18.073  0.00  0.00    +0.000 A 
ATOM     26  C   UNL     1      53.190   5.079  18.654  0.00  0.00    +0.000 A 
ATOM     27  S   UNL     1      54.132   3.701  19.007  0.00  0.00    +0.000 S 
ATOM     28  C   UNL     1      52.955   2.663  18.348  0.00  0.00    +0.000 A 
ATOM     29  N   UNL     1      53.151   1.316  18.314  0.00  0.00    +0.000 NA
ATOM     30  C   UNL     1      52.193   0.653  17.758  0.00  0.00    +0.000 A 
ATOM     31  N   UNL     1      51.056   1.212  17.236  0.00  0.00    +0.000 N 
ATOM     32  C   UNL     1      50.802   2.562  17.275  0.00  0.00    +0.000 A 
ATOM     33  O   UNL     1      49.753   3.025  16.838  0.00  0.00    +0.000 OA
ATOM     34  C   UNL     1      51.853   3.356  17.882  0.00  0.00    +0.000 A 
ATOM     35  H   UNL     1      50.340   0.634  16.820  0.00  0.00    +0.000 HD
ENDBRANCH  22  25
ENDBRANCH  20  21
ENDBRANCH   4  20
TORSDOF 7
ENDMDL
MODEL 5
REMARK VINA RESULT:    -6.412      4.272      5.723
REMARK INTER + INTRA:         -10.250
REMARK INTER:                  -8.751
REMARK INTRA:                  -1.500
REMARK UNBOUND:                -1.215
REMARK  Name = 
REMARK  7 active torsions:
REMARK  status: ('A' for Active; 'I' for Inactive)
REMARK    1  A    between atoms: C_2  and  C_3
REMARK    2  A    between atoms: C_8  and  C_9
REMARK    3  A    between atoms: N_11  and  C_12
REMARK    4  A    between atoms: C_12  and  C_13
REMARK    5  A    between atoms: C_16  and  C_17
REMARK    6  A    between atoms: C_17  and  N_18
REMARK    7  A    between atoms: C_19  and  C_21
REMARK                            x       y       z     vdW  Elec       q    Type
REMARK                         _______ _______ _______ _____ _____    ______ ____
ROOT
ATOM      1  C   UNL     1      47.968   6.953  13.340  0.00  0.00    +0.000 A 
ATOM      2  C   UNL     1      47.428   5.873  14.052  0.00  0.00    +0.000 A 
ATOM      3  C   UNL     1      47.923   5.534  15.316  0.00  0.00    +0.000 A 
ATOM      4  C   UNL     1      48.956   6.279  15.901  0.00  0.00    +0.000 A 
ATOM      5  C   UNL     1      49.513   7.340  15.176  0.00  0.00    +0.000 A 
ATOM      6  C   UNL     1      49.017   7.680  13.914  0.00  0.00    +0.000 A 
ENDROOT
BRANCH   1   7
ATOM      7  C   UNL     1      47.437   7.320  11.982  0.00  0.00    +0.000 C 
BRANCH   7  10
ATOM      8  C   UNL     1      45.284   6.446  11.239  0.00  0.00    +0.000 C 
ATOM      9  O   UNL     1      44.726   7.468  11.636  0.00  0.00    +0.000 OA
ATOM     10  N   UNL     1      46.638   6.266  11.389  0.00  0.00    +0.000 N 
ATOM     11  H   UNL     1      47.092   5.400  11.120  0.00  0.00    +0.000 HD
BRANCH   8  17
ATOM     12  C   UNL     1      45.237   3.949  10.870  0.00  0.00    +0.000 C 
ATOM     13  C   UNL     1      45.072   3.491  12.332  0.00  0.00    +0.000 C 
ATOM     14  C   UNL     1      43.624   3.501  12.816  0.00  0.00    +0.000 C 
ATOM     15  C   UNL     1      42.899   4.807  12.503  0.00  0.00    +0.000 C 
ATOM     16  C   UNL     1      43.047   5.230  11.046  0.00  0.00    +0.000 C 
ATOM     17  C   UNL     1      44.515   5.289  10.591  0.00  0.00    +0.000 C 
BRANCH  12  19
ATOM     18  N   UNL     1      44.388   2.082   9.209  0.00  0.00    +0.000 NA
ATOM     19  C   UNL     1      44.754   2.903   9.945  0.00  0.00    +0.000 C 
ENDBRANCH  12  19
ENDBRANCH   8  17
ENDBRANCH   7  10
ENDBRANCH   1   7
BRANCH   4  20
ATOM     20  C   UNL     1      49.477   5.939  17.273  0.00  0.00    +0.000 C 
BRANCH  20  21
ATOM     21  N   UNL     1      49.066   6.911  18.254  0.00  0.00    +0.000 N 
ATOM     22  C   UNL     1      47.904   6.751  18.963  0.00  0.00    +0.000 C 
ATOM     23  O   UNL     1      47.191   5.759  18.829  0.00  0.00    +0.000 OA
ATOM     24  H   UNL     1      49.505   7.825  18.209  0.00  0.00    +0.000 HD
BRANCH  22  25
ATOM     25  C   UNL     1      47.584   7.798  19.942  0.00  0.00    +0.000 A 
ATOM     26  C   UNL     1      47.381   7.456  21.273  0.00  0.00    +0.000 A 
ATOM     27  S   UNL     1      47.077   8.795  22.285  0.00  0.00    +0.000 S 
ATOM     28  C   UNL     1      47.153   9.873  20.971  0.00  0.00    +0.000 A 
ATOM     29  N   UNL     1      46.953  11.208  21.149  0.00  0.00    +0.000 NA
ATOM     30  C   UNL     1      47.007  11.904  20.063  0.00  0.00    +0.000 A 
ATOM     31  N   UNL     1      47.246  11.388  18.816  0.00  0.00    +0.000 N 
ATOM     32  C   UNL     1      47.483  10.053  18.592  0.00  0.00    +0.000 A 
ATOM     33  O   UNL     1      47.738   9.631  17.469  0.00  0.00    +0.000 OA
ATOM     34  C   UNL     1      47.424   9.223  19.780  0.00  0.00    +0.000 A 
ATOM     35  H   UNL     1      47.283  11.990  18.006  0.00  0.00    +0.000 HD
ENDBRANCH  22  25
ENDBRANCH  20  21
ENDBRANCH   4  20
TORSDOF 7
ENDMDL
MODEL 6
REMARK VINA RESULT:    -6.157      6.296      8.112
REMARK INTER + INTRA:          -9.892
REMARK INTER:                  -9.013
REMARK INTRA:                  -0.879
REMARK UNBOUND:                -1.215
REMARK  Name = 
REMARK  7 active torsions:
REMARK  status: ('A' for Active; 'I' for Inactive)
REMARK    1  A    between atoms: C_2  and  C_3
REMARK    2  A    between atoms: C_8  and  C_9
REMARK    3  A    between atoms: N_11  and  C_12
REMARK    4  A    between atoms: C_12  and  C_13
REMARK    5  A    between atoms: C_16  and  C_17
REMARK    6  A    between atoms: C_17  and  N_18
REMARK    7  A    between atoms: C_19  and  C_21
REMARK                            x       y       z     vdW  Elec       q    Type
REMARK                         _______ _______ _______ _____ _____    ______ ____
ROOT
ATOM      1  C   UNL     1      48.142   8.441  12.207  0.00  0.00    +0.000 A 
ATOM      2  C   UNL     1      48.634   9.745  12.058  0.00  0.00    +0.000 A 
ATOM      3  C   UNL     1      49.952   9.966  11.643  0.00  0.00    +0.000 A 
ATOM      4  C   UNL     1      50.798   8.888  11.350  0.00  0.00    +0.000 A 
ATOM      5  C   UNL     1      50.313   7.586  11.527  0.00  0.00    +0.000 A 
ATOM      6  C   UNL     1      48.996   7.365  11.940  0.00  0.00    +0.000 A 
ENDROOT
BRANCH   1   7
ATOM      7  C   UNL     1      46.726   8.200  12.653  0.00  0.00    +0.000 C 
BRANCH   7  10
ATOM      8  C   UNL     1      44.937   7.093  11.419  0.00  0.00    +0.000 C 
ATOM      9  O   UNL     1      44.309   8.149  11.369  0.00  0.00    +0.000 OA
ATOM     10  N   UNL     1      46.148   7.009  12.062  0.00  0.00    +0.000 N 
ATOM     11  H   UNL     1      46.639   6.127  12.160  0.00  0.00    +0.000 HD
BRANCH   8  17
ATOM     12  C   UNL     1      45.295   4.601  11.236  0.00  0.00    +0.000 C 
ATOM     13  C   UNL     1      45.092   4.217  12.714  0.00  0.00    +0.000 C 
ATOM     14  C   UNL     1      43.626   4.032  13.100  0.00  0.00    +0.000 C 
ATOM     15  C   UNL     1      42.738   5.186  12.645  0.00  0.00    +0.000 C 
ATOM     16  C   UNL     1      42.930   5.533  11.172  0.00  0.00    +0.000 C 
ATOM     17  C   UNL     1      44.402   5.790  10.811  0.00  0.00    +0.000 C 
BRANCH  12  19
ATOM     18  N   UNL     1      44.838   2.526   9.669  0.00  0.00    +0.000 NA
ATOM     19  C   UNL     1      45.047   3.435  10.362  0.00  0.00    +0.000 C 
ENDBRANCH  12  19
ENDBRANCH   8  17
ENDBRANCH   7  10
ENDBRANCH   1   7
BRANCH   4  20
ATOM     20  C   UNL     1      52.210   9.116  10.876  0.00  0.00    +0.000 C 
BRANCH  20  21
ATOM     21  N   UNL     1      52.468   8.437   9.632  0.00  0.00    +0.000 N 
ATOM     22  C   UNL     1      53.552   8.764   8.861  0.00  0.00    +0.000 C 
ATOM     23  O   UNL     1      54.371   9.610   9.213  0.00  0.00    +0.000 OA
ATOM     24  H   UNL     1      51.698   7.918   9.221  0.00  0.00    +0.000 HD
BRANCH  22  25
ATOM     25  C   UNL     1      53.725   8.004   7.616  0.00  0.00    +0.000 A 
ATOM     26  C   UNL     1      53.845   8.680   6.408  0.00  0.00    +0.000 A 
ATOM     27  S   UNL     1      54.098   7.652   5.070  0.00  0.00    +0.000 S 
ATOM     28  C   UNL     1      54.004   6.265   6.051  0.00  0.00    +0.000 A 
ATOM     29  N   UNL     1      54.120   5.020   5.513  0.00  0.00    +0.000 NA
ATOM     30  C   UNL     1      53.997   4.058   6.367  0.00  0.00    +0.000 A 
ATOM     31  N   UNL     1      53.772   4.227   7.708  0.00  0.00    +0.000 N 
ATOM     32  C   UNL     1      53.679   5.465   8.299  0.00  0.00    +0.000 A 
ATOM     33  O   UNL     1      53.522   5.581   9.510  0.00  0.00    +0.000 OA
ATOM     34  C   UNL     1      53.800   6.582   7.382  0.00  0.00    +0.000 A 
ATOM     35  H   UNL     1      53.693   3.431   8.323  0.00  0.00    +0.000 HD
ENDBRANCH  22  25
ENDBRANCH  20  21
ENDBRANCH   4  20
TORSDOF 7
ENDMDL
MODEL 7
REMARK VINA RESULT:    -5.829      6.014      7.797
REMARK INTER + INTRA:          -9.430
REMARK INTER:                  -8.273
REMARK INTRA:                  -1.157
REMARK UNBOUND:                -1.215
REMARK  Name = 
REMARK  7 active torsions:
REMARK  status: ('A' for Active; 'I' for Inactive)
REMARK    1  A    between atoms: C_2  and  C_3
REMARK    2  A    between atoms: C_8  and  C_9
REMARK    3  A    between atoms: N_11  and  C_12
REMARK    4  A    between atoms: C_12  and  C_13
REMARK    5  A    between atoms: C_16  and  C_17
REMARK    6  A    between atoms: C_17  and  N_18
REMARK    7  A    between atoms: C_19  and  C_21
REMARK                            x       y       z     vdW  Elec       q    Type
REMARK                         _______ _______ _______ _____ _____    ______ ____
ROOT
ATOM      1  C   UNL     1      49.099   7.297  13.487  0.00  0.00    +0.000 A 
ATOM      2  C   UNL     1      48.959   7.716  12.157  0.00  0.00    +0.000 A 
ATOM      3  C   UNL     1      49.882   8.599  11.587  0.00  0.00    +0.000 A 
ATOM      4  C   UNL     1      50.975   9.065  12.330  0.00  0.00    +0.000 A 
ATOM      5  C   UNL     1      51.097   8.669  13.668  0.00  0.00    +0.000 A 
ATOM      6  C   UNL     1      50.176   7.785  14.236  0.00  0.00    +0.000 A 
ENDROOT
BRANCH   1   7
ATOM      7  C   UNL     1      48.108   6.348  14.102  0.00  0.00    +0.000 C 
BRANCH   7  10
ATOM      8  C   UNL     1      46.329   4.782  13.523  0.00  0.00    +0.000 C 
ATOM      9  O   UNL     1      46.124   4.563  14.716  0.00  0.00    +0.000 OA
ATOM     10  N   UNL     1      47.318   5.642  13.112  0.00  0.00    +0.000 N 
ATOM     11  H   UNL     1      47.532   5.778  12.130  0.00  0.00    +0.000 HD
BRANCH   8  17
ATOM     12  C   UNL     1      44.083   3.824  12.884  0.00  0.00    +0.000 C 
ATOM     13  C   UNL     1      43.244   5.114  12.940  0.00  0.00    +0.000 C 
ATOM     14  C   UNL     1      43.314   5.945  11.661  0.00  0.00    +0.000 C 
ATOM     15  C   UNL     1      44.741   6.169  11.172  0.00  0.00    +0.000 C 
ATOM     16  C   UNL     1      45.549   4.878  11.094  0.00  0.00    +0.000 C 
ATOM     17  C   UNL     1      45.533   4.087  12.412  0.00  0.00    +0.000 C 
BRANCH  12  19
ATOM     18  N   UNL     1      42.906   2.048  11.325  0.00  0.00    +0.000 NA
ATOM     19  C   UNL     1      43.432   2.825  12.011  0.00  0.00    +0.000 C 
ENDBRANCH  12  19
ENDBRANCH   8  17
ENDBRANCH   7  10
ENDBRANCH   1   7
BRANCH   4  20
ATOM     20  C   UNL     1      51.990   9.995  11.717  0.00  0.00    +0.000 C 
BRANCH  20  21
ATOM     21  N   UNL     1      52.784   9.328  10.716  0.00  0.00    +0.000 N 
ATOM     22  C   UNL     1      52.648   9.634   9.387  0.00  0.00    +0.000 C 
ATOM     23  O   UNL     1      51.884  10.514   8.996  0.00  0.00    +0.000 OA
ATOM     24  H   UNL     1      53.233   8.459  10.987  0.00  0.00    +0.000 HD
BRANCH  22  25
ATOM     25  C   UNL     1      53.510   8.900   8.453  0.00  0.00    +0.000 A 
ATOM     26  C   UNL     1      54.191   9.589   7.457  0.00  0.00    +0.000 A 
ATOM     27  S   UNL     1      55.193   8.596   6.498  0.00  0.00    +0.000 S 
ATOM     28  C   UNL     1      54.711   7.201   7.346  0.00  0.00    +0.000 A 
ATOM     29  N   UNL     1      55.194   5.975   7.005  0.00  0.00    +0.000 NA
ATOM     30  C   UNL     1      54.720   5.002   7.710  0.00  0.00    +0.000 A 
ATOM     31  N   UNL     1      53.811   5.143   8.726  0.00  0.00    +0.000 N 
ATOM     32  C   UNL     1      53.320   6.364   9.124  0.00  0.00    +0.000 A 
ATOM     33  O   UNL     1      52.541   6.460  10.066  0.00  0.00    +0.000 OA
ATOM     34  C   UNL     1      53.813   7.492   8.357  0.00  0.00    +0.000 A 
ATOM     35  H   UNL     1      53.486   4.340   9.243  0.00  0.00    +0.000 HD
ENDBRANCH  22  25
ENDBRANCH  20  21
ENDBRANCH   4  20
TORSDOF 7
ENDMDL
MODEL 8
REMARK VINA RESULT:    -5.730      6.079      9.754
REMARK INTER + INTRA:          -9.289
REMARK INTER:                  -8.269
REMARK INTRA:                  -1.021
REMARK UNBOUND:                -1.215
REMARK  Name = 
REMARK  7 active torsions:
REMARK  status: ('A' for Active; 'I' for Inactive)
REMARK    1  A    between atoms: C_2  and  C_3
REMARK    2  A    between atoms: C_8  and  C_9
REMARK    3  A    between atoms: N_11  and  C_12
REMARK    4  A    between atoms: C_12  and  C_13
REMARK    5  A    between atoms: C_16  and  C_17
REMARK    6  A    between atoms: C_17  and  N_18
REMARK    7  A    between atoms: C_19  and  C_21
REMARK                            x       y       z     vdW  Elec       q    Type
REMARK                         _______ _______ _______ _____ _____    ______ ____
ROOT
ATOM      1  C   UNL     1      42.398  11.727  10.603  0.00  0.00    +0.000 A 
ATOM      2  C   UNL     1      43.478  12.502  11.046  0.00  0.00    +0.000 A 
ATOM      3  C   UNL     1      44.655  11.893  11.495  0.00  0.00    +0.000 A 
ATOM      4  C   UNL     1      44.783  10.497  11.491  0.00  0.00    +0.000 A 
ATOM      5  C   UNL     1      43.692   9.724  11.075  0.00  0.00    +0.000 A 
ATOM      6  C   UNL     1      42.516  10.332  10.625  0.00  0.00    +0.000 A 
ENDROOT
BRANCH   1   7
ATOM      7  C   UNL     1      41.132  12.378  10.119  0.00  0.00    +0.000 C 
BRANCH   7  10
ATOM      8  C   UNL     1      39.037  11.430  10.934  0.00  0.00    +0.000 C 
ATOM      9  O   UNL     1      39.075  12.172  11.914  0.00  0.00    +0.000 OA
ATOM     10  N   UNL     1      40.034  11.440   9.989  0.00  0.00    +0.000 N 
ATOM     11  H   UNL     1      40.038  10.787   9.212  0.00  0.00    +0.000 HD
BRANCH   8  17
ATOM     12  C   UNL     1      36.740  10.703  11.689  0.00  0.00    +0.000 C 
ATOM     13  C   UNL     1      35.946  11.963  11.297  0.00  0.00    +0.000 C 
ATOM     14  C   UNL     1      35.516  11.983   9.831  0.00  0.00    +0.000 C 
ATOM     15  C   UNL     1      36.657  11.660   8.871  0.00  0.00    +0.000 C 
ATOM     16  C   UNL     1      37.414  10.394   9.257  0.00  0.00    +0.000 C 
ATOM     17  C   UNL     1      37.906  10.417  10.713  0.00  0.00    +0.000 C 
BRANCH  12  19
ATOM     18  N   UNL     1      35.145   8.606  11.849  0.00  0.00    +0.000 NA
ATOM     19  C   UNL     1      35.842   9.533  11.772  0.00  0.00    +0.000 C 
ENDBRANCH  12  19
ENDBRANCH   8  17
ENDBRANCH   7  10
ENDBRANCH   1   7
BRANCH   4  20
ATOM     20  C   UNL     1      46.056   9.834  11.947  0.00  0.00    +0.000 C 
BRANCH  20  21
ATOM     21  N   UNL     1      45.835   8.458  12.314  0.00  0.00    +0.000 N 
ATOM     22  C   UNL     1      46.820   7.518  12.159  0.00  0.00    +0.000 C 
ATOM     23  O   UNL     1      47.941   7.811  11.748  0.00  0.00    +0.000 OA
ATOM     24  H   UNL     1      44.871   8.160  12.428  0.00  0.00    +0.000 HD
BRANCH  22  25
ATOM     25  C   UNL     1      46.491   6.148  12.571  0.00  0.00    +0.000 A 
ATOM     26  C   UNL     1      47.335   5.469  13.442  0.00  0.00    +0.000 A 
ATOM     27  S   UNL     1      46.776   3.913  13.863  0.00  0.00    +0.000 S 
ATOM     28  C   UNL     1      45.413   4.072  12.857  0.00  0.00    +0.000 A 
ATOM     29  N   UNL     1      44.511   3.060  12.738  0.00  0.00    +0.000 NA
ATOM     30  C   UNL     1      43.544   3.302  11.916  0.00  0.00    +0.000 A 
ATOM     31  N   UNL     1      43.395   4.465  11.206  0.00  0.00    +0.000 N 
ATOM     32  C   UNL     1      44.264   5.524  11.318  0.00  0.00    +0.000 A 
ATOM     33  O   UNL     1      44.077   6.568  10.701  0.00  0.00    +0.000 OA
ATOM     34  C   UNL     1      45.376   5.300  12.222  0.00  0.00    +0.000 A 
ATOM     35  H   UNL     1      42.611   4.594  10.584  0.00  0.00    +0.000 HD
ENDBRANCH  22  25
ENDBRANCH  20  21
ENDBRANCH   4  20
TORSDOF 7
ENDMDL
MODEL 9
REMARK VINA RESULT:    -5.673      3.415      4.633
REMARK INTER + INTRA:          -9.209
REMARK INTER:                  -8.399
REMARK INTRA:                  -0.810
REMARK UNBOUND:                -1.215
REMARK  Name = 
REMARK  7 active torsions:
REMARK  status: ('A' for Active; 'I' for Inactive)
REMARK    1  A    between atoms: C_2  and  C_3
REMARK    2  A    between atoms: C_8  and  C_9
REMARK    3  A    between atoms: N_11  and  C_12
REMARK    4  A    between atoms: C_12  and  C_13
REMARK    5  A    between atoms: C_16  and  C_17
REMARK    6  A    between atoms: C_17  and  N_18
REMARK    7  A    between atoms: C_19  and  C_21
REMARK                            x       y       z     vdW  Elec       q    Type
REMARK                         _______ _______ _______ _____ _____    ______ ____
ROOT
ATOM      1  C   UNL     1      46.962   8.240  12.636  0.00  0.00    +0.000 A 
ATOM      2  C   UNL     1      47.922   7.322  12.187  0.00  0.00    +0.000 A 
ATOM      3  C   UNL     1      49.021   6.993  12.986  0.00  0.00    +0.000 A 
ATOM      4  C   UNL     1      49.175   7.560  14.258  0.00  0.00    +0.000 A 
ATOM      5  C   UNL     1      48.230   8.499  14.694  0.00  0.00    +0.000 A 
ATOM      6  C   UNL     1      47.130   8.826  13.896  0.00  0.00    +0.000 A 
ENDROOT
BRANCH   1   7
ATOM      7  C   UNL     1      45.778   8.596  11.780  0.00  0.00    +0.000 C 
BRANCH   7  10
ATOM      8  C   UNL     1      44.498   6.520  11.758  0.00  0.00    +0.000 C 
ATOM      9  O   UNL     1      44.322   6.608  12.972  0.00  0.00    +0.000 OA
ATOM     10  N   UNL     1      45.235   7.453  11.072  0.00  0.00    +0.000 N 
ATOM     11  H   UNL     1      45.435   7.351  10.082  0.00  0.00    +0.000 HD
BRANCH   8  17
ATOM     12  C   UNL     1      45.083   4.347  10.613  0.00  0.00    +0.000 C 
ATOM     13  C   UNL     1      45.501   3.527  11.848  0.00  0.00    +0.000 C 
ATOM     14  C   UNL     1      44.325   2.886  12.583  0.00  0.00    +0.000 C 
ATOM     15  C   UNL     1      43.189   3.865  12.860  0.00  0.00    +0.000 C 
ATOM     16  C   UNL     1      42.767   4.647  11.621  0.00  0.00    +0.000 C 
ATOM     17  C   UNL     1      43.949   5.350  10.932  0.00  0.00    +0.000 C 
BRANCH  12  19
ATOM     18  N   UNL     1      44.348   2.753   8.641  0.00  0.00    +0.000 NA
ATOM     19  C   UNL     1      44.678   3.449   9.511  0.00  0.00    +0.000 C 
ENDBRANCH  12  19
ENDBRANCH   8  17
ENDBRANCH   7  10
ENDBRANCH   1   7
BRANCH   4  20
ATOM     20  C   UNL     1      50.341   7.191  15.137  0.00  0.00    +0.000 C 
BRANCH  20  21
ATOM     21  N   UNL     1      49.937   7.013  16.508  0.00  0.00    +0.000 N 
ATOM     22  C   UNL     1      49.231   5.906  16.899  0.00  0.00    +0.000 C 
ATOM     23  O   UNL     1      48.953   5.001  16.115  0.00  0.00    +0.000 OA
ATOM     24  H   UNL     1      49.950   7.836  17.103  0.00  0.00    +0.000 HD
BRANCH  22  25
ATOM     25  C   UNL     1      48.877   5.821  18.322  0.00  0.00    +0.000 A 
ATOM     26  C   UNL     1      49.095   4.638  19.017  0.00  0.00    +0.000 A 
ATOM     27  S   UNL     1      48.683   4.729  20.669  0.00  0.00    +0.000 S 
ATOM     28  C   UNL     1      48.149   6.336  20.503  0.00  0.00    +0.000 A 
ATOM     29  N   UNL     1      47.640   7.017  21.566  0.00  0.00    +0.000 NA
ATOM     30  C   UNL     1      47.243   8.215  21.290  0.00  0.00    +0.000 A 
ATOM     31  N   UNL     1      47.313   8.795  20.050  0.00  0.00    +0.000 N 
ATOM     32  C   UNL     1      47.847   8.157  18.956  0.00  0.00    +0.000 A 
ATOM     33  O   UNL     1      47.936   8.721  17.871  0.00  0.00    +0.000 OA
ATOM     34  C   UNL     1      48.299   6.802  19.209  0.00  0.00    +0.000 A 
ATOM     35  H   UNL     1      46.992   9.741  19.904  0.00  0.00    +0.000 HD
ENDBRANCH  22  25
ENDBRANCH  20  21
ENDBRANCH   4  20
TORSDOF 7
ENDMDL
