MODEL 1
REMARK VINA RESULT:    -7.893      0.000      0.000
REMARK INTER + INTRA:         -10.409
REMARK INTER:                  -9.739
REMARK INTRA:                  -0.671
REMARK UNBOUND:                -0.671
REMARK  Name = 
REMARK  5 active torsions:
REMARK  status: ('A' for Active; 'I' for Inactive)
REMARK    1  A    between atoms: C_1  and  C_2
REMARK    2  A    between atoms: C_7  and  N_8
REMARK    3  A    between atoms: N_8  and  C_9
REMARK    4  A    between atoms: C_9  and  C_10
REMARK    5  A    between atoms: C_14  and  C_15
REMARK                            x       y       z     vdW  Elec       q    Type
REMARK                         _______ _______ _______ _____ _____    ______ ____
ROOT
ATOM      1  C   UNL     1      43.923   5.272  10.961  0.00  0.00    +0.000 C 
ATOM      2  C   UNL     1      42.802   4.369  11.511  0.00  0.00    +0.000 C 
ATOM      3  C   UNL     1      42.661   5.840  11.587  0.00  0.00    +0.000 C 
ENDROOT
BRANCH   1   4
ATOM      4  C   UNL     1      45.175   5.398  11.832  0.00  0.00    +0.000 A 
ATOM      5  C   UNL     1      45.613   4.341  12.638  0.00  0.00    +0.000 A 
ATOM      6  C   UNL     1      46.810   4.429  13.341  0.00  0.00    +0.000 A 
ATOM      7  C   UNL     1      47.602   5.577  13.235  0.00  0.00    +0.000 A 
ATOM      8  C   UNL     1      47.218   6.657  12.428  0.00  0.00    +0.000 A 
ATOM      9  C   UNL     1      45.978   6.555  11.776  0.00  0.00    +0.000 A 
BRANCH   8  10
ATOM     10  C   UNL     1      48.129   7.794  12.159  0.00  0.00    +0.000 A 
ATOM     11  C   UNL     1      49.477   7.566  11.833  0.00  0.00    +0.000 A 
ATOM     12  C   UNL     1      50.336   8.608  11.495  0.00  0.00    +0.000 A 
ATOM     13  C   UNL     1      49.866   9.917  11.469  0.00  0.00    +0.000 A 
ATOM     14  C   UNL     1      48.535  10.176  11.789  0.00  0.00    +0.000 A 
ATOM     15  C   UNL     1      47.678   9.128  12.139  0.00  0.00    +0.000 A 
ENDBRANCH   8  10
ENDBRANCH   1   4
BRANCH   1  16
ATOM     16  N   UNL     1      44.249   4.972   9.568  0.00  0.00    +0.000 N 
ATOM     17  H   UNL     1      43.600   5.336   8.873  0.00  0.00    +0.000 HD
BRANCH  16  24
ATOM     18  C   UNL     1      44.194   1.875   9.915  0.00  0.00    +0.000 C 
ATOM     19  C   UNL     1      45.095   2.671   9.035  0.00  0.00    +0.000 A 
ATOM     20  C   UNL     1      46.077   1.961   8.314  0.00  0.00    +0.000 A 
ATOM     21  C   UNL     1      46.926   2.616   7.440  0.00  0.00    +0.000 A 
ATOM     22  C   UNL     1      46.762   3.969   7.300  0.00  0.00    +0.000 A 
ATOM     23  N   UNL     1      45.851   4.685   7.999  0.00  0.00    +0.000 NA
ATOM     24  C   UNL     1      45.030   4.053   8.882  0.00  0.00    +0.000 A 
ENDBRANCH  16  24
ENDBRANCH   1  16
TORSDOF 4
ENDMDL
MODEL 2
REMARK VINA RESULT:    -7.877      2.758      6.799
REMARK INTER + INTRA:         -10.390
REMARK INTER:                  -9.276
REMARK INTRA:                  -1.114
REMARK UNBOUND:                -0.671
REMARK  Name = 
REMARK  5 active torsions:
REMARK  status: ('A' for Active; 'I' for Inactive)
REMARK    1  A    between atoms: C_1  and  C_2
REMARK    2  A    between atoms: C_7  and  N_8
REMARK    3  A    between atoms: N_8  and  C_9
REMARK    4  A    between atoms: C_9  and  C_10
REMARK    5  A    between atoms: C_14  and  C_15
REMARK                            x       y       z     vdW  Elec       q    Type
REMARK                         _______ _______ _______ _____ _____    ______ ____
ROOT
ATOM      1  C   UNL     1      45.518   7.592  11.905  0.00  0.00    +0.000 C 
ATOM      2  C   UNL     1      46.424   7.511  13.149  0.00  0.00    +0.000 C 
ATOM      3  C   UNL     1      47.034   7.577  11.802  0.00  0.00    +0.000 C 
ENDROOT
BRANCH   1   4
ATOM      4  C   UNL     1      44.841   6.286  11.480  0.00  0.00    +0.000 A 
ATOM      5  C   UNL     1      43.534   5.979  11.874  0.00  0.00    +0.000 A 
ATOM      6  C   UNL     1      42.893   4.843  11.394  0.00  0.00    +0.000 A 
ATOM      7  C   UNL     1      43.546   3.998  10.491  0.00  0.00    +0.000 A 
ATOM      8  C   UNL     1      44.849   4.269  10.051  0.00  0.00    +0.000 A 
ATOM      9  C   UNL     1      45.485   5.395  10.599  0.00  0.00    +0.000 A 
BRANCH   8  10
ATOM     10  C   UNL     1      45.482   3.492   8.959  0.00  0.00    +0.000 A 
ATOM     11  C   UNL     1      46.125   4.149   7.897  0.00  0.00    +0.000 A 
ATOM     12  C   UNL     1      46.800   3.448   6.901  0.00  0.00    +0.000 A 
ATOM     13  C   UNL     1      46.853   2.058   6.943  0.00  0.00    +0.000 A 
ATOM     14  C   UNL     1      46.224   1.376   7.983  0.00  0.00    +0.000 A 
ATOM     15  C   UNL     1      45.538   2.085   8.975  0.00  0.00    +0.000 A 
ENDBRANCH   8  10
ENDBRANCH   1   4
BRANCH   1  16
ATOM     16  N   UNL     1      44.574   8.705  11.972  0.00  0.00    +0.000 N 
ATOM     17  H   UNL     1      43.805   8.596  12.632  0.00  0.00    +0.000 HD
BRANCH  16  24
ATOM     18  C   UNL     1      46.254  11.274  11.438  0.00  0.00    +0.000 C 
ATOM     19  C   UNL     1      44.882  10.971  10.943  0.00  0.00    +0.000 A 
ATOM     20  C   UNL     1      44.235  11.976  10.194  0.00  0.00    +0.000 A 
ATOM     21  C   UNL     1      42.978  11.762   9.659  0.00  0.00    +0.000 A 
ATOM     22  C   UNL     1      42.402  10.538   9.878  0.00  0.00    +0.000 A 
ATOM     23  N   UNL     1      42.981   9.564  10.618  0.00  0.00    +0.000 NA
ATOM     24  C   UNL     1      44.207   9.776  11.171  0.00  0.00    +0.000 A 
ENDBRANCH  16  24
ENDBRANCH   1  16
TORSDOF 4
ENDMDL
MODEL 3
REMARK VINA RESULT:    -7.715      2.358      6.405
REMARK INTER + INTRA:         -10.189
REMARK INTER:                  -9.078
REMARK INTRA:                  -1.112
REMARK UNBOUND:                -0.671
REMARK  Name = 
REMARK  5 active torsions:
REMARK  status: ('A' for Active; 'I' for Inactive)
REMARK    1  A    between atoms: C_1  and  C_2
REMARK    2  A    between atoms: C_7  and  N_8
REMARK    3  A    between atoms: N_8  and  C_9
REMARK    4  A    between atoms: C_9  and  C_10
REMARK    5  A    between atoms: C_14  and  C_15
REMARK                            x       y       z     vdW  Elec       q    Type
REMARK                         _______ _______ _______ _____ _____    ______ ____
ROOT
ATOM      1  C   UNL     1      46.184   7.217  12.563  0.00  0.00    +0.000 C 
ATOM      2  C   UNL     1      46.585   8.503  11.817  0.00  0.00    +0.000 C 
ATOM      3  C   UNL     1      45.588   8.571  12.908  0.00  0.00    +0.000 C 
ENDROOT
BRANCH   1   4
ATOM      4  C   UNL     1      45.232   6.277  11.819  0.00  0.00    +0.000 A 
ATOM      5  C   UNL     1      43.843   6.408  11.928  0.00  0.00    +0.000 A 
ATOM      6  C   UNL     1      42.991   5.618  11.164  0.00  0.00    +0.000 A 
ATOM      7  C   UNL     1      43.517   4.691  10.259  0.00  0.00    +0.000 A 
ATOM      8  C   UNL     1      44.900   4.532  10.099  0.00  0.00    +0.000 A 
ATOM      9  C   UNL     1      45.730   5.307  10.926  0.00  0.00    +0.000 A 
BRANCH   8  10
ATOM     10  C   UNL     1      45.470   3.693   9.019  0.00  0.00    +0.000 A 
ATOM     11  C   UNL     1      46.068   4.288   7.895  0.00  0.00    +0.000 A 
ATOM     12  C   UNL     1      46.685   3.528   6.904  0.00  0.00    +0.000 A 
ATOM     13  C   UNL     1      46.725   2.142   7.014  0.00  0.00    +0.000 A 
ATOM     14  C   UNL     1      46.139   1.522   8.116  0.00  0.00    +0.000 A 
ATOM     15  C   UNL     1      45.510   2.288   9.103  0.00  0.00    +0.000 A 
ENDBRANCH   8  10
ENDBRANCH   1   4
BRANCH   1  16
ATOM     16  N   UNL     1      47.335   6.509  13.118  0.00  0.00    +0.000 N 
ATOM     17  H   UNL     1      48.059   6.248  12.450  0.00  0.00    +0.000 HD
BRANCH  16  24
ATOM     18  C   UNL     1      46.495   3.564  13.700  0.00  0.00    +0.000 C 
ATOM     19  C   UNL     1      47.231   4.492  14.605  0.00  0.00    +0.000 A 
ATOM     20  C   UNL     1      47.537   4.016  15.897  0.00  0.00    +0.000 A 
ATOM     21  C   UNL     1      48.255   4.794  16.786  0.00  0.00    +0.000 A 
ATOM     22  C   UNL     1      48.661   6.030  16.354  0.00  0.00    +0.000 A 
ATOM     23  N   UNL     1      48.357   6.529  15.134  0.00  0.00    +0.000 NA
ATOM     24  C   UNL     1      47.627   5.781  14.262  0.00  0.00    +0.000 A 
ENDBRANCH  16  24
ENDBRANCH   1  16
TORSDOF 4
ENDMDL
MODEL 4
REMARK VINA RESULT:    -7.562      1.616      3.478
REMARK INTER + INTRA:         -10.001
REMARK INTER:                  -9.415
REMARK INTRA:                  -0.587
REMARK UNBOUND:                -0.671
REMARK  Name = 
REMARK  5 active torsions:
REMARK  status: ('A' for Active; 'I' for Inactive)
REMARK    1  A    between atoms: C_1  and  C_2
REMARK    2  A    between atoms: C_7  and  N_8
REMARK    3  A    between atoms: N_8  and  C_9
REMARK    4  A    between atoms: C_9  and  C_10
REMARK    5  A    between atoms: C_14  and  C_15
REMARK                            x       y       z     vdW  Elec       q    Type
REMARK                         _______ _______ _______ _____ _____    ______ ____
ROOT
ATOM      1  C   UNL     1      44.026   5.031  10.998  0.00  0.00    +0.000 C 
ATOM      2  C   UNL     1      43.288   3.964  11.830  0.00  0.00    +0.000 C 
ATOM      3  C   UNL     1      42.812   5.365  11.847  0.00  0.00    +0.000 C 
ENDROOT
BRANCH   1   4
ATOM      4  C   UNL     1      45.356   5.529  11.569  0.00  0.00    +0.000 A 
ATOM      5  C   UNL     1      46.022   6.629  11.017  0.00  0.00    +0.000 A 
ATOM      6  C   UNL     1      47.171   7.138  11.610  0.00  0.00    +0.000 A 
ATOM      7  C   UNL     1      47.667   6.563  12.785  0.00  0.00    +0.000 A 
ATOM      8  C   UNL     1      47.029   5.472  13.389  0.00  0.00    +0.000 A 
ATOM      9  C   UNL     1      45.902   4.950  12.732  0.00  0.00    +0.000 A 
BRANCH   8  10
ATOM     10  C   UNL     1      47.431   4.973  14.725  0.00  0.00    +0.000 A 
ATOM     11  C   UNL     1      47.251   3.622  15.066  0.00  0.00    +0.000 A 
ATOM     12  C   UNL     1      47.694   3.106  16.281  0.00  0.00    +0.000 A 
ATOM     13  C   UNL     1      48.338   3.934  17.195  0.00  0.00    +0.000 A 
ATOM     14  C   UNL     1      48.530   5.280  16.888  0.00  0.00    +0.000 A 
ATOM     15  C   UNL     1      48.073   5.796  15.671  0.00  0.00    +0.000 A 
ENDBRANCH   8  10
ENDBRANCH   1   4
BRANCH   1  16
ATOM     16  N   UNL     1      44.137   4.663   9.588  0.00  0.00    +0.000 N 
ATOM     17  H   UNL     1      43.285   4.757   9.037  0.00  0.00    +0.000 HD
BRANCH  16  24
ATOM     18  C   UNL     1      44.241   1.552   9.432  0.00  0.00    +0.000 C 
ATOM     19  C   UNL     1      45.127   2.524   8.730  0.00  0.00    +0.000 A 
ATOM     20  C   UNL     1      46.171   1.989   7.949  0.00  0.00    +0.000 A 
ATOM     21  C   UNL     1      47.013   2.817   7.229  0.00  0.00    +0.000 A 
ATOM     22  C   UNL     1      46.779   4.166   7.300  0.00  0.00    +0.000 A 
ATOM     23  N   UNL     1      45.806   4.713   8.064  0.00  0.00    +0.000 NA
ATOM     24  C   UNL     1      44.990   3.907   8.798  0.00  0.00    +0.000 A 
ENDBRANCH  16  24
ENDBRANCH   1  16
TORSDOF 4
ENDMDL
MODEL 5
REMARK VINA RESULT:    -7.029      1.981      2.774
REMARK INTER + INTRA:          -9.343
REMARK INTER:                  -8.696
REMARK INTRA:                  -0.647
REMARK UNBOUND:                -0.671
REMARK  Name = 
REMARK  5 active torsions:
REMARK  status: ('A' for Active; 'I' for Inactive)
REMARK    1  A    between atoms: C_1  and  C_2
REMARK    2  A    between atoms: C_7  and  N_8
REMARK    3  A    between atoms: N_8  and  C_9
REMARK    4  A    between atoms: C_9  and  C_10
REMARK    5  A    between atoms: C_14  and  C_15
REMARK                            x       y       z     vdW  Elec       q    Type
REMARK                         _______ _______ _______ _____ _____    ______ ____
ROOT
ATOM      1  C   UNL     1      43.973   4.934  11.249  0.00  0.00    +0.000 C 
ATOM      2  C   UNL     1      43.876   3.673  12.128  0.00  0.00    +0.000 C 
ATOM      3  C   UNL     1      42.856   4.736  12.259  0.00  0.00    +0.000 C 
ENDROOT
BRANCH   1   4
ATOM      4  C   UNL     1      45.026   5.964  11.663  0.00  0.00    +0.000 A 
ATOM      5  C   UNL     1      46.341   5.586  11.960  0.00  0.00    +0.000 A 
ATOM      6  C   UNL     1      47.314   6.542  12.229  0.00  0.00    +0.000 A 
ATOM      7  C   UNL     1      46.991   7.902  12.189  0.00  0.00    +0.000 A 
ATOM      8  C   UNL     1      45.695   8.335  11.880  0.00  0.00    +0.000 A 
ATOM      9  C   UNL     1      44.725   7.341  11.667  0.00  0.00    +0.000 A 
BRANCH   8  10
ATOM     10  C   UNL     1      45.383   9.765  11.651  0.00  0.00    +0.000 A 
ATOM     11  C   UNL     1      44.057  10.182  11.442  0.00  0.00    +0.000 A 
ATOM     12  C   UNL     1      43.723  11.527  11.306  0.00  0.00    +0.000 A 
ATOM     13  C   UNL     1      44.714  12.500  11.381  0.00  0.00    +0.000 A 
ATOM     14  C   UNL     1      46.039  12.120  11.586  0.00  0.00    +0.000 A 
ATOM     15  C   UNL     1      46.371  10.767  11.710  0.00  0.00    +0.000 A 
ENDBRANCH   8  10
ENDBRANCH   1   4
BRANCH   1  16
ATOM     16  N   UNL     1      44.041   4.620   9.824  0.00  0.00    +0.000 N 
ATOM     17  H   UNL     1      43.158   4.661   9.318  0.00  0.00    +0.000 HD
BRANCH  16  24
ATOM     18  C   UNL     1      44.193   1.542   9.359  0.00  0.00    +0.000 C 
ATOM     19  C   UNL     1      45.068   2.591   8.764  0.00  0.00    +0.000 A 
ATOM     20  C   UNL     1      46.125   2.151   7.942  0.00  0.00    +0.000 A 
ATOM     21  C   UNL     1      46.959   3.060   7.315  0.00  0.00    +0.000 A 
ATOM     22  C   UNL     1      46.705   4.391   7.519  0.00  0.00    +0.000 A 
ATOM     23  N   UNL     1      45.719   4.845   8.326  0.00  0.00    +0.000 NA
ATOM     24  C   UNL     1      44.911   3.959   8.969  0.00  0.00    +0.000 A 
ENDBRANCH  16  24
ENDBRANCH   1  16
TORSDOF 4
ENDMDL
MODEL 6
REMARK VINA RESULT:    -6.897      3.093      7.363
REMARK INTER + INTRA:          -9.181
REMARK INTER:                  -8.152
REMARK INTRA:                  -1.029
REMARK UNBOUND:                -0.671
REMARK  Name = 
REMARK  5 active torsions:
REMARK  status: ('A' for Active; 'I' for Inactive)
REMARK    1  A    between atoms: C_1  and  C_2
REMARK    2  A    between atoms: C_7  and  N_8
REMARK    3  A    between atoms: N_8  and  C_9
REMARK    4  A    between atoms: C_9  and  C_10
REMARK    5  A    between atoms: C_14  and  C_15
REMARK                            x       y       z     vdW  Elec       q    Type
REMARK                         _______ _______ _______ _____ _____    ______ ____
ROOT
ATOM      1  C   UNL     1      48.878   7.920  12.595  0.00  0.00    +0.000 C 
ATOM      2  C   UNL     1      49.843   7.774  11.403  0.00  0.00    +0.000 C 
ATOM      3  C   UNL     1      49.490   9.123  11.898  0.00  0.00    +0.000 C 
ENDROOT
BRANCH   1   4
ATOM      4  C   UNL     1      47.394   7.699  12.289  0.00  0.00    +0.000 A 
ATOM      5  C   UNL     1      46.449   8.712  12.486  0.00  0.00    +0.000 A 
ATOM      6  C   UNL     1      45.124   8.535  12.105  0.00  0.00    +0.000 A 
ATOM      7  C   UNL     1      44.723   7.340  11.499  0.00  0.00    +0.000 A 
ATOM      8  C   UNL     1      45.632   6.300  11.262  0.00  0.00    +0.000 A 
ATOM      9  C   UNL     1      46.950   6.493  11.711  0.00  0.00    +0.000 A 
BRANCH   8  10
ATOM     10  C   UNL     1      45.267   5.111  10.458  0.00  0.00    +0.000 A 
ATOM     11  C   UNL     1      45.638   5.024   9.105  0.00  0.00    +0.000 A 
ATOM     12  C   UNL     1      45.382   3.885   8.346  0.00  0.00    +0.000 A 
ATOM     13  C   UNL     1      44.747   2.791   8.926  0.00  0.00    +0.000 A 
ATOM     14  C   UNL     1      44.366   2.846  10.265  0.00  0.00    +0.000 A 
ATOM     15  C   UNL     1      44.614   3.997  11.020  0.00  0.00    +0.000 A 
ENDBRANCH   8  10
ENDBRANCH   1   4
BRANCH   1  16
ATOM     16  N   UNL     1      49.317   7.166  13.766  0.00  0.00    +0.000 N 
ATOM     17  H   UNL     1      49.846   6.316  13.574  0.00  0.00    +0.000 HD
BRANCH  16  24
ATOM     18  C   UNL     1      49.004   9.538  15.763  0.00  0.00    +0.000 C 
ATOM     19  C   UNL     1      48.872   8.083  16.058  0.00  0.00    +0.000 A 
ATOM     20  C   UNL     1      48.635   7.721  17.400  0.00  0.00    +0.000 A 
ATOM     21  C   UNL     1      48.456   6.396  17.755  0.00  0.00    +0.000 A 
ATOM     22  C   UNL     1      48.507   5.464  16.752  0.00  0.00    +0.000 A 
ATOM     23  N   UNL     1      48.763   5.775  15.460  0.00  0.00    +0.000 NA
ATOM     24  C   UNL     1      48.968   7.073  15.105  0.00  0.00    +0.000 A 
ENDBRANCH  16  24
ENDBRANCH   1  16
TORSDOF 4
ENDMDL
MODEL 7
REMARK VINA RESULT:    -6.699      3.254      7.267
REMARK INTER + INTRA:          -8.936
REMARK INTER:                  -7.967
REMARK INTRA:                  -0.968
REMARK UNBOUND:                -0.671
REMARK  Name = 
REMARK  5 active torsions:
REMARK  status: ('A' for Active; 'I' for Inactive)
REMARK    1  A    between atoms: C_1  and  C_2
REMARK    2  A    between atoms: C_7  and  N_8
REMARK    3  A    between atoms: N_8  and  C_9
REMARK    4  A    between atoms: C_9  and  C_10
REMARK    5  A    between atoms: C_14  and  C_15
REMARK                            x       y       z     vdW  Elec       q    Type
REMARK                         _______ _______ _______ _____ _____    ______ ____
ROOT
ATOM      1  C   UNL     1      48.049   7.082  14.068  0.00  0.00    +0.000 C 
ATOM      2  C   UNL     1      49.369   7.580  13.450  0.00  0.00    +0.000 C 
ATOM      3  C   UNL     1      48.662   8.420  14.442  0.00  0.00    +0.000 C 
ENDROOT
BRANCH   1   4
ATOM      4  C   UNL     1      46.809   7.180  13.175  0.00  0.00    +0.000 A 
ATOM      5  C   UNL     1      46.144   8.396  12.980  0.00  0.00    +0.000 A 
ATOM      6  C   UNL     1      45.086   8.494  12.084  0.00  0.00    +0.000 A 
ATOM      7  C   UNL     1      44.684   7.374  11.349  0.00  0.00    +0.000 A 
ATOM      8  C   UNL     1      45.326   6.137  11.494  0.00  0.00    +0.000 A 
ATOM      9  C   UNL     1      46.355   6.062  12.448  0.00  0.00    +0.000 A 
BRANCH   8  10
ATOM     10  C   UNL     1      45.037   4.996  10.594  0.00  0.00    +0.000 A 
ATOM     11  C   UNL     1      45.531   4.983   9.278  0.00  0.00    +0.000 A 
ATOM     12  C   UNL     1      45.346   3.890   8.436  0.00  0.00    +0.000 A 
ATOM     13  C   UNL     1      44.660   2.769   8.892  0.00  0.00    +0.000 A 
ATOM     14  C   UNL     1      44.157   2.751  10.191  0.00  0.00    +0.000 A 
ATOM     15  C   UNL     1      44.335   3.856  11.030  0.00  0.00    +0.000 A 
ENDBRANCH   8  10
ENDBRANCH   1   4
BRANCH   1  16
ATOM     16  N   UNL     1      48.181   5.763  14.683  0.00  0.00    +0.000 N 
ATOM     17  H   UNL     1      47.920   4.972  14.096  0.00  0.00    +0.000 HD
BRANCH  16  24
ATOM     18  C   UNL     1      50.438   6.321  16.759  0.00  0.00    +0.000 C 
ATOM     19  C   UNL     1      49.273   5.405  16.913  0.00  0.00    +0.000 A 
ATOM     20  C   UNL     1      49.201   4.656  18.105  0.00  0.00    +0.000 A 
ATOM     21  C   UNL     1      48.131   3.814  18.349  0.00  0.00    +0.000 A 
ATOM     22  C   UNL     1      47.149   3.753  17.395  0.00  0.00    +0.000 A 
ATOM     23  N   UNL     1      47.202   4.434  16.227  0.00  0.00    +0.000 NA
ATOM     24  C   UNL     1      48.265   5.243  15.966  0.00  0.00    +0.000 A 
ENDBRANCH  16  24
ENDBRANCH   1  16
TORSDOF 4
ENDMDL
MODEL 8
REMARK VINA RESULT:    -6.415      1.351      2.778
REMARK INTER + INTRA:          -8.586
REMARK INTER:                  -8.289
REMARK INTRA:                  -0.297
REMARK UNBOUND:                -0.671
REMARK  Name = 
REMARK  5 active torsions:
REMARK  status: ('A' for Active; 'I' for Inactive)
REMARK    1  A    between atoms: C_1  and  C_2
REMARK    2  A    between atoms: C_7  and  N_8
REMARK    3  A    between atoms: N_8  and  C_9
REMARK    4  A    between atoms: C_9  and  C_10
REMARK    5  A    between atoms: C_14  and  C_15
REMARK                            x       y       z     vdW  Elec       q    Type
REMARK                         _______ _______ _______ _____ _____    ______ ____
ROOT
ATOM      1  C   UNL     1      45.495   6.106  11.877  0.00  0.00    +0.000 C 
ATOM      2  C   UNL     1      46.203   4.944  12.598  0.00  0.00    +0.000 C 
ATOM      3  C   UNL     1      45.072   5.634  13.258  0.00  0.00    +0.000 C 
ENDROOT
BRANCH   1   4
ATOM      4  C   UNL     1      46.239   7.444  11.865  0.00  0.00    +0.000 A 
ATOM      5  C   UNL     1      45.568   8.654  12.072  0.00  0.00    +0.000 A 
ATOM      6  C   UNL     1      46.270   9.851  12.166  0.00  0.00    +0.000 A 
ATOM      7  C   UNL     1      47.665   9.855  12.071  0.00  0.00    +0.000 A 
ATOM      8  C   UNL     1      48.387   8.668  11.881  0.00  0.00    +0.000 A 
ATOM      9  C   UNL     1      47.641   7.486  11.736  0.00  0.00    +0.000 A 
BRANCH   8  10
ATOM     10  C   UNL     1      49.866   8.631  11.965  0.00  0.00    +0.000 A 
ATOM     11  C   UNL     1      50.527   9.118  13.105  0.00  0.00    +0.000 A 
ATOM     12  C   UNL     1      51.909   9.022  13.249  0.00  0.00    +0.000 A 
ATOM     13  C   UNL     1      52.672   8.426  12.249  0.00  0.00    +0.000 A 
ATOM     14  C   UNL     1      52.046   7.934  11.106  0.00  0.00    +0.000 A 
ATOM     15  C   UNL     1      50.659   8.044  10.960  0.00  0.00    +0.000 A 
ENDBRANCH   8  10
ENDBRANCH   1   4
BRANCH   1  16
ATOM     16  N   UNL     1      45.014   5.731  10.549  0.00  0.00    +0.000 N 
ATOM     17  H   UNL     1      44.250   6.294  10.179  0.00  0.00    +0.000 HD
BRANCH  16  24
ATOM     18  C   UNL     1      43.582   3.006  11.035  0.00  0.00    +0.000 C 
ATOM     19  C   UNL     1      44.503   3.358   9.918  0.00  0.00    +0.000 A 
ATOM     20  C   UNL     1      44.817   2.333   9.001  0.00  0.00    +0.000 A 
ATOM     21  C   UNL     1      45.629   2.584   7.910  0.00  0.00    +0.000 A 
ATOM     22  C   UNL     1      46.099   3.863   7.757  0.00  0.00    +0.000 A 
ATOM     23  N   UNL     1      45.843   4.860   8.634  0.00  0.00    +0.000 NA
ATOM     24  C   UNL     1      45.067   4.616   9.726  0.00  0.00    +0.000 A 
ENDBRANCH  16  24
ENDBRANCH   1  16
TORSDOF 4
ENDMDL
MODEL 9
REMARK VINA RESULT:    -6.369      2.760      7.169
REMARK INTER + INTRA:          -8.529
REMARK INTER:                  -7.400
REMARK INTRA:                  -1.129
REMARK UNBOUND:                -0.671
REMARK  Name = 
REMARK  5 active torsions:
REMARK  status: ('A' for Active; 'I' for Inactive)
REMARK    1  A    between atoms: C_1  and  C_2
REMARK    2  A    between atoms: C_7  and  N_8
REMARK    3  A    between atoms: N_8  and  C_9
REMARK    4  A    between atoms: C_9  and  C_10
REMARK    5  A    between atoms: C_14  and  C_15
REMARK                            x       y       z     vdW  Elec       q    Type
REMARK                         _______ _______ _______ _____ _____    ______ ____
ROOT
ATOM      1  C   UNL     1      48.542   8.296  12.412  0.00  0.00    +0.000 C 
ATOM      2  C   UNL     1      49.213   7.761  13.691  0.00  0.00    +0.000 C 
ATOM      3  C   UNL     1      49.573   7.181  12.379  0.00  0.00    +0.000 C 
ENDROOT
BRANCH   1   4
ATOM      4  C   UNL     1      47.103   7.836  12.163  0.00  0.00    +0.000 A 
ATOM      5  C   UNL     1      46.011   8.655  12.470  0.00  0.00    +0.000 A 
ATOM      6  C   UNL     1      44.716   8.271  12.140  0.00  0.00    +0.000 A 
ATOM      7  C   UNL     1      44.492   7.059  11.478  0.00  0.00    +0.000 A 
ATOM      8  C   UNL     1      45.552   6.210  11.132  0.00  0.00    +0.000 A 
ATOM      9  C   UNL     1      46.840   6.605  11.529  0.00  0.00    +0.000 A 
BRANCH   8  10
ATOM     10  C   UNL     1      45.351   5.022  10.270  0.00  0.00    +0.000 A 
ATOM     11  C   UNL     1      44.670   3.894  10.758  0.00  0.00    +0.000 A 
ATOM     12  C   UNL     1      44.394   2.795   9.948  0.00  0.00    +0.000 A 
ATOM     13  C   UNL     1      44.791   2.798   8.615  0.00  0.00    +0.000 A 
ATOM     14  C   UNL     1      45.470   3.901   8.100  0.00  0.00    +0.000 A 
ATOM     15  C   UNL     1      45.755   4.997   8.921  0.00  0.00    +0.000 A 
ENDBRANCH   8  10
ENDBRANCH   1   4
BRANCH   1  16
ATOM     16  N   UNL     1      48.690   9.742  12.264  0.00  0.00    +0.000 N 
ATOM     17  H   UNL     1      48.208  10.311  12.958  0.00  0.00    +0.000 HD
BRANCH  16  24
ATOM     18  C   UNL     1      46.774  11.675  10.746  0.00  0.00    +0.000 C 
ATOM     19  C   UNL     1      48.230  11.471  10.506  0.00  0.00    +0.000 A 
ATOM     20  C   UNL     1      48.808  12.184   9.436  0.00  0.00    +0.000 A 
ATOM     21  C   UNL     1      50.162  12.087   9.169  0.00  0.00    +0.000 A 
ATOM     22  C   UNL     1      50.909  11.285   9.992  0.00  0.00    +0.000 A 
ATOM     23  N   UNL     1      50.381  10.564  11.008  0.00  0.00    +0.000 NA
ATOM     24  C   UNL     1      49.045  10.631  11.260  0.00  0.00    +0.000 A 
ENDBRANCH  16  24
ENDBRANCH   1  16
TORSDOF 4
ENDMDL
