MODEL 1
REMARK VINA RESULT:    -7.090      0.000      0.000
REMARK INTER + INTRA:          -9.888
REMARK INTER:                  -9.162
REMARK INTRA:                  -0.726
REMARK UNBOUND:                -0.726
REMARK  Name = 
REMARK  7 active torsions:
REMARK  status: ('A' for Active; 'I' for Inactive)
REMARK    1  A    between atoms: C_1  and  C_2
REMARK    2  A    between atoms: C_6  and  C_7
REMARK    3  A    between atoms: C_7  and  C_8
REMARK    4  A    between atoms: C_11  and  C_12
REMARK    5  A    between atoms: C_12  and  N_13
REMARK    6  A    between atoms: N_13  and  C_14
REMARK    7  A    between atoms: C_15  and  C_17
REMARK                            x       y       z     vdW  Elec       q    Type
REMARK                         _______ _______ _______ _____ _____    ______ ____
ROOT
ATOM      1  C   UNL     1      49.149   6.504  17.068  0.00  0.00    +0.000 C 
ENDROOT
BRANCH   1   5
ATOM      2  C   UNL     1      46.943   4.253  14.268  0.00  0.00    +0.000 A 
ATOM      3  C   UNL     1      47.680   5.368  13.880  0.00  0.00    +0.000 A 
ATOM      4  N   UNL     1      48.363   6.141  14.759  0.00  0.00    +0.000 NA
ATOM      5  C   UNL     1      48.306   5.753  16.062  0.00  0.00    +0.000 A 
ATOM      6  C   UNL     1      47.558   4.647  16.449  0.00  0.00    +0.000 A 
ATOM      7  N   UNL     1      46.854   3.889  15.572  0.00  0.00    +0.000 NA
BRANCH   2   8
ATOM      8  C   UNL     1      46.325   3.339  13.246  0.00  0.00    +0.000 C 
BRANCH   8  14
ATOM      9  C   UNL     1      44.237   4.310   8.923  0.00  0.00    +0.000 C 
ATOM     10  C   UNL     1      44.253   4.469  10.410  0.00  0.00    +0.000 A 
ATOM     11  C   UNL     1      43.282   5.222  11.061  0.00  0.00    +0.000 A 
ATOM     12  N   UNL     1      43.271   5.407  12.400  0.00  0.00    +0.000 NA
ATOM     13  C   UNL     1      44.272   4.794  13.074  0.00  0.00    +0.000 A 
ATOM     14  C   UNL     1      45.252   4.030  12.444  0.00  0.00    +0.000 A 
ATOM     15  N   UNL     1      45.253   3.857  11.095  0.00  0.00    +0.000 NA
ENDBRANCH   8  14
ENDBRANCH   2   8
ENDBRANCH   1   5
BRANCH   1  16
ATOM     16  N   UNL     1      50.435   5.845  17.321  0.00  0.00    +0.000 N 
ATOM     17  C   UNL     1      51.509   6.152  16.386  0.00  0.00    +0.000 C 
ATOM     18  C   UNL     1      50.488   4.897  18.348  0.00  0.00    +0.000 C 
ATOM     19  O   UNL     1      49.490   4.660  19.027  0.00  0.00    +0.000 OA
BRANCH  18  20
ATOM     20  C   UNL     1      51.755   4.218  18.658  0.00  0.00    +0.000 A 
ATOM     21  C   UNL     1      52.722   4.708  19.522  0.00  0.00    +0.000 A 
ATOM     22  S   UNL     1      54.036   3.643  19.756  0.00  0.00    +0.000 S 
ATOM     23  C   UNL     1      53.304   2.441  18.799  0.00  0.00    +0.000 A 
ATOM     24  N   UNL     1      53.872   1.215  18.661  0.00  0.00    +0.000 NA
ATOM     25  C   UNL     1      53.178   0.389  17.951  0.00  0.00    +0.000 A 
ATOM     26  N   UNL     1      51.987   0.691  17.336  0.00  0.00    +0.000 N 
ATOM     27  C   UNL     1      51.431   1.953  17.358  0.00  0.00    +0.000 A 
ATOM     28  O   UNL     1      50.476   2.235  16.643  0.00  0.00    +0.000 OA
ATOM     29  C   UNL     1      52.120   2.882  18.238  0.00  0.00    +0.000 A 
ATOM     30  H   UNL     1      51.530   0.019  16.740  0.00  0.00    +0.000 HD
ENDBRANCH  18  20
ENDBRANCH   1  16
TORSDOF 5
ENDMDL
MODEL 2
REMARK VINA RESULT:    -6.996      3.471      4.082
REMARK INTER + INTRA:          -9.767
REMARK INTER:                  -8.740
REMARK INTRA:                  -1.027
REMARK UNBOUND:                -0.726
REMARK  Name = 
REMARK  7 active torsions:
REMARK  status: ('A' for Active; 'I' for Inactive)
REMARK    1  A    between atoms: C_1  and  C_2
REMARK    2  A    between atoms: C_6  and  C_7
REMARK    3  A    between atoms: C_7  and  C_8
REMARK    4  A    between atoms: C_11  and  C_12
REMARK    5  A    between atoms: C_12  and  N_13
REMARK    6  A    between atoms: N_13  and  C_14
REMARK    7  A    between atoms: C_15  and  C_17
REMARK                            x       y       z     vdW  Elec       q    Type
REMARK                         _______ _______ _______ _____ _____    ______ ____
ROOT
ATOM      1  C   UNL     1      49.494   7.314  14.565  0.00  0.00    +0.000 C 
ENDROOT
BRANCH   1   5
ATOM      2  C   UNL     1      45.759   5.912  13.204  0.00  0.00    +0.000 A 
ATOM      3  C   UNL     1      46.637   5.079  13.890  0.00  0.00    +0.000 A 
ATOM      4  N   UNL     1      47.864   5.482  14.301  0.00  0.00    +0.000 NA
ATOM      5  C   UNL     1      48.191   6.774  14.021  0.00  0.00    +0.000 A 
ATOM      6  C   UNL     1      47.317   7.600  13.323  0.00  0.00    +0.000 A 
ATOM      7  N   UNL     1      46.100   7.188  12.890  0.00  0.00    +0.000 NA
BRANCH   2   8
ATOM      8  C   UNL     1      44.353   5.472  12.899  0.00  0.00    +0.000 C 
BRANCH   8  14
ATOM      9  C   UNL     1      45.727   4.364   8.330  0.00  0.00    +0.000 C 
ATOM     10  C   UNL     1      44.960   4.012   9.565  0.00  0.00    +0.000 A 
ATOM     11  C   UNL     1      44.217   2.840   9.639  0.00  0.00    +0.000 A 
ATOM     12  N   UNL     1      43.496   2.494  10.727  0.00  0.00    +0.000 NA
ATOM     13  C   UNL     1      43.553   3.369  11.758  0.00  0.00    +0.000 A 
ATOM     14  C   UNL     1      44.295   4.548  11.710  0.00  0.00    +0.000 A 
ATOM     15  N   UNL     1      45.012   4.885  10.604  0.00  0.00    +0.000 NA
ENDBRANCH   8  14
ENDBRANCH   2   8
ENDBRANCH   1   5
BRANCH   1  16
ATOM     16  N   UNL     1      49.454   7.510  16.018  0.00  0.00    +0.000 N 
ATOM     17  C   UNL     1      48.734   8.686  16.488  0.00  0.00    +0.000 C 
ATOM     18  C   UNL     1      50.203   6.635  16.811  0.00  0.00    +0.000 C 
ATOM     19  O   UNL     1      50.840   5.719  16.294  0.00  0.00    +0.000 OA
BRANCH  18  20
ATOM     20  C   UNL     1      50.186   6.772  18.276  0.00  0.00    +0.000 A 
ATOM     21  C   UNL     1      51.149   7.440  19.016  0.00  0.00    +0.000 A 
ATOM     22  S   UNL     1      50.800   7.515  20.686  0.00  0.00    +0.000 S 
ATOM     23  C   UNL     1      49.294   6.757  20.462  0.00  0.00    +0.000 A 
ATOM     24  N   UNL     1      48.431   6.595  21.498  0.00  0.00    +0.000 NA
ATOM     25  C   UNL     1      47.306   6.052  21.168  0.00  0.00    +0.000 A 
ATOM     26  N   UNL     1      46.983   5.623  19.904  0.00  0.00    +0.000 N 
ATOM     27  C   UNL     1      47.869   5.667  18.848  0.00  0.00    +0.000 A 
ATOM     28  O   UNL     1      47.618   5.101  17.789  0.00  0.00    +0.000 OA
ATOM     29  C   UNL     1      49.103   6.372  19.148  0.00  0.00    +0.000 A 
ATOM     30  H   UNL     1      46.112   5.146  19.729  0.00  0.00    +0.000 HD
ENDBRANCH  18  20
ENDBRANCH   1  16
TORSDOF 5
ENDMDL
MODEL 3
REMARK VINA RESULT:    -6.539      5.645      7.337
REMARK INTER + INTRA:          -9.176
REMARK INTER:                  -8.719
REMARK INTRA:                  -0.457
REMARK UNBOUND:                -0.726
REMARK  Name = 
REMARK  7 active torsions:
REMARK  status: ('A' for Active; 'I' for Inactive)
REMARK    1  A    between atoms: C_1  and  C_2
REMARK    2  A    between atoms: C_6  and  C_7
REMARK    3  A    between atoms: C_7  and  C_8
REMARK    4  A    between atoms: C_11  and  C_12
REMARK    5  A    between atoms: C_12  and  N_13
REMARK    6  A    between atoms: N_13  and  C_14
REMARK    7  A    between atoms: C_15  and  C_17
REMARK                            x       y       z     vdW  Elec       q    Type
REMARK                         _______ _______ _______ _____ _____    ______ ____
ROOT
ATOM      1  C   UNL     1      45.983   5.962  13.322  0.00  0.00    +0.000 C 
ENDROOT
BRANCH   1   5
ATOM      2  C   UNL     1      44.816   4.370   9.597  0.00  0.00    +0.000 A 
ATOM      3  C   UNL     1      45.664   5.469   9.679  0.00  0.00    +0.000 A 
ATOM      4  N   UNL     1      46.023   6.036  10.857  0.00  0.00    +0.000 NA
ATOM      5  C   UNL     1      45.518   5.450  11.977  0.00  0.00    +0.000 A 
ATOM      6  C   UNL     1      44.659   4.360  11.892  0.00  0.00    +0.000 A 
ATOM      7  N   UNL     1      44.280   3.810  10.711  0.00  0.00    +0.000 NA
BRANCH   2   8
ATOM      8  C   UNL     1      44.564   3.682   8.283  0.00  0.00    +0.000 C 
BRANCH   8  14
ATOM      9  C   UNL     1      46.830  -0.626   7.737  0.00  0.00    +0.000 C 
ATOM     10  C   UNL     1      46.818   0.857   7.541  0.00  0.00    +0.000 A 
ATOM     11  C   UNL     1      47.879   1.507   6.920  0.00  0.00    +0.000 A 
ATOM     12  N   UNL     1      47.916   2.845   6.740  0.00  0.00    +0.000 NA
ATOM     13  C   UNL     1      46.836   3.519   7.200  0.00  0.00    +0.000 A 
ATOM     14  C   UNL     1      45.759   2.889   7.820  0.00  0.00    +0.000 A 
ATOM     15  N   UNL     1      45.738   1.541   7.999  0.00  0.00    +0.000 NA
ENDBRANCH   8  14
ENDBRANCH   2   8
ENDBRANCH   1   5
BRANCH   1  16
ATOM     16  N   UNL     1      46.625   7.277  13.227  0.00  0.00    +0.000 N 
ATOM     17  C   UNL     1      45.738   8.411  13.010  0.00  0.00    +0.000 C 
ATOM     18  C   UNL     1      48.024   7.318  13.228  0.00  0.00    +0.000 C 
ATOM     19  O   UNL     1      48.676   6.281  13.339  0.00  0.00    +0.000 OA
BRANCH  18  20
ATOM     20  C   UNL     1      48.722   8.610  13.153  0.00  0.00    +0.000 A 
ATOM     21  C   UNL     1      49.093   9.239  11.975  0.00  0.00    +0.000 A 
ATOM     22  S   UNL     1      49.797  10.777  12.211  0.00  0.00    +0.000 S 
ATOM     23  C   UNL     1      49.528  10.704  13.889  0.00  0.00    +0.000 A 
ATOM     24  N   UNL     1      49.819  11.761  14.691  0.00  0.00    +0.000 NA
ATOM     25  C   UNL     1      49.513  11.581  15.933  0.00  0.00    +0.000 A 
ATOM     26  N   UNL     1      48.976  10.427  16.450  0.00  0.00    +0.000 N 
ATOM     27  C   UNL     1      48.767   9.293  15.693  0.00  0.00    +0.000 A 
ATOM     28  O   UNL     1      48.471   8.227  16.222  0.00  0.00    +0.000 OA
ATOM     29  C   UNL     1      48.993   9.488  14.271  0.00  0.00    +0.000 A 
ATOM     30  H   UNL     1      48.822  10.330  17.441  0.00  0.00    +0.000 HD
ENDBRANCH  18  20
ENDBRANCH   1  16
TORSDOF 5
ENDMDL
MODEL 4
REMARK VINA RESULT:    -6.493      1.316      2.112
REMARK INTER + INTRA:          -9.117
REMARK INTER:                  -8.736
REMARK INTRA:                  -0.381
REMARK UNBOUND:                -0.726
REMARK  Name = 
REMARK  7 active torsions:
REMARK  status: ('A' for Active; 'I' for Inactive)
REMARK    1  A    between atoms: C_1  and  C_2
REMARK    2  A    between atoms: C_6  and  C_7
REMARK    3  A    between atoms: C_7  and  C_8
REMARK    4  A    between atoms: C_11  and  C_12
REMARK    5  A    between atoms: C_12  and  N_13
REMARK    6  A    between atoms: N_13  and  C_14
REMARK    7  A    between atoms: C_15  and  C_17
REMARK                            x       y       z     vdW  Elec       q    Type
REMARK                         _______ _______ _______ _____ _____    ______ ____
ROOT
ATOM      1  C   UNL     1      48.745   6.646  16.843  0.00  0.00    +0.000 C 
ENDROOT
BRANCH   1   5
ATOM      2  C   UNL     1      47.659   6.948  12.781  0.00  0.00    +0.000 A 
ATOM      3  C   UNL     1      47.705   5.717  13.428  0.00  0.00    +0.000 A 
ATOM      4  N   UNL     1      48.094   5.577  14.718  0.00  0.00    +0.000 NA
ATOM      5  C   UNL     1      48.424   6.727  15.368  0.00  0.00    +0.000 A 
ATOM      6  C   UNL     1      48.391   7.955  14.715  0.00  0.00    +0.000 A 
ATOM      7  N   UNL     1      48.027   8.090  13.416  0.00  0.00    +0.000 NA
BRANCH   2   8
ATOM      8  C   UNL     1      47.080   7.076  11.398  0.00  0.00    +0.000 C 
BRANCH   8  14
ATOM      9  C   UNL     1      42.846   5.161  12.948  0.00  0.00    +0.000 C 
ATOM     10  C   UNL     1      43.910   5.256  11.901  0.00  0.00    +0.000 A 
ATOM     11  C   UNL     1      43.830   4.515  10.727  0.00  0.00    +0.000 A 
ATOM     12  N   UNL     1      44.777   4.557   9.765  0.00  0.00    +0.000 NA
ATOM     13  C   UNL     1      45.818   5.385  10.016  0.00  0.00    +0.000 A 
ATOM     14  C   UNL     1      45.918   6.142  11.183  0.00  0.00    +0.000 A 
ATOM     15  N   UNL     1      44.958   6.085  12.145  0.00  0.00    +0.000 NA
ENDBRANCH   8  14
ENDBRANCH   2   8
ENDBRANCH   1   5
BRANCH   1  16
ATOM     16  N   UNL     1      50.055   6.039  17.097  0.00  0.00    +0.000 N 
ATOM     17  C   UNL     1      51.161   6.533  16.288  0.00  0.00    +0.000 C 
ATOM     18  C   UNL     1      50.110   4.966  17.993  0.00  0.00    +0.000 C 
ATOM     19  O   UNL     1      49.091   4.580  18.564  0.00  0.00    +0.000 OA
BRANCH  18  20
ATOM     20  C   UNL     1      51.400   4.329  18.300  0.00  0.00    +0.000 A 
ATOM     21  C   UNL     1      52.398   4.901  19.074  0.00  0.00    +0.000 A 
ATOM     22  S   UNL     1      53.736   3.874  19.335  0.00  0.00    +0.000 S 
ATOM     23  C   UNL     1      52.980   2.588  18.518  0.00  0.00    +0.000 A 
ATOM     24  N   UNL     1      53.558   1.360  18.458  0.00  0.00    +0.000 NA
ATOM     25  C   UNL     1      52.845   0.470  17.852  0.00  0.00    +0.000 A 
ATOM     26  N   UNL     1      51.623   0.706  17.270  0.00  0.00    +0.000 N 
ATOM     27  C   UNL     1      51.050   1.959  17.212  0.00  0.00    +0.000 A 
ATOM     28  O   UNL     1      50.060   2.169  16.521  0.00  0.00    +0.000 OA
ATOM     29  C   UNL     1      51.765   2.966  17.978  0.00  0.00    +0.000 A 
ATOM     30  H   UNL     1      51.149  -0.019  16.755  0.00  0.00    +0.000 HD
ENDBRANCH  18  20
ENDBRANCH   1  16
TORSDOF 5
ENDMDL
MODEL 5
REMARK VINA RESULT:    -6.439      3.169      4.000
REMARK INTER + INTRA:          -9.046
REMARK INTER:                  -8.414
REMARK INTRA:                  -0.632
REMARK UNBOUND:                -0.726
REMARK  Name = 
REMARK  7 active torsions:
REMARK  status: ('A' for Active; 'I' for Inactive)
REMARK    1  A    between atoms: C_1  and  C_2
REMARK    2  A    between atoms: C_6  and  C_7
REMARK    3  A    between atoms: C_7  and  C_8
REMARK    4  A    between atoms: C_11  and  C_12
REMARK    5  A    between atoms: C_12  and  N_13
REMARK    6  A    between atoms: N_13  and  C_14
REMARK    7  A    between atoms: C_15  and  C_17
REMARK                            x       y       z     vdW  Elec       q    Type
REMARK                         _______ _______ _______ _____ _____    ______ ____
ROOT
ATOM      1  C   UNL     1      49.006   6.901  14.640  0.00  0.00    +0.000 C 
ENDROOT
BRANCH   1   5
ATOM      2  C   UNL     1      45.466   6.439  12.399  0.00  0.00    +0.000 A 
ATOM      3  C   UNL     1      45.909   7.696  12.799  0.00  0.00    +0.000 A 
ATOM      4  N   UNL     1      47.016   7.878  13.559  0.00  0.00    +0.000 NA
ATOM      5  C   UNL     1      47.696   6.750  13.900  0.00  0.00    +0.000 A 
ATOM      6  C   UNL     1      47.244   5.494  13.510  0.00  0.00    +0.000 A 
ATOM      7  N   UNL     1      46.121   5.311  12.771  0.00  0.00    +0.000 NA
BRANCH   2   8
ATOM      8  C   UNL     1      44.321   6.293  11.434  0.00  0.00    +0.000 C 
BRANCH   8  14
ATOM      9  C   UNL     1      46.013   3.631   7.686  0.00  0.00    +0.000 C 
ATOM     10  C   UNL     1      45.191   3.724   8.932  0.00  0.00    +0.000 A 
ATOM     11  C   UNL     1      44.498   2.621   9.419  0.00  0.00    +0.000 A 
ATOM     12  N   UNL     1      43.730   2.667  10.529  0.00  0.00    +0.000 NA
ATOM     13  C   UNL     1      43.686   3.868  11.150  0.00  0.00    +0.000 A 
ATOM     14  C   UNL     1      44.375   4.986  10.685  0.00  0.00    +0.000 A 
ATOM     15  N   UNL     1      45.141   4.926   9.562  0.00  0.00    +0.000 NA
ENDBRANCH   8  14
ENDBRANCH   2   8
ENDBRANCH   1   5
BRANCH   1  16
ATOM     16  N   UNL     1      48.814   7.075  16.084  0.00  0.00    +0.000 N 
ATOM     17  C   UNL     1      48.773   8.449  16.566  0.00  0.00    +0.000 C 
ATOM     18  C   UNL     1      48.812   5.925  16.881  0.00  0.00    +0.000 C 
ATOM     19  O   UNL     1      48.934   4.813  16.368  0.00  0.00    +0.000 OA
BRANCH  18  20
ATOM     20  C   UNL     1      48.605   6.036  18.332  0.00  0.00    +0.000 A 
ATOM     21  C   UNL     1      47.368   6.022  18.957  0.00  0.00    +0.000 A 
ATOM     22  S   UNL     1      47.459   6.066  20.661  0.00  0.00    +0.000 S 
ATOM     23  C   UNL     1      49.158   5.992  20.627  0.00  0.00    +0.000 A 
ATOM     24  N   UNL     1      49.878   5.900  21.776  0.00  0.00    +0.000 NA
ATOM     25  C   UNL     1      51.152   5.798  21.594  0.00  0.00    +0.000 A 
ATOM     26  N   UNL     1      51.774   5.816  20.369  0.00  0.00    +0.000 N 
ATOM     27  C   UNL     1      51.094   6.017  19.186  0.00  0.00    +0.000 A 
ATOM     28  O   UNL     1      51.697   6.221  18.138  0.00  0.00    +0.000 OA
ATOM     29  C   UNL     1      49.648   6.025  19.335  0.00  0.00    +0.000 A 
ATOM     30  H   UNL     1      52.779   5.799  20.301  0.00  0.00    +0.000 HD
ENDBRANCH  18  20
ENDBRANCH   1  16
TORSDOF 5
ENDMDL
MODEL 6
REMARK VINA RESULT:    -5.966      3.499      8.199
REMARK INTER + INTRA:          -8.436
REMARK INTER:                  -7.437
REMARK INTRA:                  -0.999
REMARK UNBOUND:                -0.726
REMARK  Name = 
REMARK  7 active torsions:
REMARK  status: ('A' for Active; 'I' for Inactive)
REMARK    1  A    between atoms: C_1  and  C_2
REMARK    2  A    between atoms: C_6  and  C_7
REMARK    3  A    between atoms: C_7  and  C_8
REMARK    4  A    between atoms: C_11  and  C_12
REMARK    5  A    between atoms: C_12  and  N_13
REMARK    6  A    between atoms: N_13  and  C_14
REMARK    7  A    between atoms: C_15  and  C_17
REMARK                            x       y       z     vdW  Elec       q    Type
REMARK                         _______ _______ _______ _____ _____    ______ ____
ROOT
ATOM      1  C   UNL     1      49.632   8.923  13.858  0.00  0.00    +0.000 C 
ENDROOT
BRANCH   1   5
ATOM      2  C   UNL     1      51.333   6.821  17.092  0.00  0.00    +0.000 A 
ATOM      3  C   UNL     1      50.114   7.479  17.218  0.00  0.00    +0.000 A 
ATOM      4  N   UNL     1      49.560   8.202  16.215  0.00  0.00    +0.000 NA
ATOM      5  C   UNL     1      50.261   8.237  15.049  0.00  0.00    +0.000 A 
ATOM      6  C   UNL     1      51.487   7.590  14.930  0.00  0.00    +0.000 A 
ATOM      7  N   UNL     1      52.052   6.888  15.943  0.00  0.00    +0.000 NA
BRANCH   2   8
ATOM      8  C   UNL     1      51.838   5.909  18.177  0.00  0.00    +0.000 C 
BRANCH   8  14
ATOM      9  C   UNL     1      53.463   1.294  17.953  0.00  0.00    +0.000 C 
ATOM     10  C   UNL     1      52.351   2.278  17.771  0.00  0.00    +0.000 A 
ATOM     11  C   UNL     1      51.096   1.870  17.334  0.00  0.00    +0.000 A 
ATOM     12  N   UNL     1      50.071   2.729  17.140  0.00  0.00    +0.000 NA
ATOM     13  C   UNL     1      50.346   4.026  17.411  0.00  0.00    +0.000 A 
ATOM     14  C   UNL     1      51.594   4.458  17.855  0.00  0.00    +0.000 A 
ATOM     15  N   UNL     1      52.618   3.582  18.042  0.00  0.00    +0.000 NA
ENDBRANCH   8  14
ENDBRANCH   2   8
ENDBRANCH   1   5
BRANCH   1  16
ATOM     16  N   UNL     1      48.696   8.051  13.141  0.00  0.00    +0.000 N 
ATOM     17  C   UNL     1      49.247   7.295  12.025  0.00  0.00    +0.000 C 
ATOM     18  C   UNL     1      47.346   8.111  13.505  0.00  0.00    +0.000 C 
ATOM     19  O   UNL     1      46.981   8.850  14.418  0.00  0.00    +0.000 OA
BRANCH  18  20
ATOM     20  C   UNL     1      46.364   7.246  12.834  0.00  0.00    +0.000 A 
ATOM     21  C   UNL     1      45.500   7.663  11.833  0.00  0.00    +0.000 A 
ATOM     22  S   UNL     1      44.550   6.404  11.180  0.00  0.00    +0.000 S 
ATOM     23  C   UNL     1      45.340   5.237  12.132  0.00  0.00    +0.000 A 
ATOM     24  N   UNL     1      45.064   3.915  11.991  0.00  0.00    +0.000 NA
ATOM     25  C   UNL     1      45.778   3.144  12.742  0.00  0.00    +0.000 A 
ATOM     26  N   UNL     1      46.717   3.578  13.646  0.00  0.00    +0.000 N 
ATOM     27  C   UNL     1      46.951   4.914  13.900  0.00  0.00    +0.000 A 
ATOM     28  O   UNL     1      47.650   5.264  14.844  0.00  0.00    +0.000 OA
ATOM     29  C   UNL     1      46.250   5.813  12.999  0.00  0.00    +0.000 A 
ATOM     30  H   UNL     1      47.193   2.926  14.249  0.00  0.00    +0.000 HD
ENDBRANCH  18  20
ENDBRANCH   1  16
TORSDOF 5
ENDMDL
MODEL 7
REMARK VINA RESULT:    -5.857      3.423      5.372
REMARK INTER + INTRA:          -8.294
REMARK INTER:                  -7.840
REMARK INTRA:                  -0.455
REMARK UNBOUND:                -0.726
REMARK  Name = 
REMARK  7 active torsions:
REMARK  status: ('A' for Active; 'I' for Inactive)
REMARK    1  A    between atoms: C_1  and  C_2
REMARK    2  A    between atoms: C_6  and  C_7
REMARK    3  A    between atoms: C_7  and  C_8
REMARK    4  A    between atoms: C_11  and  C_12
REMARK    5  A    between atoms: C_12  and  N_13
REMARK    6  A    between atoms: N_13  and  C_14
REMARK    7  A    between atoms: C_15  and  C_17
REMARK                            x       y       z     vdW  Elec       q    Type
REMARK                         _______ _______ _______ _____ _____    ______ ____
ROOT
ATOM      1  C   UNL     1      48.979   4.877  17.117  0.00  0.00    +0.000 C 
ENDROOT
BRANCH   1   5
ATOM      2  C   UNL     1      47.160   6.034  13.495  0.00  0.00    +0.000 A 
ATOM      3  C   UNL     1      48.162   6.803  14.079  0.00  0.00    +0.000 A 
ATOM      4  N   UNL     1      48.736   6.487  15.265  0.00  0.00    +0.000 NA
ATOM      5  C   UNL     1      48.288   5.346  15.857  0.00  0.00    +0.000 A 
ATOM      6  C   UNL     1      47.277   4.586  15.278  0.00  0.00    +0.000 A 
ATOM      7  N   UNL     1      46.686   4.918  14.104  0.00  0.00    +0.000 NA
BRANCH   2   8
ATOM      8  C   UNL     1      46.657   6.339  12.110  0.00  0.00    +0.000 C 
BRANCH   8  14
ATOM      9  C   UNL     1      44.233   2.837   9.690  0.00  0.00    +0.000 C 
ATOM     10  C   UNL     1      44.229   3.956  10.683  0.00  0.00    +0.000 A 
ATOM     11  C   UNL     1      43.062   4.324  11.343  0.00  0.00    +0.000 A 
ATOM     12  N   UNL     1      43.010   5.340  12.232  0.00  0.00    +0.000 NA
ATOM     13  C   UNL     1      44.184   5.976  12.450  0.00  0.00    +0.000 A 
ATOM     14  C   UNL     1      45.368   5.621  11.805  0.00  0.00    +0.000 A 
ATOM     15  N   UNL     1      45.403   4.599  10.908  0.00  0.00    +0.000 NA
ENDBRANCH   8  14
ENDBRANCH   2   8
ENDBRANCH   1   5
BRANCH   1  16
ATOM     16  N   UNL     1      48.933   5.881  18.185  0.00  0.00    +0.000 N 
ATOM     17  C   UNL     1      50.198   6.518  18.524  0.00  0.00    +0.000 C 
ATOM     18  C   UNL     1      47.721   6.051  18.864  0.00  0.00    +0.000 C 
ATOM     19  O   UNL     1      46.731   5.396  18.541  0.00  0.00    +0.000 OA
BRANCH  18  20
ATOM     20  C   UNL     1      47.611   7.056  19.932  0.00  0.00    +0.000 A 
ATOM     21  C   UNL     1      47.536   6.764  21.285  0.00  0.00    +0.000 A 
ATOM     22  S   UNL     1      47.518   8.148  22.285  0.00  0.00    +0.000 S 
ATOM     23  C   UNL     1      47.723   9.183  20.951  0.00  0.00    +0.000 A 
ATOM     24  N   UNL     1      47.883  10.522  21.121  0.00  0.00    +0.000 NA
ATOM     25  C   UNL     1      48.081  11.173  20.024  0.00  0.00    +0.000 A 
ATOM     26  N   UNL     1      48.097  10.613  18.770  0.00  0.00    +0.000 N 
ATOM     27  C   UNL     1      47.831   9.278  18.542  0.00  0.00    +0.000 A 
ATOM     28  O   UNL     1      47.663   8.854  17.404  0.00  0.00    +0.000 OA
ATOM     29  C   UNL     1      47.714   8.488  19.755  0.00  0.00    +0.000 A 
ATOM     30  H   UNL     1      48.192  11.189  17.949  0.00  0.00    +0.000 HD
ENDBRANCH  18  20
ENDBRANCH   1  16
TORSDOF 5
ENDMDL
MODEL 8
REMARK VINA RESULT:    -5.845      3.981      8.198
REMARK INTER + INTRA:          -8.280
REMARK INTER:                  -7.134
REMARK INTRA:                  -1.145
REMARK UNBOUND:                -0.726
REMARK  Name = 
REMARK  7 active torsions:
REMARK  status: ('A' for Active; 'I' for Inactive)
REMARK    1  A    between atoms: C_1  and  C_2
REMARK    2  A    between atoms: C_6  and  C_7
REMARK    3  A    between atoms: C_7  and  C_8
REMARK    4  A    between atoms: C_11  and  C_12
REMARK    5  A    between atoms: C_12  and  N_13
REMARK    6  A    between atoms: N_13  and  C_14
REMARK    7  A    between atoms: C_15  and  C_17
REMARK                            x       y       z     vdW  Elec       q    Type
REMARK                         _______ _______ _______ _____ _____    ______ ____
ROOT
ATOM      1  C   UNL     1      48.263   9.105  12.840  0.00  0.00    +0.000 C 
ENDROOT
BRANCH   1   5
ATOM      2  C   UNL     1      50.404   7.636  16.160  0.00  0.00    +0.000 A 
ATOM      3  C   UNL     1      49.182   8.282  16.317  0.00  0.00    +0.000 A 
ATOM      4  N   UNL     1      48.489   8.808  15.278  0.00  0.00    +0.000 NA
ATOM      5  C   UNL     1      49.051   8.650  14.048  0.00  0.00    +0.000 A 
ATOM      6  C   UNL     1      50.279   8.016  13.896  0.00  0.00    +0.000 A 
ATOM      7  N   UNL     1      50.984   7.514  14.940  0.00  0.00    +0.000 NA
BRANCH   2   8
ATOM      8  C   UNL     1      51.065   6.938  17.318  0.00  0.00    +0.000 C 
BRANCH   8  14
ATOM      9  C   UNL     1      48.311   2.952  16.600  0.00  0.00    +0.000 C 
ATOM     10  C   UNL     1      48.930   3.937  17.539  0.00  0.00    +0.000 A 
ATOM     11  C   UNL     1      48.747   3.831  18.914  0.00  0.00    +0.000 A 
ATOM     12  N   UNL     1      49.273   4.709  19.795  0.00  0.00    +0.000 NA
ATOM     13  C   UNL     1      50.007   5.706  19.248  0.00  0.00    +0.000 A 
ATOM     14  C   UNL     1      50.209   5.830  17.874  0.00  0.00    +0.000 A 
ATOM     15  N   UNL     1      49.669   4.940  16.999  0.00  0.00    +0.000 NA
ENDBRANCH   8  14
ENDBRANCH   2   8
ENDBRANCH   1   5
BRANCH   1  16
ATOM     16  N   UNL     1      47.417   8.040  12.292  0.00  0.00    +0.000 N 
ATOM     17  C   UNL     1      48.012   7.220  11.245  0.00  0.00    +0.000 C 
ATOM     18  C   UNL     1      46.088   7.979  12.725  0.00  0.00    +0.000 C 
ATOM     19  O   UNL     1      45.670   8.779  13.561  0.00  0.00    +0.000 OA
BRANCH  18  20
ATOM     20  C   UNL     1      45.198   6.922  12.223  0.00  0.00    +0.000 A 
ATOM     21  C   UNL     1      44.186   7.116  11.297  0.00  0.00    +0.000 A 
ATOM     22  S   UNL     1      43.392   5.677  10.836  0.00  0.00    +0.000 S 
ATOM     23  C   UNL     1      44.448   4.729  11.773  0.00  0.00    +0.000 A 
ATOM     24  N   UNL     1      44.376   3.372  11.752  0.00  0.00    +0.000 NA
ATOM     25  C   UNL     1      45.274   2.785  12.470  0.00  0.00    +0.000 A 
ATOM     26  N   UNL     1      46.213   3.432  13.236  0.00  0.00    +0.000 N 
ATOM     27  C   UNL     1      46.252   4.804  13.373  0.00  0.00    +0.000 A 
ATOM     28  O   UNL     1      46.974   5.334  14.211  0.00  0.00    +0.000 OA
ATOM     29  C   UNL     1      45.333   5.507  12.496  0.00  0.00    +0.000 A 
ATOM     30  H   UNL     1      46.843   2.912  13.826  0.00  0.00    +0.000 HD
ENDBRANCH  18  20
ENDBRANCH   1  16
TORSDOF 5
ENDMDL
MODEL 9
REMARK VINA RESULT:    -5.768      5.675      7.971
REMARK INTER + INTRA:          -8.180
REMARK INTER:                  -7.148
REMARK INTRA:                  -1.031
REMARK UNBOUND:                -0.726
REMARK  Name = 
REMARK  7 active torsions:
REMARK  status: ('A' for Active; 'I' for Inactive)
REMARK    1  A    between atoms: C_1  and  C_2
REMARK    2  A    between atoms: C_6  and  C_7
REMARK    3  A    between atoms: C_7  and  C_8
REMARK    4  A    between atoms: C_11  and  C_12
REMARK    5  A    between atoms: C_12  and  N_13
REMARK    6  A    between atoms: N_13  and  C_14
REMARK    7  A    between atoms: C_15  and  C_17
REMARK                            x       y       z     vdW  Elec       q    Type
REMARK                         _______ _______ _______ _____ _____    ______ ____
ROOT
ATOM      1  C   UNL     1      48.795   8.003  14.207  0.00  0.00    +0.000 C 
ENDROOT
BRANCH   1   5
ATOM      2  C   UNL     1      45.286   6.196  12.728  0.00  0.00    +0.000 A 
ATOM      3  C   UNL     1      46.297   5.440  13.311  0.00  0.00    +0.000 A 
ATOM      4  N   UNL     1      47.458   5.980  13.755  0.00  0.00    +0.000 NA
ATOM      5  C   UNL     1      47.577   7.329  13.617  0.00  0.00    +0.000 A 
ATOM      6  C   UNL     1      46.570   8.081  13.021  0.00  0.00    +0.000 A 
ATOM      7  N   UNL     1      45.420   7.535  12.554  0.00  0.00    +0.000 NA
BRANCH   2   8
ATOM      8  C   UNL     1      43.956   5.579  12.386  0.00  0.00    +0.000 C 
BRANCH   8  14
ATOM      9  C   UNL     1      45.702   4.073   8.065  0.00  0.00    +0.000 C 
ATOM     10  C   UNL     1      44.925   3.787   9.310  0.00  0.00    +0.000 A 
ATOM     11  C   UNL     1      44.341   2.543   9.522  0.00  0.00    +0.000 A 
ATOM     12  N   UNL     1      43.616   2.249  10.623  0.00  0.00    +0.000 NA
ATOM     13  C   UNL     1      43.502   3.253  11.523  0.00  0.00    +0.000 A 
ATOM     14  C   UNL     1      44.083   4.506  11.336  0.00  0.00    +0.000 A 
ATOM     15  N   UNL     1      44.807   4.789  10.219  0.00  0.00    +0.000 NA
ENDBRANCH   8  14
ENDBRANCH   2   8
ENDBRANCH   1   5
BRANCH   1  16
ATOM     16  N   UNL     1      49.557   8.755  13.205  0.00  0.00    +0.000 N 
ATOM     17  C   UNL     1      50.170   7.971  12.141  0.00  0.00    +0.000 C 
ATOM     18  C   UNL     1      49.734  10.126  13.418  0.00  0.00    +0.000 C 
ATOM     19  O   UNL     1      49.232  10.671  14.401  0.00  0.00    +0.000 OA
BRANCH  18  20
ATOM     20  C   UNL     1      50.474  10.935  12.438  0.00  0.00    +0.000 A 
ATOM     21  C   UNL     1      51.833  11.198  12.498  0.00  0.00    +0.000 A 
ATOM     22  S   UNL     1      52.420  12.081  11.161  0.00  0.00    +0.000 S 
ATOM     23  C   UNL     1      50.900  12.045  10.398  0.00  0.00    +0.000 A 
ATOM     24  N   UNL     1      50.731  12.552   9.149  0.00  0.00    +0.000 NA
ATOM     25  C   UNL     1      49.538  12.406   8.678  0.00  0.00    +0.000 A 
ATOM     26  N   UNL     1      48.490  11.833   9.356  0.00  0.00    +0.000 N 
ATOM     27  C   UNL     1      48.589  11.405  10.664  0.00  0.00    +0.000 A 
ATOM     28  O   UNL     1      47.591  11.080  11.299  0.00  0.00    +0.000 OA
ATOM     29  C   UNL     1      49.941  11.447  11.194  0.00  0.00    +0.000 A 
ATOM     30  H   UNL     1      47.566  11.810   8.955  0.00  0.00    +0.000 HD
ENDBRANCH  18  20
ENDBRANCH   1  16
TORSDOF 5
ENDMDL
