MODEL 1
REMARK VINA RESULT:    -8.567      0.000      0.000
REMARK INTER + INTRA:         -10.616
REMARK INTER:                 -10.070
REMARK INTRA:                  -0.546
REMARK UNBOUND:                -0.546
REMARK  Name = 
REMARK  3 active torsions:
REMARK  status: ('A' for Active; 'I' for Inactive)
REMARK    1  A    between atoms: C_4  and  C_5
REMARK    2  A    between atoms: C_5  and  N_6
REMARK    3  A    between atoms: C_15  and  C_16
REMARK                            x       y       z     vdW  Elec       q    Type
REMARK                         _______ _______ _______ _____ _____    ______ ____
ROOT
ATOM      1  F   UNL     1      46.903   3.492  14.282  0.00  0.00    +0.000 F 
ATOM      2  C   UNL     1      46.447   4.261  13.285  0.00  0.00    +0.000 A 
ATOM      3  C   UNL     1      45.463   3.778  12.438  0.00  0.00    +0.000 A 
ATOM      4  C   UNL     1      44.949   4.599  11.423  0.00  0.00    +0.000 A 
ATOM      5  C   UNL     1      45.465   5.909  11.263  0.00  0.00    +0.000 A 
ATOM      6  C   UNL     1      46.447   6.407  12.137  0.00  0.00    +0.000 A 
ATOM      7  C   UNL     1      46.934   5.553  13.145  0.00  0.00    +0.000 A 
ENDROOT
BRANCH   6   8
ATOM      8  C   UNL     1      46.942   7.850  12.159  0.00  0.00    +0.000 C 
ATOM      9  C   UNL     1      48.470   7.894  11.940  0.00  0.00    +0.000 C 
ATOM     10  C   UNL     1      49.267   8.129  13.217  0.00  0.00    +0.000 C 
ATOM     11  C   UNL     1      48.704   9.312  13.986  0.00  0.00    +0.000 C 
ATOM     12  N   UNL     1      47.348   8.991  14.424  0.00  0.00    +0.000 NA
ATOM     13  C   UNL     1      46.445   8.788  13.285  0.00  0.00    +0.000 C 
ATOM     14  H   UNL     1      46.996   9.769  14.987  0.00  0.00    +0.000 HD
ENDBRANCH   6   8
BRANCH   4  15
ATOM     15  C   UNL     1      43.797   4.093  10.581  0.00  0.00    +0.000 C 
BRANCH  15  16
ATOM     16  N   UNL     1      44.052   4.278   9.162  0.00  0.00    +0.000 N 
ATOM     17  C   UNL     1      45.035   3.499   8.561  0.00  0.00    +0.000 A 
ATOM     18  C   UNL     1      45.298   2.162   8.892  0.00  0.00    +0.000 A 
ATOM     19  N   UNL     1      46.224   1.380   8.277  0.00  0.00    +0.000 NA
ATOM     20  C   UNL     1      46.888   1.985   7.278  0.00  0.00    +0.000 A 
ATOM     21  F   UNL     1      47.805   1.279   6.605  0.00  0.00    +0.000 F 
ATOM     22  C   UNL     1      46.640   3.302   6.924  0.00  0.00    +0.000 A 
ATOM     23  N   UNL     1      45.724   4.083   7.559  0.00  0.00    +0.000 NA
ATOM     24  H   UNL     1      44.165   5.237   8.854  0.00  0.00    +0.000 HD
ENDBRANCH  15  16
ENDBRANCH   4  15
TORSDOF 3
ENDMDL
MODEL 2
REMARK VINA RESULT:    -8.374      1.999      2.840
REMARK INTER + INTRA:         -10.389
REMARK INTER:                  -9.680
REMARK INTRA:                  -0.709
REMARK UNBOUND:                -0.546
REMARK  Name = 
REMARK  3 active torsions:
REMARK  status: ('A' for Active; 'I' for Inactive)
REMARK    1  A    between atoms: C_4  and  C_5
REMARK    2  A    between atoms: C_5  and  N_6
REMARK    3  A    between atoms: C_15  and  C_16
REMARK                            x       y       z     vdW  Elec       q    Type
REMARK                         _______ _______ _______ _____ _____    ______ ____
ROOT
ATOM      1  F   UNL     1      44.736   8.984  12.059  0.00  0.00    +0.000 F 
ATOM      2  C   UNL     1      44.945   7.663  12.108  0.00  0.00    +0.000 A 
ATOM      3  C   UNL     1      44.134   6.810  11.378  0.00  0.00    +0.000 A 
ATOM      4  C   UNL     1      44.381   5.429  11.390  0.00  0.00    +0.000 A 
ATOM      5  C   UNL     1      45.449   4.922  12.173  0.00  0.00    +0.000 A 
ATOM      6  C   UNL     1      46.286   5.790  12.895  0.00  0.00    +0.000 A 
ATOM      7  C   UNL     1      46.007   7.170  12.854  0.00  0.00    +0.000 A 
ENDROOT
BRANCH   6   8
ATOM      8  C   UNL     1      47.557   5.366  13.625  0.00  0.00    +0.000 C 
ATOM      9  C   UNL     1      47.316   4.049  14.394  0.00  0.00    +0.000 C 
ATOM     10  C   UNL     1      47.117   4.240  15.893  0.00  0.00    +0.000 C 
ATOM     11  C   UNL     1      48.215   5.116  16.469  0.00  0.00    +0.000 C 
ATOM     12  N   UNL     1      48.111   6.452  15.887  0.00  0.00    +0.000 NA
ATOM     13  C   UNL     1      48.335   6.430  14.436  0.00  0.00    +0.000 C 
ATOM     14  H   UNL     1      48.817   7.052  16.319  0.00  0.00    +0.000 HD
ENDBRANCH   6   8
BRANCH   4  15
ATOM     15  C   UNL     1      43.555   4.526  10.498  0.00  0.00    +0.000 C 
BRANCH  15  16
ATOM     16  N   UNL     1      43.991   4.599   9.114  0.00  0.00    +0.000 N 
ATOM     17  C   UNL     1      44.928   3.673   8.667  0.00  0.00    +0.000 A 
ATOM     18  C   UNL     1      44.978   2.334   9.082  0.00  0.00    +0.000 A 
ATOM     19  N   UNL     1      45.859   1.411   8.615  0.00  0.00    +0.000 NA
ATOM     20  C   UNL     1      46.705   1.874   7.678  0.00  0.00    +0.000 A 
ATOM     21  F   UNL     1      47.594   1.024   7.150  0.00  0.00    +0.000 F 
ATOM     22  C   UNL     1      46.669   3.189   7.244  0.00  0.00    +0.000 A 
ATOM     23  N   UNL     1      45.795   4.111   7.732  0.00  0.00    +0.000 NA
ATOM     24  H   UNL     1      44.260   5.518   8.782  0.00  0.00    +0.000 HD
ENDBRANCH  15  16
ENDBRANCH   4  15
TORSDOF 3
ENDMDL
MODEL 3
REMARK VINA RESULT:    -8.171      1.728      2.170
REMARK INTER + INTRA:         -10.150
REMARK INTER:                  -9.543
REMARK INTRA:                  -0.607
REMARK UNBOUND:                -0.546
REMARK  Name = 
REMARK  3 active torsions:
REMARK  status: ('A' for Active; 'I' for Inactive)
REMARK    1  A    between atoms: C_4  and  C_5
REMARK    2  A    between atoms: C_5  and  N_6
REMARK    3  A    between atoms: C_15  and  C_16
REMARK                            x       y       z     vdW  Elec       q    Type
REMARK                         _______ _______ _______ _____ _____    ______ ____
ROOT
ATOM      1  F   UNL     1      42.444   5.293  13.677  0.00  0.00    +0.000 F 
ATOM      2  C   UNL     1      43.431   5.146  12.784  0.00  0.00    +0.000 A 
ATOM      3  C   UNL     1      43.336   4.167  11.809  0.00  0.00    +0.000 A 
ATOM      4  C   UNL     1      44.345   4.042  10.843  0.00  0.00    +0.000 A 
ATOM      5  C   UNL     1      45.466   4.908  10.894  0.00  0.00    +0.000 A 
ATOM      6  C   UNL     1      45.550   5.917  11.869  0.00  0.00    +0.000 A 
ATOM      7  C   UNL     1      44.515   6.012  12.819  0.00  0.00    +0.000 A 
ENDROOT
BRANCH   6   8
ATOM      8  C   UNL     1      46.621   7.003  11.907  0.00  0.00    +0.000 C 
ATOM      9  C   UNL     1      47.899   6.471  12.590  0.00  0.00    +0.000 C 
ATOM     10  C   UNL     1      48.072   6.950  14.026  0.00  0.00    +0.000 C 
ATOM     11  C   UNL     1      47.891   8.456  14.111  0.00  0.00    +0.000 C 
ATOM     12  N   UNL     1      46.515   8.789  13.750  0.00  0.00    +0.000 NA
ATOM     13  C   UNL     1      46.217   8.427  12.359  0.00  0.00    +0.000 C 
ATOM     14  H   UNL     1      46.385   9.797  13.862  0.00  0.00    +0.000 HD
ENDBRANCH   6   8
BRANCH   4  15
ATOM     15  C   UNL     1      44.169   3.041   9.720  0.00  0.00    +0.000 C 
BRANCH  15  16
ATOM     16  N   UNL     1      45.379   2.267   9.500  0.00  0.00    +0.000 N 
ATOM     17  C   UNL     1      46.004   2.355   8.261  0.00  0.00    +0.000 A 
ATOM     18  C   UNL     1      46.077   3.527   7.493  0.00  0.00    +0.000 A 
ATOM     19  N   UNL     1      46.726   3.635   6.304  0.00  0.00    +0.000 NA
ATOM     20  C   UNL     1      47.335   2.507   5.900  0.00  0.00    +0.000 A 
ATOM     21  F   UNL     1      48.015   2.532   4.747  0.00  0.00    +0.000 F 
ATOM     22  C   UNL     1      47.287   1.340   6.643  0.00  0.00    +0.000 A 
ATOM     23  N   UNL     1      46.617   1.237   7.824  0.00  0.00    +0.000 NA
ATOM     24  H   UNL     1      45.336   1.291   9.772  0.00  0.00    +0.000 HD
ENDBRANCH  15  16
ENDBRANCH   4  15
TORSDOF 3
ENDMDL
MODEL 4
REMARK VINA RESULT:    -7.761      1.594      2.145
REMARK INTER + INTRA:          -9.668
REMARK INTER:                  -8.999
REMARK INTRA:                  -0.669
REMARK UNBOUND:                -0.546
REMARK  Name = 
REMARK  3 active torsions:
REMARK  status: ('A' for Active; 'I' for Inactive)
REMARK    1  A    between atoms: C_4  and  C_5
REMARK    2  A    between atoms: C_5  and  N_6
REMARK    3  A    between atoms: C_15  and  C_16
REMARK                            x       y       z     vdW  Elec       q    Type
REMARK                         _______ _______ _______ _____ _____    ______ ____
ROOT
ATOM      1  F   UNL     1      47.317   4.626  13.782  0.00  0.00    +0.000 F 
ATOM      2  C   UNL     1      46.473   5.338  13.025  0.00  0.00    +0.000 A 
ATOM      3  C   UNL     1      45.594   4.686  12.175  0.00  0.00    +0.000 A 
ATOM      4  C   UNL     1      44.675   5.427  11.417  0.00  0.00    +0.000 A 
ATOM      5  C   UNL     1      44.676   6.841  11.514  0.00  0.00    +0.000 A 
ATOM      6  C   UNL     1      45.551   7.500  12.395  0.00  0.00    +0.000 A 
ATOM      7  C   UNL     1      46.456   6.721  13.141  0.00  0.00    +0.000 A 
ENDROOT
BRANCH   6   8
ATOM      8  C   UNL     1      45.516   8.995  12.700  0.00  0.00    +0.000 C 
ATOM      9  C   UNL     1      44.343   9.665  11.951  0.00  0.00    +0.000 C 
ATOM     10  C   UNL     1      44.770  10.438  10.709  0.00  0.00    +0.000 C 
ATOM     11  C   UNL     1      45.928  11.366  11.030  0.00  0.00    +0.000 C 
ATOM     12  N   UNL     1      47.088  10.564  11.410  0.00  0.00    +0.000 NA
ATOM     13  C   UNL     1      46.839   9.796  12.635  0.00  0.00    +0.000 C 
ATOM     14  H   UNL     1      47.879  11.191  11.571  0.00  0.00    +0.000 HD
ENDBRANCH   6   8
BRANCH   4  15
ATOM     15  C   UNL     1      43.650   4.691  10.580  0.00  0.00    +0.000 C 
BRANCH  15  16
ATOM     16  N   UNL     1      43.991   4.723   9.168  0.00  0.00    +0.000 N 
ATOM     17  C   UNL     1      44.900   3.787   8.687  0.00  0.00    +0.000 A 
ATOM     18  C   UNL     1      44.984   2.461   9.137  0.00  0.00    +0.000 A 
ATOM     19  N   UNL     1      45.836   1.527   8.639  0.00  0.00    +0.000 NA
ATOM     20  C   UNL     1      46.614   1.963   7.634  0.00  0.00    +0.000 A 
ATOM     21  F   UNL     1      47.470   1.100   7.072  0.00  0.00    +0.000 F 
ATOM     22  C   UNL     1      46.545   3.265   7.164  0.00  0.00    +0.000 A 
ATOM     23  N   UNL     1      45.701   4.199   7.683  0.00  0.00    +0.000 NA
ATOM     24  H   UNL     1      44.234   5.633   8.791  0.00  0.00    +0.000 HD
ENDBRANCH  15  16
ENDBRANCH   4  15
TORSDOF 3
ENDMDL
MODEL 5
REMARK VINA RESULT:    -7.441      3.334      7.316
REMARK INTER + INTRA:          -9.292
REMARK INTER:                  -8.728
REMARK INTRA:                  -0.564
REMARK UNBOUND:                -0.546
REMARK  Name = 
REMARK  3 active torsions:
REMARK  status: ('A' for Active; 'I' for Inactive)
REMARK    1  A    between atoms: C_4  and  C_5
REMARK    2  A    between atoms: C_5  and  N_6
REMARK    3  A    between atoms: C_15  and  C_16
REMARK                            x       y       z     vdW  Elec       q    Type
REMARK                         _______ _______ _______ _____ _____    ______ ____
ROOT
ATOM      1  F   UNL     1      42.007   5.742  12.270  0.00  0.00    +0.000 F 
ATOM      2  C   UNL     1      43.230   5.402  11.843  0.00  0.00    +0.000 A 
ATOM      3  C   UNL     1      44.306   5.474  12.712  0.00  0.00    +0.000 A 
ATOM      4  C   UNL     1      45.580   5.072  12.281  0.00  0.00    +0.000 A 
ATOM      5  C   UNL     1      45.752   4.621  10.948  0.00  0.00    +0.000 A 
ATOM      6  C   UNL     1      44.655   4.526  10.075  0.00  0.00    +0.000 A 
ATOM      7  C   UNL     1      43.392   4.935  10.546  0.00  0.00    +0.000 A 
ENDROOT
BRANCH   6   8
ATOM      8  C   UNL     1      44.700   3.896   8.686  0.00  0.00    +0.000 C 
ATOM      9  C   UNL     1      44.512   2.367   8.786  0.00  0.00    +0.000 C 
ATOM     10  C   UNL     1      45.806   1.577   8.639  0.00  0.00    +0.000 C 
ATOM     11  C   UNL     1      46.577   2.040   7.415  0.00  0.00    +0.000 C 
ATOM     12  N   UNL     1      46.985   3.430   7.608  0.00  0.00    +0.000 NA
ATOM     13  C   UNL     1      45.827   4.325   7.714  0.00  0.00    +0.000 C 
ATOM     14  H   UNL     1      47.549   3.717   6.805  0.00  0.00    +0.000 HD
ENDBRANCH   6   8
BRANCH   4  15
ATOM     15  C   UNL     1      46.721   5.052  13.277  0.00  0.00    +0.000 C 
BRANCH  15  16
ATOM     16  N   UNL     1      46.871   3.742  13.890  0.00  0.00    +0.000 N 
ATOM     17  C   UNL     1      47.370   3.673  15.186  0.00  0.00    +0.000 A 
ATOM     18  C   UNL     1      47.090   4.609  16.193  0.00  0.00    +0.000 A 
ATOM     19  N   UNL     1      47.534   4.524  17.475  0.00  0.00    +0.000 NA
ATOM     20  C   UNL     1      48.274   3.432  17.735  0.00  0.00    +0.000 A 
ATOM     21  F   UNL     1      48.736   3.260  18.980  0.00  0.00    +0.000 F 
ATOM     22  C   UNL     1      48.557   2.488  16.761  0.00  0.00    +0.000 A 
ATOM     23  N   UNL     1      48.123   2.593  15.475  0.00  0.00    +0.000 NA
ATOM     24  H   UNL     1      47.336   3.040  13.326  0.00  0.00    +0.000 HD
ENDBRANCH  15  16
ENDBRANCH   4  15
TORSDOF 3
ENDMDL
MODEL 6
REMARK VINA RESULT:    -7.290      2.499      6.903
REMARK INTER + INTRA:          -9.115
REMARK INTER:                  -8.466
REMARK INTRA:                  -0.648
REMARK UNBOUND:                -0.546
REMARK  Name = 
REMARK  3 active torsions:
REMARK  status: ('A' for Active; 'I' for Inactive)
REMARK    1  A    between atoms: C_4  and  C_5
REMARK    2  A    between atoms: C_5  and  N_6
REMARK    3  A    between atoms: C_15  and  C_16
REMARK                            x       y       z     vdW  Elec       q    Type
REMARK                         _______ _______ _______ _____ _____    ______ ____
ROOT
ATOM      1  F   UNL     1      43.621   2.363  12.474  0.00  0.00    +0.000 F 
ATOM      2  C   UNL     1      44.162   3.230  11.609  0.00  0.00    +0.000 A 
ATOM      3  C   UNL     1      44.588   4.471  12.054  0.00  0.00    +0.000 A 
ATOM      4  C   UNL     1      45.199   5.363  11.159  0.00  0.00    +0.000 A 
ATOM      5  C   UNL     1      45.349   4.988   9.801  0.00  0.00    +0.000 A 
ATOM      6  C   UNL     1      44.938   3.720   9.355  0.00  0.00    +0.000 A 
ATOM      7  C   UNL     1      44.333   2.853  10.284  0.00  0.00    +0.000 A 
ENDROOT
BRANCH   6   8
ATOM      8  C   UNL     1      45.208   3.157   7.962  0.00  0.00    +0.000 C 
ATOM      9  C   UNL     1      45.331   1.619   8.022  0.00  0.00    +0.000 C 
ATOM     10  C   UNL     1      46.767   1.115   7.959  0.00  0.00    +0.000 C 
ATOM     11  C   UNL     1      47.509   1.763   6.803  0.00  0.00    +0.000 C 
ATOM     12  N   UNL     1      47.609   3.200   7.050  0.00  0.00    +0.000 NA
ATOM     13  C   UNL     1      46.287   3.837   7.085  0.00  0.00    +0.000 C 
ATOM     14  H   UNL     1      48.156   3.622   6.296  0.00  0.00    +0.000 HD
ENDBRANCH   6   8
BRANCH   4  15
ATOM     15  C   UNL     1      45.759   6.667  11.688  0.00  0.00    +0.000 C 
BRANCH  15  16
ATOM     16  N   UNL     1      47.200   6.737  11.517  0.00  0.00    +0.000 N 
ATOM     17  C   UNL     1      47.995   6.837  12.654  0.00  0.00    +0.000 A 
ATOM     18  C   UNL     1      47.719   6.198  13.872  0.00  0.00    +0.000 A 
ATOM     19  N   UNL     1      48.515   6.251  14.972  0.00  0.00    +0.000 NA
ATOM     20  C   UNL     1      49.640   6.970  14.810  0.00  0.00    +0.000 A 
ATOM     21  F   UNL     1      50.491   7.058  15.840  0.00  0.00    +0.000 F 
ATOM     22  C   UNL     1      49.940   7.603  13.615  0.00  0.00    +0.000 A 
ATOM     23  N   UNL     1      49.127   7.559  12.525  0.00  0.00    +0.000 NA
ATOM     24  H   UNL     1      47.533   7.404  10.830  0.00  0.00    +0.000 HD
ENDBRANCH  15  16
ENDBRANCH   4  15
TORSDOF 3
ENDMDL
MODEL 7
REMARK VINA RESULT:    -6.812      2.848      3.596
REMARK INTER + INTRA:          -8.552
REMARK INTER:                  -8.181
REMARK INTRA:                  -0.371
REMARK UNBOUND:                -0.546
REMARK  Name = 
REMARK  3 active torsions:
REMARK  status: ('A' for Active; 'I' for Inactive)
REMARK    1  A    between atoms: C_4  and  C_5
REMARK    2  A    between atoms: C_5  and  N_6
REMARK    3  A    between atoms: C_15  and  C_16
REMARK                            x       y       z     vdW  Elec       q    Type
REMARK                         _______ _______ _______ _____ _____    ______ ____
ROOT
ATOM      1  F   UNL     1      48.701   7.201  12.334  0.00  0.00    +0.000 F 
ATOM      2  C   UNL     1      47.812   6.373  12.895  0.00  0.00    +0.000 A 
ATOM      3  C   UNL     1      46.758   5.881  12.142  0.00  0.00    +0.000 A 
ATOM      4  C   UNL     1      45.853   4.975  12.714  0.00  0.00    +0.000 A 
ATOM      5  C   UNL     1      46.016   4.594  14.070  0.00  0.00    +0.000 A 
ATOM      6  C   UNL     1      47.098   5.075  14.827  0.00  0.00    +0.000 A 
ATOM      7  C   UNL     1      47.987   5.979  14.215  0.00  0.00    +0.000 A 
ENDROOT
BRANCH   6   8
ATOM      8  C   UNL     1      47.459   4.597  16.230  0.00  0.00    +0.000 C 
ATOM      9  C   UNL     1      48.382   5.623  16.923  0.00  0.00    +0.000 C 
ATOM     10  C   UNL     1      49.848   5.212  16.947  0.00  0.00    +0.000 C 
ATOM     11  C   UNL     1      49.994   3.788  17.455  0.00  0.00    +0.000 C 
ATOM     12  N   UNL     1      49.348   2.879  16.510  0.00  0.00    +0.000 NA
ATOM     13  C   UNL     1      47.904   3.127  16.421  0.00  0.00    +0.000 C 
ATOM     14  H   UNL     1      49.497   1.919  16.828  0.00  0.00    +0.000 HD
ENDBRANCH   6   8
BRANCH   4  15
ATOM     15  C   UNL     1      44.775   4.363  11.844  0.00  0.00    +0.000 C 
BRANCH  15  16
ATOM     16  N   UNL     1      44.811   4.900  10.494  0.00  0.00    +0.000 N 
ATOM     17  C   UNL     1      45.335   4.106   9.480  0.00  0.00    +0.000 A 
ATOM     18  C   UNL     1      45.178   2.714   9.404  0.00  0.00    +0.000 A 
ATOM     19  N   UNL     1      45.645   1.936   8.392  0.00  0.00    +0.000 NA
ATOM     20  C   UNL     1      46.280   2.612   7.419  0.00  0.00    +0.000 A 
ATOM     21  F   UNL     1      46.756   1.923   6.374  0.00  0.00    +0.000 F 
ATOM     22  C   UNL     1      46.441   3.987   7.466  0.00  0.00    +0.000 A 
ATOM     23  N   UNL     1      45.985   4.755   8.493  0.00  0.00    +0.000 NA
ATOM     24  H   UNL     1      45.189   5.836  10.399  0.00  0.00    +0.000 HD
ENDBRANCH  15  16
ENDBRANCH   4  15
TORSDOF 3
ENDMDL
MODEL 8
REMARK VINA RESULT:    -6.809      4.236      6.104
REMARK INTER + INTRA:          -8.549
REMARK INTER:                  -7.915
REMARK INTRA:                  -0.634
REMARK UNBOUND:                -0.546
REMARK  Name = 
REMARK  3 active torsions:
REMARK  status: ('A' for Active; 'I' for Inactive)
REMARK    1  A    between atoms: C_4  and  C_5
REMARK    2  A    between atoms: C_5  and  N_6
REMARK    3  A    between atoms: C_15  and  C_16
REMARK                            x       y       z     vdW  Elec       q    Type
REMARK                         _______ _______ _______ _____ _____    ______ ____
ROOT
ATOM      1  F   UNL     1      50.197   8.684  16.704  0.00  0.00    +0.000 F 
ATOM      2  C   UNL     1      49.476   7.630  16.301  0.00  0.00    +0.000 A 
ATOM      3  C   UNL     1      48.783   7.688  15.103  0.00  0.00    +0.000 A 
ATOM      4  C   UNL     1      48.067   6.568  14.655  0.00  0.00    +0.000 A 
ATOM      5  C   UNL     1      48.042   5.396  15.452  0.00  0.00    +0.000 A 
ATOM      6  C   UNL     1      48.764   5.330  16.656  0.00  0.00    +0.000 A 
ATOM      7  C   UNL     1      49.474   6.474  17.069  0.00  0.00    +0.000 A 
ENDROOT
BRANCH   6   8
ATOM      8  C   UNL     1      48.942   4.069  17.496  0.00  0.00    +0.000 C 
ATOM      9  C   UNL     1      50.341   4.054  18.148  0.00  0.00    +0.000 C 
ATOM     10  C   UNL     1      51.333   3.129  17.455  0.00  0.00    +0.000 C 
ATOM     11  C   UNL     1      50.720   1.755  17.241  0.00  0.00    +0.000 C 
ATOM     12  N   UNL     1      49.590   1.877  16.324  0.00  0.00    +0.000 NA
ATOM     13  C   UNL     1      48.521   2.709  16.889  0.00  0.00    +0.000 C 
ATOM     14  H   UNL     1      49.217   0.942  16.142  0.00  0.00    +0.000 HD
ENDBRANCH   6   8
BRANCH   4  15
ATOM     15  C   UNL     1      47.410   6.613  13.291  0.00  0.00    +0.000 C 
BRANCH  15  16
ATOM     16  N   UNL     1      45.961   6.651  13.397  0.00  0.00    +0.000 N 
ATOM     17  C   UNL     1      45.236   5.555  12.941  0.00  0.00    +0.000 A 
ATOM     18  C   UNL     1      45.659   4.222  13.057  0.00  0.00    +0.000 A 
ATOM     19  N   UNL     1      44.936   3.144  12.657  0.00  0.00    +0.000 NA
ATOM     20  C   UNL     1      43.733   3.442  12.137  0.00  0.00    +0.000 A 
ATOM     21  F   UNL     1      42.947   2.435  11.736  0.00  0.00    +0.000 F 
ATOM     22  C   UNL     1      43.288   4.749  12.020  0.00  0.00    +0.000 A 
ATOM     23  N   UNL     1      44.028   5.824  12.406  0.00  0.00    +0.000 NA
ATOM     24  H   UNL     1      45.514   7.497  13.062  0.00  0.00    +0.000 HD
ENDBRANCH  15  16
ENDBRANCH   4  15
TORSDOF 3
ENDMDL
MODEL 9
REMARK VINA RESULT:    -6.441      3.655      7.803
REMARK INTER + INTRA:          -8.117
REMARK INTER:                  -7.538
REMARK INTRA:                  -0.579
REMARK UNBOUND:                -0.546
REMARK  Name = 
REMARK  3 active torsions:
REMARK  status: ('A' for Active; 'I' for Inactive)
REMARK    1  A    between atoms: C_4  and  C_5
REMARK    2  A    between atoms: C_5  and  N_6
REMARK    3  A    between atoms: C_15  and  C_16
REMARK                            x       y       z     vdW  Elec       q    Type
REMARK                         _______ _______ _______ _____ _____    ______ ____
ROOT
ATOM      1  F   UNL     1      45.339  10.151  12.207  0.00  0.00    +0.000 F 
ATOM      2  C   UNL     1      45.672   8.859  12.315  0.00  0.00    +0.000 A 
ATOM      3  C   UNL     1      46.724   8.486  13.137  0.00  0.00    +0.000 A 
ATOM      4  C   UNL     1      47.044   7.128  13.289  0.00  0.00    +0.000 A 
ATOM      5  C   UNL     1      46.299   6.155  12.577  0.00  0.00    +0.000 A 
ATOM      6  C   UNL     1      45.217   6.533  11.762  0.00  0.00    +0.000 A 
ATOM      7  C   UNL     1      44.925   7.905  11.638  0.00  0.00    +0.000 A 
ENDROOT
BRANCH   6   8
ATOM      8  C   UNL     1      44.251   5.560  11.094  0.00  0.00    +0.000 C 
ATOM      9  C   UNL     1      43.086   5.221  12.050  0.00  0.00    +0.000 C 
ATOM     10  C   UNL     1      43.214   3.856  12.714  0.00  0.00    +0.000 C 
ATOM     11  C   UNL     1      43.513   2.786  11.678  0.00  0.00    +0.000 C 
ATOM     12  N   UNL     1      44.819   3.055  11.082  0.00  0.00    +0.000 NA
ATOM     13  C   UNL     1      44.830   4.330  10.354  0.00  0.00    +0.000 C 
ATOM     14  H   UNL     1      45.039   2.302  10.426  0.00  0.00    +0.000 HD
ENDBRANCH   6   8
BRANCH   4  15
ATOM     15  C   UNL     1      48.122   6.734  14.277  0.00  0.00    +0.000 C 
BRANCH  15  16
ATOM     16  N   UNL     1      47.717   5.593  15.082  0.00  0.00    +0.000 N 
ATOM     17  C   UNL     1      48.389   5.357  16.276  0.00  0.00    +0.000 A 
ATOM     18  C   UNL     1      48.861   6.363  17.132  0.00  0.00    +0.000 A 
ATOM     19  N   UNL     1      49.475   6.141  18.324  0.00  0.00    +0.000 NA
ATOM     20  C   UNL     1      49.592   4.844  18.656  0.00  0.00    +0.000 A 
ATOM     21  F   UNL     1      50.168   4.537  19.825  0.00  0.00    +0.000 F 
ATOM     22  C   UNL     1      49.126   3.831  17.833  0.00  0.00    +0.000 A 
ATOM     23  N   UNL     1      48.529   4.064  16.632  0.00  0.00    +0.000 NA
ATOM     24  H   UNL     1      47.619   4.714  14.586  0.00  0.00    +0.000 HD
ENDBRANCH  15  16
ENDBRANCH   4  15
TORSDOF 3
ENDMDL
