MODEL 1
REMARK VINA RESULT:    -8.369      0.000      0.000
REMARK INTER + INTRA:         -13.268
REMARK INTER:                 -12.038
REMARK INTRA:                  -1.230
REMARK UNBOUND:                -1.230
REMARK  Name = 
REMARK  8 active torsions:
REMARK  status: ('A' for Active; 'I' for Inactive)
REMARK    1  A    between atoms: N_1  and  C_2
REMARK    2  A    between atoms: C_7  and  C_8
REMARK    3  A    between atoms: N_10  and  C_11
REMARK    4  A    between atoms: C_11  and  C_12
REMARK    5  A    between atoms: C_15  and  C_16
REMARK    6  A    between atoms: C_16  and  C_17
REMARK    7  A    between atoms: C_17  and  C_18
REMARK    8  A    between atoms: C_18  and  C_19
REMARK                            x       y       z     vdW  Elec       q    Type
REMARK                         _______ _______ _______ _____ _____    ______ ____
ROOT
ATOM      1  C   UNL     1      48.524   6.958  14.618  0.00  0.00    +0.000 C 
ATOM      2  O   UNL     1      49.207   6.537  13.688  0.00  0.00    +0.000 OA
ATOM      3  N   UNL     1      47.454   7.791  14.415  0.00  0.00    +0.000 N 
ATOM      4  H   UNL     1      46.914   8.120  15.211  0.00  0.00    +0.000 HD
ENDROOT
BRANCH   1  10
ATOM      5  C   UNL     1      48.887   4.230  18.798  0.00  0.00    +0.000 A 
ATOM      6  N   UNL     1      48.394   3.117  18.234  0.00  0.00    +0.000 NA
ATOM      7  C   UNL     1      48.037   3.163  16.942  0.00  0.00    +0.000 A 
ATOM      8  N   UNL     1      48.114   4.206  16.105  0.00  0.00    +0.000 NA
ATOM      9  C   UNL     1      48.626   5.335  16.670  0.00  0.00    +0.000 A 
ATOM     10  C   UNL     1      48.819   6.596  16.004  0.00  0.00    +0.000 A 
ATOM     11  C   UNL     1      49.361   7.530  16.873  0.00  0.00    +0.000 A 
ATOM     12  S   UNL     1      49.627   6.922  18.437  0.00  0.00    +0.000 S 
ATOM     13  C   UNL     1      49.021   5.373  18.007  0.00  0.00    +0.000 A 
BRANCH   5  14
ATOM     14  N   UNL     1      49.216   4.187  20.136  0.00  0.00    +0.000 N 
ATOM     15  H   UNL     1      50.109   3.776  20.366  0.00  0.00    +0.000 HD
ATOM     16  H   UNL     1      48.768   4.820  20.782  0.00  0.00    +0.000 HD
ENDBRANCH   5  14
ENDBRANCH   1  10
BRANCH   3  17
ATOM     17  C   UNL     1      47.105   8.203  13.078  0.00  0.00    +0.000 C 
BRANCH  17  18
ATOM     18  C   UNL     1      46.256   7.184  12.369  0.00  0.00    +0.000 A 
ATOM     19  C   UNL     1      46.625   6.712  11.103  0.00  0.00    +0.000 A 
ATOM     20  C   UNL     1      45.847   5.754  10.450  0.00  0.00    +0.000 A 
ATOM     21  C   UNL     1      44.687   5.245  11.050  0.00  0.00    +0.000 A 
ATOM     22  C   UNL     1      44.310   5.733  12.308  0.00  0.00    +0.000 A 
ATOM     23  C   UNL     1      45.085   6.696  12.959  0.00  0.00    +0.000 A 
BRANCH  21  24
ATOM     24  C   UNL     1      43.847   4.197  10.357  0.00  0.00    +0.000 C 
BRANCH  24  25
ATOM     25  C   UNL     1      44.500   2.811  10.390  0.00  0.00    +0.000 C 
BRANCH  25  26
ATOM     26  C   UNL     1      44.330   2.077   9.059  0.00  0.00    +0.000 C 
BRANCH  26  27
ATOM     27  C   UNL     1      45.550   2.244   8.186  0.00  0.00    +0.000 A 
ATOM     28  C   UNL     1      45.805   3.459   7.537  0.00  0.00    +0.000 A 
ATOM     29  C   UNL     1      46.917   3.594   6.704  0.00  0.00    +0.000 A 
ATOM     30  C   UNL     1      47.781   2.517   6.509  0.00  0.00    +0.000 A 
ATOM     31  C   UNL     1      47.531   1.302   7.146  0.00  0.00    +0.000 A 
ATOM     32  C   UNL     1      46.420   1.166   7.979  0.00  0.00    +0.000 A 
ENDBRANCH  26  27
ENDBRANCH  25  26
ENDBRANCH  24  25
ENDBRANCH  21  24
ENDBRANCH  17  18
ENDBRANCH   3  17
TORSDOF 8
ENDMDL
MODEL 2
REMARK VINA RESULT:    -7.987      1.573      2.033
REMARK INTER + INTRA:         -12.720
REMARK INTER:                 -11.313
REMARK INTRA:                  -1.406
REMARK UNBOUND:                -1.230
REMARK  Name = 
REMARK  8 active torsions:
REMARK  status: ('A' for Active; 'I' for Inactive)
REMARK    1  A    between atoms: N_1  and  C_2
REMARK    2  A    between atoms: C_7  and  C_8
REMARK    3  A    between atoms: N_10  and  C_11
REMARK    4  A    between atoms: C_11  and  C_12
REMARK    5  A    between atoms: C_15  and  C_16
REMARK    6  A    between atoms: C_16  and  C_17
REMARK    7  A    between atoms: C_17  and  C_18
REMARK    8  A    between atoms: C_18  and  C_19
REMARK                            x       y       z     vdW  Elec       q    Type
REMARK                         _______ _______ _______ _____ _____    ______ ____
ROOT
ATOM      1  C   UNL     1      48.661   7.542  15.813  0.00  0.00    +0.000 C 
ATOM      2  O   UNL     1      48.454   8.728  15.572  0.00  0.00    +0.000 OA
ATOM      3  N   UNL     1      48.679   6.591  14.825  0.00  0.00    +0.000 N 
ATOM      4  H   UNL     1      48.851   5.618  15.066  0.00  0.00    +0.000 HD
ENDROOT
BRANCH   1  10
ATOM      5  C   UNL     1      50.511   4.878  19.626  0.00  0.00    +0.000 A 
ATOM      6  N   UNL     1      51.312   4.134  18.848  0.00  0.00    +0.000 NA
ATOM      7  C   UNL     1      51.302   4.358  17.526  0.00  0.00    +0.000 A 
ATOM      8  N   UNL     1      50.580   5.263  16.851  0.00  0.00    +0.000 NA
ATOM      9  C   UNL     1      49.774   6.029  17.638  0.00  0.00    +0.000 A 
ATOM     10  C   UNL     1      48.896   7.072  17.179  0.00  0.00    +0.000 A 
ATOM     11  C   UNL     1      48.223   7.650  18.245  0.00  0.00    +0.000 A 
ATOM     12  S   UNL     1      48.627   6.967  19.747  0.00  0.00    +0.000 S 
ATOM     13  C   UNL     1      49.724   5.861  19.022  0.00  0.00    +0.000 A 
BRANCH   5  14
ATOM     14  N   UNL     1      50.497   4.617  20.979  0.00  0.00    +0.000 N 
ATOM     15  H   UNL     1      50.618   5.411  21.590  0.00  0.00    +0.000 HD
ATOM     16  H   UNL     1      50.059   3.775  21.321  0.00  0.00    +0.000 HD
ENDBRANCH   5  14
ENDBRANCH   1  10
BRANCH   3  17
ATOM     17  C   UNL     1      48.444   6.972  13.455  0.00  0.00    +0.000 C 
BRANCH  17  18
ATOM     18  C   UNL     1      47.278   6.239  12.849  0.00  0.00    +0.000 A 
ATOM     19  C   UNL     1      46.686   5.166  13.527  0.00  0.00    +0.000 A 
ATOM     20  C   UNL     1      45.594   4.496  12.974  0.00  0.00    +0.000 A 
ATOM     21  C   UNL     1      45.068   4.885  11.734  0.00  0.00    +0.000 A 
ATOM     22  C   UNL     1      45.675   5.946  11.050  0.00  0.00    +0.000 A 
ATOM     23  C   UNL     1      46.771   6.614  11.601  0.00  0.00    +0.000 A 
BRANCH  21  24
ATOM     24  C   UNL     1      43.876   4.175  11.135  0.00  0.00    +0.000 C 
BRANCH  24  25
ATOM     25  C   UNL     1      44.104   3.786   9.671  0.00  0.00    +0.000 C 
BRANCH  25  26
ATOM     26  C   UNL     1      44.823   2.442   9.551  0.00  0.00    +0.000 C 
BRANCH  26  27
ATOM     27  C   UNL     1      45.712   2.407   8.331  0.00  0.00    +0.000 A 
ATOM     28  C   UNL     1      46.456   1.261   8.020  0.00  0.00    +0.000 A 
ATOM     29  C   UNL     1      47.301   1.249   6.909  0.00  0.00    +0.000 A 
ATOM     30  C   UNL     1      47.415   2.381   6.103  0.00  0.00    +0.000 A 
ATOM     31  C   UNL     1      46.683   3.528   6.409  0.00  0.00    +0.000 A 
ATOM     32  C   UNL     1      45.837   3.541   7.519  0.00  0.00    +0.000 A 
ENDBRANCH  26  27
ENDBRANCH  25  26
ENDBRANCH  24  25
ENDBRANCH  21  24
ENDBRANCH  17  18
ENDBRANCH   3  17
TORSDOF 8
ENDMDL
MODEL 3
REMARK VINA RESULT:    -7.862      2.390      3.016
REMARK INTER + INTRA:         -12.539
REMARK INTER:                 -11.238
REMARK INTRA:                  -1.300
REMARK UNBOUND:                -1.230
REMARK  Name = 
REMARK  8 active torsions:
REMARK  status: ('A' for Active; 'I' for Inactive)
REMARK    1  A    between atoms: N_1  and  C_2
REMARK    2  A    between atoms: C_7  and  C_8
REMARK    3  A    between atoms: N_10  and  C_11
REMARK    4  A    between atoms: C_11  and  C_12
REMARK    5  A    between atoms: C_15  and  C_16
REMARK    6  A    between atoms: C_16  and  C_17
REMARK    7  A    between atoms: C_17  and  C_18
REMARK    8  A    between atoms: C_18  and  C_19
REMARK                            x       y       z     vdW  Elec       q    Type
REMARK                         _______ _______ _______ _____ _____    ______ ____
ROOT
ATOM      1  C   UNL     1      48.675   5.976  16.529  0.00  0.00    +0.000 C 
ATOM      2  O   UNL     1      49.470   5.071  16.287  0.00  0.00    +0.000 OA
ATOM      3  N   UNL     1      48.089   6.715  15.534  0.00  0.00    +0.000 N 
ATOM      4  H   UNL     1      47.438   7.458  15.776  0.00  0.00    +0.000 HD
ENDROOT
BRANCH   1  10
ATOM      5  C   UNL     1      47.438   8.726  20.524  0.00  0.00    +0.000 A 
ATOM      6  N   UNL     1      47.445   9.887  19.852  0.00  0.00    +0.000 NA
ATOM      7  C   UNL     1      47.747   9.864  18.546  0.00  0.00    +0.000 A 
ATOM      8  N   UNL     1      48.048   8.799  17.790  0.00  0.00    +0.000 NA
ATOM      9  C   UNL     1      48.029   7.617  18.465  0.00  0.00    +0.000 A 
ATOM     10  C   UNL     1      48.312   6.322  17.904  0.00  0.00    +0.000 A 
ATOM     11  C   UNL     1      48.201   5.334  18.870  0.00  0.00    +0.000 A 
ATOM     12  S   UNL     1      47.776   5.934  20.401  0.00  0.00    +0.000 S 
ATOM     13  C   UNL     1      47.725   7.551  19.825  0.00  0.00    +0.000 A 
BRANCH   5  14
ATOM     14  N   UNL     1      47.164   8.761  21.875  0.00  0.00    +0.000 N 
ATOM     15  H   UNL     1      46.394   8.189  22.191  0.00  0.00    +0.000 HD
ATOM     16  H   UNL     1      47.880   9.051  22.523  0.00  0.00    +0.000 HD
ENDBRANCH   5  14
ENDBRANCH   1  10
BRANCH   3  17
ATOM     17  C   UNL     1      48.405   6.443  14.154  0.00  0.00    +0.000 C 
BRANCH  17  18
ATOM     18  C   UNL     1      47.239   5.857  13.406  0.00  0.00    +0.000 A 
ATOM     19  C   UNL     1      46.545   6.624  12.462  0.00  0.00    +0.000 A 
ATOM     20  C   UNL     1      45.473   6.076  11.754  0.00  0.00    +0.000 A 
ATOM     21  C   UNL     1      45.075   4.750  11.974  0.00  0.00    +0.000 A 
ATOM     22  C   UNL     1      45.758   3.992  12.933  0.00  0.00    +0.000 A 
ATOM     23  C   UNL     1      46.827   4.542  13.645  0.00  0.00    +0.000 A 
BRANCH  21  24
ATOM     24  C   UNL     1      43.925   4.145  11.202  0.00  0.00    +0.000 C 
BRANCH  24  25
ATOM     25  C   UNL     1      44.276   3.896   9.732  0.00  0.00    +0.000 C 
BRANCH  25  26
ATOM     26  C   UNL     1      44.813   2.481   9.512  0.00  0.00    +0.000 C 
BRANCH  26  27
ATOM     27  C   UNL     1      45.745   2.431   8.326  0.00  0.00    +0.000 A 
ATOM     28  C   UNL     1      45.889   3.540   7.482  0.00  0.00    +0.000 A 
ATOM     29  C   UNL     1      46.727   3.473   6.367  0.00  0.00    +0.000 A 
ATOM     30  C   UNL     1      47.424   2.300   6.084  0.00  0.00    +0.000 A 
ATOM     31  C   UNL     1      47.281   1.189   6.914  0.00  0.00    +0.000 A 
ATOM     32  C   UNL     1      46.444   1.254   8.029  0.00  0.00    +0.000 A 
ENDBRANCH  26  27
ENDBRANCH  25  26
ENDBRANCH  24  25
ENDBRANCH  21  24
ENDBRANCH  17  18
ENDBRANCH   3  17
TORSDOF 8
ENDMDL
MODEL 4
REMARK VINA RESULT:    -7.060      3.854      9.639
REMARK INTER + INTRA:         -11.386
REMARK INTER:                  -9.346
REMARK INTRA:                  -2.040
REMARK UNBOUND:                -1.230
REMARK  Name = 
REMARK  8 active torsions:
REMARK  status: ('A' for Active; 'I' for Inactive)
REMARK    1  A    between atoms: N_1  and  C_2
REMARK    2  A    between atoms: C_7  and  C_8
REMARK    3  A    between atoms: N_10  and  C_11
REMARK    4  A    between atoms: C_11  and  C_12
REMARK    5  A    between atoms: C_15  and  C_16
REMARK    6  A    between atoms: C_16  and  C_17
REMARK    7  A    between atoms: C_17  and  C_18
REMARK    8  A    between atoms: C_18  and  C_19
REMARK                            x       y       z     vdW  Elec       q    Type
REMARK                         _______ _______ _______ _____ _____    ______ ____
ROOT
ATOM      1  C   UNL     1      47.236   4.543  14.517  0.00  0.00    +0.000 C 
ATOM      2  O   UNL     1      47.656   3.462  14.113  0.00  0.00    +0.000 OA
ATOM      3  N   UNL     1      47.502   5.000  15.782  0.00  0.00    +0.000 N 
ATOM      4  H   UNL     1      47.134   5.899  16.080  0.00  0.00    +0.000 HD
ENDROOT
BRANCH   1  10
ATOM      5  C   UNL     1      43.416   6.123  11.695  0.00  0.00    +0.000 A 
ATOM      6  N   UNL     1      42.698   5.003  11.865  0.00  0.00    +0.000 NA
ATOM      7  C   UNL     1      43.215   4.022  12.619  0.00  0.00    +0.000 A 
ATOM      8  N   UNL     1      44.394   4.011  13.256  0.00  0.00    +0.000 NA
ATOM      9  C   UNL     1      45.122   5.151  13.097  0.00  0.00    +0.000 A 
ATOM     10  C   UNL     1      46.418   5.408  13.667  0.00  0.00    +0.000 A 
ATOM     11  C   UNL     1      46.871   6.667  13.305  0.00  0.00    +0.000 A 
ATOM     12  S   UNL     1      45.784   7.515  12.312  0.00  0.00    +0.000 S 
ATOM     13  C   UNL     1      44.658   6.218  12.328  0.00  0.00    +0.000 A 
BRANCH   5  14
ATOM     14  N   UNL     1      42.896   7.111  10.887  0.00  0.00    +0.000 N 
ATOM     15  H   UNL     1      43.527   7.519  10.214  0.00  0.00    +0.000 HD
ATOM     16  H   UNL     1      41.898   7.169  10.748  0.00  0.00    +0.000 HD
ENDBRANCH   5  14
ENDBRANCH   1  10
BRANCH   3  17
ATOM     17  C   UNL     1      48.292   4.200  16.685  0.00  0.00    +0.000 C 
BRANCH  17  18
ATOM     18  C   UNL     1      48.170   4.660  18.112  0.00  0.00    +0.000 A 
ATOM     19  C   UNL     1      49.173   4.359  19.042  0.00  0.00    +0.000 A 
ATOM     20  C   UNL     1      49.068   4.799  20.363  0.00  0.00    +0.000 A 
ATOM     21  C   UNL     1      47.961   5.551  20.781  0.00  0.00    +0.000 A 
ATOM     22  C   UNL     1      46.950   5.833  19.854  0.00  0.00    +0.000 A 
ATOM     23  C   UNL     1      47.052   5.388  18.533  0.00  0.00    +0.000 A 
BRANCH  21  24
ATOM     24  C   UNL     1      47.847   6.043  22.205  0.00  0.00    +0.000 C 
BRANCH  24  25
ATOM     25  C   UNL     1      47.575   7.549  22.282  0.00  0.00    +0.000 C 
BRANCH  25  26
ATOM     26  C   UNL     1      48.784   8.364  21.819  0.00  0.00    +0.000 C 
BRANCH  26  27
ATOM     27  C   UNL     1      48.634   8.791  20.379  0.00  0.00    +0.000 A 
ATOM     28  C   UNL     1      47.515   9.525  19.964  0.00  0.00    +0.000 A 
ATOM     29  C   UNL     1      47.367   9.887  18.623  0.00  0.00    +0.000 A 
ATOM     30  C   UNL     1      48.331   9.515  17.687  0.00  0.00    +0.000 A 
ATOM     31  C   UNL     1      49.443   8.778  18.091  0.00  0.00    +0.000 A 
ATOM     32  C   UNL     1      49.593   8.417  19.430  0.00  0.00    +0.000 A 
ENDBRANCH  26  27
ENDBRANCH  25  26
ENDBRANCH  24  25
ENDBRANCH  21  24
ENDBRANCH  17  18
ENDBRANCH   3  17
TORSDOF 8
ENDMDL
MODEL 5
REMARK VINA RESULT:    -6.995      3.797      8.905
REMARK INTER + INTRA:         -11.292
REMARK INTER:                  -9.005
REMARK INTRA:                  -2.287
REMARK UNBOUND:                -1.230
REMARK  Name = 
REMARK  8 active torsions:
REMARK  status: ('A' for Active; 'I' for Inactive)
REMARK    1  A    between atoms: N_1  and  C_2
REMARK    2  A    between atoms: C_7  and  C_8
REMARK    3  A    between atoms: N_10  and  C_11
REMARK    4  A    between atoms: C_11  and  C_12
REMARK    5  A    between atoms: C_15  and  C_16
REMARK    6  A    between atoms: C_16  and  C_17
REMARK    7  A    between atoms: C_17  and  C_18
REMARK    8  A    between atoms: C_18  and  C_19
REMARK                            x       y       z     vdW  Elec       q    Type
REMARK                         _______ _______ _______ _____ _____    ______ ____
ROOT
ATOM      1  C   UNL     1      47.065   4.011  14.551  0.00  0.00    +0.000 C 
ATOM      2  O   UNL     1      47.698   3.109  14.008  0.00  0.00    +0.000 OA
ATOM      3  N   UNL     1      46.974   4.116  15.915  0.00  0.00    +0.000 N 
ATOM      4  H   UNL     1      46.438   4.875  16.327  0.00  0.00    +0.000 HD
ENDROOT
BRANCH   1  10
ATOM      5  C   UNL     1      43.549   6.182  11.726  0.00  0.00    +0.000 A 
ATOM      6  N   UNL     1      42.751   5.103  11.715  0.00  0.00    +0.000 NA
ATOM      7  C   UNL     1      43.154   4.006  12.372  0.00  0.00    +0.000 A 
ATOM      8  N   UNL     1      44.285   3.836  13.070  0.00  0.00    +0.000 NA
ATOM      9  C   UNL     1      45.093   4.931  13.096  0.00  0.00    +0.000 A 
ATOM     10  C   UNL     1      46.362   5.027  13.767  0.00  0.00    +0.000 A 
ATOM     11  C   UNL     1      46.917   6.284  13.590  0.00  0.00    +0.000 A 
ATOM     12  S   UNL     1      45.954   7.319  12.648  0.00  0.00    +0.000 S 
ATOM     13  C   UNL     1      44.749   6.113  12.438  0.00  0.00    +0.000 A 
BRANCH   5  14
ATOM     14  N   UNL     1      43.147   7.294  11.018  0.00  0.00    +0.000 N 
ATOM     15  H   UNL     1      42.690   8.022  11.546  0.00  0.00    +0.000 HD
ATOM     16  H   UNL     1      43.581   7.505  10.132  0.00  0.00    +0.000 HD
ENDBRANCH   5  14
ENDBRANCH   1  10
BRANCH   3  17
ATOM     17  C   UNL     1      47.630   3.147  16.757  0.00  0.00    +0.000 C 
BRANCH  17  18
ATOM     18  C   UNL     1      48.718   3.760  17.595  0.00  0.00    +0.000 A 
ATOM     19  C   UNL     1      50.052   3.373  17.417  0.00  0.00    +0.000 A 
ATOM     20  C   UNL     1      51.065   3.954  18.183  0.00  0.00    +0.000 A 
ATOM     21  C   UNL     1      50.767   4.934  19.138  0.00  0.00    +0.000 A 
ATOM     22  C   UNL     1      49.430   5.305  19.328  0.00  0.00    +0.000 A 
ATOM     23  C   UNL     1      48.415   4.721  18.566  0.00  0.00    +0.000 A 
BRANCH  21  24
ATOM     24  C   UNL     1      51.860   5.578  19.961  0.00  0.00    +0.000 C 
BRANCH  24  25
ATOM     25  C   UNL     1      51.901   7.100  19.787  0.00  0.00    +0.000 C 
BRANCH  25  26
ATOM     26  C   UNL     1      52.389   7.494  18.392  0.00  0.00    +0.000 C 
BRANCH  26  27
ATOM     27  C   UNL     1      51.230   7.691  17.445  0.00  0.00    +0.000 A 
ATOM     28  C   UNL     1      50.153   8.516  17.795  0.00  0.00    +0.000 A 
ATOM     29  C   UNL     1      49.068   8.666  16.928  0.00  0.00    +0.000 A 
ATOM     30  C   UNL     1      49.049   7.990  15.709  0.00  0.00    +0.000 A 
ATOM     31  C   UNL     1      50.113   7.162  15.356  0.00  0.00    +0.000 A 
ATOM     32  C   UNL     1      51.197   7.012  16.221  0.00  0.00    +0.000 A 
ENDBRANCH  26  27
ENDBRANCH  25  26
ENDBRANCH  24  25
ENDBRANCH  21  24
ENDBRANCH  17  18
ENDBRANCH   3  17
TORSDOF 8
ENDMDL
MODEL 6
REMARK VINA RESULT:    -6.939      3.880      8.152
REMARK INTER + INTRA:         -11.211
REMARK INTER:                  -8.973
REMARK INTRA:                  -2.238
REMARK UNBOUND:                -1.230
REMARK  Name = 
REMARK  8 active torsions:
REMARK  status: ('A' for Active; 'I' for Inactive)
REMARK    1  A    between atoms: N_1  and  C_2
REMARK    2  A    between atoms: C_7  and  C_8
REMARK    3  A    between atoms: N_10  and  C_11
REMARK    4  A    between atoms: C_11  and  C_12
REMARK    5  A    between atoms: C_15  and  C_16
REMARK    6  A    between atoms: C_16  and  C_17
REMARK    7  A    between atoms: C_17  and  C_18
REMARK    8  A    between atoms: C_18  and  C_19
REMARK                            x       y       z     vdW  Elec       q    Type
REMARK                         _______ _______ _______ _____ _____    ______ ____
ROOT
ATOM      1  C   UNL     1      46.012   8.043  12.817  0.00  0.00    +0.000 C 
ATOM      2  O   UNL     1      45.853   9.168  12.348  0.00  0.00    +0.000 OA
ATOM      3  N   UNL     1      46.955   7.782  13.777  0.00  0.00    +0.000 N 
ATOM      4  H   UNL     1      47.057   6.837  14.138  0.00  0.00    +0.000 HD
ENDROOT
BRANCH   1  10
ATOM      5  C   UNL     1      44.492   3.328  12.105  0.00  0.00    +0.000 A 
ATOM      6  N   UNL     1      45.508   2.791  12.798  0.00  0.00    +0.000 NA
ATOM      7  C   UNL     1      46.419   3.615  13.335  0.00  0.00    +0.000 A 
ATOM      8  N   UNL     1      46.450   4.954  13.278  0.00  0.00    +0.000 NA
ATOM      9  C   UNL     1      45.414   5.505  12.587  0.00  0.00    +0.000 A 
ATOM     10  C   UNL     1      45.200   6.911  12.369  0.00  0.00    +0.000 A 
ATOM     11  C   UNL     1      44.050   7.123  11.626  0.00  0.00    +0.000 A 
ATOM     12  S   UNL     1      43.251   5.686  11.198  0.00  0.00    +0.000 S 
ATOM     13  C   UNL     1      44.424   4.719  11.996  0.00  0.00    +0.000 A 
BRANCH   5  14
ATOM     14  N   UNL     1      43.581   2.473  11.522  0.00  0.00    +0.000 N 
ATOM     15  H   UNL     1      43.852   2.060  10.642  0.00  0.00    +0.000 HD
ATOM     16  H   UNL     1      42.871   2.037  12.091  0.00  0.00    +0.000 HD
ENDBRANCH   5  14
ENDBRANCH   1  10
BRANCH   3  17
ATOM     17  C   UNL     1      47.802   8.843  14.262  0.00  0.00    +0.000 C 
BRANCH  17  18
ATOM     18  C   UNL     1      48.796   8.360  15.283  0.00  0.00    +0.000 A 
ATOM     19  C   UNL     1      48.860   8.958  16.547  0.00  0.00    +0.000 A 
ATOM     20  C   UNL     1      49.771   8.499  17.501  0.00  0.00    +0.000 A 
ATOM     21  C   UNL     1      50.633   7.433  17.213  0.00  0.00    +0.000 A 
ATOM     22  C   UNL     1      50.580   6.850  15.941  0.00  0.00    +0.000 A 
ATOM     23  C   UNL     1      49.672   7.311  14.984  0.00  0.00    +0.000 A 
BRANCH  21  24
ATOM     24  C   UNL     1      51.611   6.921  18.245  0.00  0.00    +0.000 C 
BRANCH  24  25
ATOM     25  C   UNL     1      51.825   5.407  18.146  0.00  0.00    +0.000 C 
BRANCH  25  26
ATOM     26  C   UNL     1      50.879   4.644  19.073  0.00  0.00    +0.000 C 
BRANCH  26  27
ATOM     27  C   UNL     1      49.620   4.233  18.348  0.00  0.00    +0.000 A 
ATOM     28  C   UNL     1      49.621   3.137  17.476  0.00  0.00    +0.000 A 
ATOM     29  C   UNL     1      48.461   2.785  16.783  0.00  0.00    +0.000 A 
ATOM     30  C   UNL     1      47.293   3.527  16.952  0.00  0.00    +0.000 A 
ATOM     31  C   UNL     1      47.284   4.623  17.812  0.00  0.00    +0.000 A 
ATOM     32  C   UNL     1      48.443   4.976  18.506  0.00  0.00    +0.000 A 
ENDBRANCH  26  27
ENDBRANCH  25  26
ENDBRANCH  24  25
ENDBRANCH  21  24
ENDBRANCH  17  18
ENDBRANCH   3  17
TORSDOF 8
ENDMDL
MODEL 7
REMARK VINA RESULT:    -6.938      3.869      5.590
REMARK INTER + INTRA:         -11.210
REMARK INTER:                  -9.888
REMARK INTRA:                  -1.322
REMARK UNBOUND:                -1.230
REMARK  Name = 
REMARK  8 active torsions:
REMARK  status: ('A' for Active; 'I' for Inactive)
REMARK    1  A    between atoms: N_1  and  C_2
REMARK    2  A    between atoms: C_7  and  C_8
REMARK    3  A    between atoms: N_10  and  C_11
REMARK    4  A    between atoms: C_11  and  C_12
REMARK    5  A    between atoms: C_15  and  C_16
REMARK    6  A    between atoms: C_16  and  C_17
REMARK    7  A    between atoms: C_17  and  C_18
REMARK    8  A    between atoms: C_18  and  C_19
REMARK                            x       y       z     vdW  Elec       q    Type
REMARK                         _______ _______ _______ _____ _____    ______ ____
ROOT
ATOM      1  C   UNL     1      49.194   9.182  13.026  0.00  0.00    +0.000 C 
ATOM      2  O   UNL     1      48.380   9.910  13.588  0.00  0.00    +0.000 OA
ATOM      3  N   UNL     1      49.150   7.816  13.143  0.00  0.00    +0.000 N 
ATOM      4  H   UNL     1      49.844   7.248  12.665  0.00  0.00    +0.000 HD
ENDROOT
BRANCH   1  10
ATOM      5  C   UNL     1      52.975   9.416   9.754  0.00  0.00    +0.000 A 
ATOM      6  N   UNL     1      52.939   8.106   9.467  0.00  0.00    +0.000 NA
ATOM      7  C   UNL     1      52.029   7.342  10.090  0.00  0.00    +0.000 A 
ATOM      8  N   UNL     1      51.112   7.725  10.989  0.00  0.00    +0.000 NA
ATOM      9  C   UNL     1      51.137   9.056  11.275  0.00  0.00    +0.000 A 
ATOM     10  C   UNL     1      50.268   9.735  12.200  0.00  0.00    +0.000 A 
ATOM     11  C   UNL     1      50.564  11.088  12.248  0.00  0.00    +0.000 A 
ATOM     12  S   UNL     1      51.843  11.535  11.223  0.00  0.00    +0.000 S 
ATOM     13  C   UNL     1      52.051   9.921  10.672  0.00  0.00    +0.000 A 
BRANCH   5  14
ATOM     14  N   UNL     1      53.937  10.189   9.140  0.00  0.00    +0.000 N 
ATOM     15  H   UNL     1      54.663   9.692   8.646  0.00  0.00    +0.000 HD
ATOM     16  H   UNL     1      53.736  11.151   8.914  0.00  0.00    +0.000 HD
ENDBRANCH   5  14
ENDBRANCH   1  10
BRANCH   3  17
ATOM     17  C   UNL     1      48.129   7.195  13.950  0.00  0.00    +0.000 C 
BRANCH  17  18
ATOM     18  C   UNL     1      47.149   6.408  13.124  0.00  0.00    +0.000 A 
ATOM     19  C   UNL     1      46.567   5.242  13.636  0.00  0.00    +0.000 A 
ATOM     20  C   UNL     1      45.644   4.519  12.877  0.00  0.00    +0.000 A 
ATOM     21  C   UNL     1      45.283   4.947  11.593  0.00  0.00    +0.000 A 
ATOM     22  C   UNL     1      45.882   6.102  11.075  0.00  0.00    +0.000 A 
ATOM     23  C   UNL     1      46.809   6.824  11.832  0.00  0.00    +0.000 A 
BRANCH  21  24
ATOM     24  C   UNL     1      44.274   4.179  10.770  0.00  0.00    +0.000 C 
BRANCH  24  25
ATOM     25  C   UNL     1      44.691   2.721  10.548  0.00  0.00    +0.000 C 
BRANCH  25  26
ATOM     26  C   UNL     1      44.343   2.244   9.138  0.00  0.00    +0.000 C 
BRANCH  26  27
ATOM     27  C   UNL     1      45.542   2.325   8.224  0.00  0.00    +0.000 A 
ATOM     28  C   UNL     1      46.340   1.198   7.990  0.00  0.00    +0.000 A 
ATOM     29  C   UNL     1      47.467   1.289   7.171  0.00  0.00    +0.000 A 
ATOM     30  C   UNL     1      47.808   2.506   6.583  0.00  0.00    +0.000 A 
ATOM     31  C   UNL     1      47.024   3.635   6.816  0.00  0.00    +0.000 A 
ATOM     32  C   UNL     1      45.897   3.545   7.634  0.00  0.00    +0.000 A 
ENDBRANCH  26  27
ENDBRANCH  25  26
ENDBRANCH  24  25
ENDBRANCH  21  24
ENDBRANCH  17  18
ENDBRANCH   3  17
TORSDOF 8
ENDMDL
MODEL 8
REMARK VINA RESULT:    -6.932      2.606      3.586
REMARK INTER + INTRA:         -11.202
REMARK INTER:                 -10.001
REMARK INTRA:                  -1.201
REMARK UNBOUND:                -1.230
REMARK  Name = 
REMARK  8 active torsions:
REMARK  status: ('A' for Active; 'I' for Inactive)
REMARK    1  A    between atoms: N_1  and  C_2
REMARK    2  A    between atoms: C_7  and  C_8
REMARK    3  A    between atoms: N_10  and  C_11
REMARK    4  A    between atoms: C_11  and  C_12
REMARK    5  A    between atoms: C_15  and  C_16
REMARK    6  A    between atoms: C_16  and  C_17
REMARK    7  A    between atoms: C_17  and  C_18
REMARK    8  A    between atoms: C_18  and  C_19
REMARK                            x       y       z     vdW  Elec       q    Type
REMARK                         _______ _______ _______ _____ _____    ______ ____
ROOT
ATOM      1  C   UNL     1      48.142   5.321  17.825  0.00  0.00    +0.000 C 
ATOM      2  O   UNL     1      48.246   4.238  18.396  0.00  0.00    +0.000 OA
ATOM      3  N   UNL     1      47.843   5.414  16.491  0.00  0.00    +0.000 N 
ATOM      4  H   UNL     1      47.768   6.330  16.055  0.00  0.00    +0.000 HD
ENDROOT
BRANCH   1  10
ATOM      5  C   UNL     1      49.885   9.876  18.953  0.00  0.00    +0.000 A 
ATOM      6  N   UNL     1      50.656   9.961  17.858  0.00  0.00    +0.000 NA
ATOM      7  C   UNL     1      50.666   8.927  17.004  0.00  0.00    +0.000 A 
ATOM      8  N   UNL     1      49.978   7.781  17.094  0.00  0.00    +0.000 NA
ATOM      9  C   UNL     1      49.183   7.695  18.197  0.00  0.00    +0.000 A 
ATOM     10  C   UNL     1      48.340   6.581  18.542  0.00  0.00    +0.000 A 
ATOM     11  C   UNL     1      47.667   6.825  19.729  0.00  0.00    +0.000 A 
ATOM     12  S   UNL     1      48.032   8.338  20.412  0.00  0.00    +0.000 S 
ATOM     13  C   UNL     1      49.115   8.724  19.136  0.00  0.00    +0.000 A 
BRANCH   5  14
ATOM     14  N   UNL     1      49.909  10.925  19.846  0.00  0.00    +0.000 N 
ATOM     15  H   UNL     1      50.797  11.386  19.973  0.00  0.00    +0.000 HD
ATOM     16  H   UNL     1      49.051  11.403  20.079  0.00  0.00    +0.000 HD
ENDBRANCH   5  14
ENDBRANCH   1  10
BRANCH   3  17
ATOM     17  C   UNL     1      47.645   4.218  15.712  0.00  0.00    +0.000 C 
BRANCH  17  18
ATOM     18  C   UNL     1      46.939   4.492  14.411  0.00  0.00    +0.000 A 
ATOM     19  C   UNL     1      46.844   5.799  13.919  0.00  0.00    +0.000 A 
ATOM     20  C   UNL     1      46.204   6.053  12.704  0.00  0.00    +0.000 A 
ATOM     21  C   UNL     1      45.649   5.007  11.956  0.00  0.00    +0.000 A 
ATOM     22  C   UNL     1      45.729   3.702  12.460  0.00  0.00    +0.000 A 
ATOM     23  C   UNL     1      46.364   3.448  13.678  0.00  0.00    +0.000 A 
BRANCH  21  24
ATOM     24  C   UNL     1      44.968   5.271  10.633  0.00  0.00    +0.000 C 
BRANCH  24  25
ATOM     25  C   UNL     1      44.519   3.981   9.939  0.00  0.00    +0.000 C 
BRANCH  25  26
ATOM     26  C   UNL     1      44.634   4.090   8.418  0.00  0.00    +0.000 C 
BRANCH  26  27
ATOM     27  C   UNL     1      45.671   3.135   7.880  0.00  0.00    +0.000 A 
ATOM     28  C   UNL     1      46.500   3.505   6.814  0.00  0.00    +0.000 A 
ATOM     29  C   UNL     1      47.435   2.604   6.300  0.00  0.00    +0.000 A 
ATOM     30  C   UNL     1      47.544   1.325   6.843  0.00  0.00    +0.000 A 
ATOM     31  C   UNL     1      46.718   0.945   7.900  0.00  0.00    +0.000 A 
ATOM     32  C   UNL     1      45.785   1.845   8.415  0.00  0.00    +0.000 A 
ENDBRANCH  26  27
ENDBRANCH  25  26
ENDBRANCH  24  25
ENDBRANCH  21  24
ENDBRANCH  17  18
ENDBRANCH   3  17
TORSDOF 8
ENDMDL
MODEL 9
REMARK VINA RESULT:    -6.504      2.416      3.062
REMARK INTER + INTRA:         -10.586
REMARK INTER:                  -9.282
REMARK INTRA:                  -1.304
REMARK UNBOUND:                -1.230
REMARK  Name = 
REMARK  8 active torsions:
REMARK  status: ('A' for Active; 'I' for Inactive)
REMARK    1  A    between atoms: N_1  and  C_2
REMARK    2  A    between atoms: C_7  and  C_8
REMARK    3  A    between atoms: N_10  and  C_11
REMARK    4  A    between atoms: C_11  and  C_12
REMARK    5  A    between atoms: C_15  and  C_16
REMARK    6  A    between atoms: C_16  and  C_17
REMARK    7  A    between atoms: C_17  and  C_18
REMARK    8  A    between atoms: C_18  and  C_19
REMARK                            x       y       z     vdW  Elec       q    Type
REMARK                         _______ _______ _______ _____ _____    ______ ____
ROOT
ATOM      1  C   UNL     1      49.635   7.297  16.446  0.00  0.00    +0.000 C 
ATOM      2  O   UNL     1      49.023   8.239  16.943  0.00  0.00    +0.000 OA
ATOM      3  N   UNL     1      49.880   7.218  15.100  0.00  0.00    +0.000 N 
ATOM      4  H   UNL     1      50.388   6.420  14.727  0.00  0.00    +0.000 HD
ENDROOT
BRANCH   1  10
ATOM      5  C   UNL     1      52.790   3.958  18.435  0.00  0.00    +0.000 A 
ATOM      6  N   UNL     1      53.854   4.408  17.752  0.00  0.00    +0.000 NA
ATOM      7  C   UNL     1      53.680   5.436  16.909  0.00  0.00    +0.000 A 
ATOM      8  N   UNL     1      52.549   6.105  16.651  0.00  0.00    +0.000 NA
ATOM      9  C   UNL     1      51.469   5.661  17.351  0.00  0.00    +0.000 A 
ATOM     10  C   UNL     1      50.135   6.195  17.269  0.00  0.00    +0.000 A 
ATOM     11  C   UNL     1      49.280   5.509  18.118  0.00  0.00    +0.000 A 
ATOM     12  S   UNL     1      50.045   4.264  18.984  0.00  0.00    +0.000 S 
ATOM     13  C   UNL     1      51.562   4.597  18.248  0.00  0.00    +0.000 A 
BRANCH   5  14
ATOM     14  N   UNL     1      52.966   2.877  19.272  0.00  0.00    +0.000 N 
ATOM     15  H   UNL     1      53.679   2.215  19.005  0.00  0.00    +0.000 HD
ATOM     16  H   UNL     1      52.656   2.931  20.230  0.00  0.00    +0.000 HD
ENDBRANCH   5  14
ENDBRANCH   1  10
BRANCH   3  17
ATOM     17  C   UNL     1      49.409   8.258  14.220  0.00  0.00    +0.000 C 
BRANCH  17  18
ATOM     18  C   UNL     1      48.181   7.848  13.455  0.00  0.00    +0.000 A 
ATOM     19  C   UNL     1      48.136   6.614  12.795  0.00  0.00    +0.000 A 
ATOM     20  C   UNL     1      46.990   6.225  12.099  0.00  0.00    +0.000 A 
ATOM     21  C   UNL     1      45.865   7.059  12.050  0.00  0.00    +0.000 A 
ATOM     22  C   UNL     1      45.920   8.301  12.694  0.00  0.00    +0.000 A 
ATOM     23  C   UNL     1      47.068   8.693  13.387  0.00  0.00    +0.000 A 
BRANCH  21  24
ATOM     24  C   UNL     1      44.615   6.639  11.310  0.00  0.00    +0.000 C 
BRANCH  24  25
ATOM     25  C   UNL     1      44.345   5.136  11.430  0.00  0.00    +0.000 C 
BRANCH  25  26
ATOM     26  C   UNL     1      43.668   4.584  10.174  0.00  0.00    +0.000 C 
BRANCH  26  27
ATOM     27  C   UNL     1      44.642   3.794   9.334  0.00  0.00    +0.000 A 
ATOM     28  C   UNL     1      45.470   4.436   8.405  0.00  0.00    +0.000 A 
ATOM     29  C   UNL     1      46.344   3.694   7.607  0.00  0.00    +0.000 A 
ATOM     30  C   UNL     1      46.394   2.307   7.728  0.00  0.00    +0.000 A 
ATOM     31  C   UNL     1      45.569   1.658   8.645  0.00  0.00    +0.000 A 
ATOM     32  C   UNL     1      44.695   2.399   9.443  0.00  0.00    +0.000 A 
ENDBRANCH  26  27
ENDBRANCH  25  26
ENDBRANCH  24  25
ENDBRANCH  21  24
ENDBRANCH  17  18
ENDBRANCH   3  17
TORSDOF 8
ENDMDL
