MODEL 1
REMARK VINA RESULT:    -7.898      0.000      0.000
REMARK INTER + INTRA:         -12.030
REMARK INTER:                 -11.131
REMARK INTRA:                  -0.899
REMARK UNBOUND:                -0.899
REMARK  Name = 
REMARK  7 active torsions:
REMARK  status: ('A' for Active; 'I' for Inactive)
REMARK    1  A    between atoms: C_2  and  C_20
REMARK    2  A    between atoms: N_3  and  C_4
REMARK    3  A    between atoms: C_4  and  C_5
REMARK    4  A    between atoms: C_8  and  C_9
REMARK    5  A    between atoms: C_9  and  C_10
REMARK    6  A    between atoms: C_10  and  C_11
REMARK    7  A    between atoms: C_11  and  N_12
REMARK                            x       y       z     vdW  Elec       q    Type
REMARK                         _______ _______ _______ _____ _____    ______ ____
ROOT
ATOM      1  C   UNL     1      48.101   7.248  13.552  0.00  0.00    +0.000 C 
ENDROOT
BRANCH   1   2
ATOM      2  C   UNL     1      46.992   6.456  12.913  0.00  0.00    +0.000 A 
ATOM      3  C   UNL     1      46.664   5.191  13.409  0.00  0.00    +0.000 A 
ATOM      4  C   UNL     1      45.637   4.447  12.834  0.00  0.00    +0.000 A 
ATOM      5  C   UNL     1      44.911   4.954  11.750  0.00  0.00    +0.000 A 
ATOM      6  C   UNL     1      45.258   6.207  11.230  0.00  0.00    +0.000 A 
ATOM      7  C   UNL     1      46.295   6.948  11.801  0.00  0.00    +0.000 A 
BRANCH   5   8
ATOM      8  C   UNL     1      43.773   4.160  11.158  0.00  0.00    +0.000 C 
BRANCH   8   9
ATOM      9  C   UNL     1      44.221   3.150  10.092  0.00  0.00    +0.000 C 
BRANCH   9  10
ATOM     10  C   UNL     1      44.491   3.775   8.712  0.00  0.00    +0.000 C 
BRANCH  10  11
ATOM     11  N   UNL     1      45.328   2.936   7.837  0.00  0.00    +0.000 NA
ATOM     12  C   UNL     1      46.404   3.704   7.194  0.00  0.00    +0.000 C 
ATOM     13  C   UNL     1      47.184   2.828   6.217  0.00  0.00    +0.000 C 
ATOM     14  C   UNL     1      47.753   1.599   6.913  0.00  0.00    +0.000 C 
ATOM     15  C   UNL     1      46.655   0.858   7.664  0.00  0.00    +0.000 C 
ATOM     16  C   UNL     1      45.875   1.796   8.589  0.00  0.00    +0.000 C 
ENDBRANCH  10  11
ENDBRANCH   9  10
ENDBRANCH   8   9
ENDBRANCH   5   8
ENDBRANCH   1   2
BRANCH   1  19
ATOM     17  O   UNL     1      50.178   6.558  15.334  0.00  0.00    +0.000 OA
ATOM     18  C   UNL     1      49.087   6.896  15.787  0.00  0.00    +0.000 C 
ATOM     19  N   UNL     1      48.017   7.201  14.989  0.00  0.00    +0.000 N 
ATOM     20  H   UNL     1      47.209   7.656  15.395  0.00  0.00    +0.000 HD
BRANCH  18  21
ATOM     21  C   UNL     1      48.842   6.935  17.236  0.00  0.00    +0.000 A 
ATOM     22  C   UNL     1      48.605   8.151  17.862  0.00  0.00    +0.000 A 
ATOM     23  S   UNL     1      48.367   8.019  19.546  0.00  0.00    +0.000 S 
ATOM     24  C   UNL     1      48.525   6.327  19.492  0.00  0.00    +0.000 A 
ATOM     25  N   UNL     1      48.394   5.574  20.617  0.00  0.00    +0.000 NA
ATOM     26  C   UNL     1      48.492   4.301  20.425  0.00  0.00    +0.000 A 
ATOM     27  N   UNL     1      48.730   3.712  19.211  0.00  0.00    +0.000 N 
ATOM     28  C   UNL     1      48.947   4.435  18.063  0.00  0.00    +0.000 A 
ATOM     29  O   UNL     1      49.291   3.880  17.024  0.00  0.00    +0.000 OA
ATOM     30  C   UNL     1      48.789   5.870  18.213  0.00  0.00    +0.000 A 
ATOM     31  H   UNL     1      48.831   2.713  19.130  0.00  0.00    +0.000 HD
ENDBRANCH  18  21
ENDBRANCH   1  19
TORSDOF 7
ENDMDL
MODEL 2
REMARK VINA RESULT:    -7.416      1.889      2.501
REMARK INTER + INTRA:         -11.349
REMARK INTER:                 -10.315
REMARK INTRA:                  -1.034
REMARK UNBOUND:                -0.899
REMARK  Name = 
REMARK  7 active torsions:
REMARK  status: ('A' for Active; 'I' for Inactive)
REMARK    1  A    between atoms: C_2  and  C_20
REMARK    2  A    between atoms: N_3  and  C_4
REMARK    3  A    between atoms: C_4  and  C_5
REMARK    4  A    between atoms: C_8  and  C_9
REMARK    5  A    between atoms: C_9  and  C_10
REMARK    6  A    between atoms: C_10  and  C_11
REMARK    7  A    between atoms: C_11  and  N_12
REMARK                            x       y       z     vdW  Elec       q    Type
REMARK                         _______ _______ _______ _____ _____    ______ ____
ROOT
ATOM      1  C   UNL     1      48.229   7.695  12.930  0.00  0.00    +0.000 C 
ENDROOT
BRANCH   1   2
ATOM      2  C   UNL     1      47.233   6.604  12.639  0.00  0.00    +0.000 A 
ATOM      3  C   UNL     1      46.395   6.705  11.524  0.00  0.00    +0.000 A 
ATOM      4  C   UNL     1      45.472   5.703  11.236  0.00  0.00    +0.000 A 
ATOM      5  C   UNL     1      45.369   4.574  12.056  0.00  0.00    +0.000 A 
ATOM      6  C   UNL     1      46.183   4.484  13.191  0.00  0.00    +0.000 A 
ATOM      7  C   UNL     1      47.102   5.495  13.485  0.00  0.00    +0.000 A 
BRANCH   5   8
ATOM      8  C   UNL     1      44.395   3.473  11.715  0.00  0.00    +0.000 C 
BRANCH   8   9
ATOM      9  C   UNL     1      44.070   3.385  10.217  0.00  0.00    +0.000 C 
BRANCH   9  10
ATOM     10  C   UNL     1      44.614   2.118   9.532  0.00  0.00    +0.000 C 
BRANCH  10  11
ATOM     11  N   UNL     1      45.758   2.374   8.642  0.00  0.00    +0.000 NA
ATOM     12  C   UNL     1      46.242   1.147   7.993  0.00  0.00    +0.000 C 
ATOM     13  C   UNL     1      47.491   1.431   7.162  0.00  0.00    +0.000 C 
ATOM     14  C   UNL     1      47.225   2.511   6.121  0.00  0.00    +0.000 C 
ATOM     15  C   UNL     1      46.628   3.748   6.780  0.00  0.00    +0.000 C 
ATOM     16  C   UNL     1      45.413   3.395   7.640  0.00  0.00    +0.000 C 
ENDBRANCH  10  11
ENDBRANCH   9  10
ENDBRANCH   8   9
ENDBRANCH   5   8
ENDBRANCH   1   2
BRANCH   1  19
ATOM     17  O   UNL     1      48.746   8.439  15.603  0.00  0.00    +0.000 OA
ATOM     18  C   UNL     1      49.460   7.594  15.068  0.00  0.00    +0.000 C 
ATOM     19  N   UNL     1      49.302   7.214  13.761  0.00  0.00    +0.000 N 
ATOM     20  H   UNL     1      49.779   6.386  13.425  0.00  0.00    +0.000 HD
BRANCH  18  21
ATOM     21  C   UNL     1      50.582   6.976  15.788  0.00  0.00    +0.000 A 
ATOM     22  C   UNL     1      51.873   7.448  15.588  0.00  0.00    +0.000 A 
ATOM     23  S   UNL     1      53.056   6.604  16.481  0.00  0.00    +0.000 S 
ATOM     24  C   UNL     1      51.881   5.609  17.203  0.00  0.00    +0.000 A 
ATOM     25  N   UNL     1      52.229   4.664  18.117  0.00  0.00    +0.000 NA
ATOM     26  C   UNL     1      51.234   4.011  18.619  0.00  0.00    +0.000 A 
ATOM     27  N   UNL     1      49.922   4.204  18.274  0.00  0.00    +0.000 N 
ATOM     28  C   UNL     1      49.531   5.091  17.300  0.00  0.00    +0.000 A 
ATOM     29  O   UNL     1      48.365   5.138  16.922  0.00  0.00    +0.000 OA
ATOM     30  C   UNL     1      50.607   5.893  16.745  0.00  0.00    +0.000 A 
ATOM     31  H   UNL     1      49.192   3.638  18.676  0.00  0.00    +0.000 HD
ENDBRANCH  18  21
ENDBRANCH   1  19
TORSDOF 7
ENDMDL
MODEL 3
REMARK VINA RESULT:    -7.288      3.134      8.841
REMARK INTER + INTRA:         -11.170
REMARK INTER:                  -9.642
REMARK INTRA:                  -1.528
REMARK UNBOUND:                -0.899
REMARK  Name = 
REMARK  7 active torsions:
REMARK  status: ('A' for Active; 'I' for Inactive)
REMARK    1  A    between atoms: C_2  and  C_20
REMARK    2  A    between atoms: N_3  and  C_4
REMARK    3  A    between atoms: C_4  and  C_5
REMARK    4  A    between atoms: C_8  and  C_9
REMARK    5  A    between atoms: C_9  and  C_10
REMARK    6  A    between atoms: C_10  and  C_11
REMARK    7  A    between atoms: C_11  and  N_12
REMARK                            x       y       z     vdW  Elec       q    Type
REMARK                         _______ _______ _______ _____ _____    ______ ____
ROOT
ATOM      1  C   UNL     1      47.639   7.727  12.012  0.00  0.00    +0.000 C 
ENDROOT
BRANCH   1   2
ATOM      2  C   UNL     1      48.115   7.840  13.436  0.00  0.00    +0.000 A 
ATOM      3  C   UNL     1      47.740   8.941  14.211  0.00  0.00    +0.000 A 
ATOM      4  C   UNL     1      48.167   9.058  15.532  0.00  0.00    +0.000 A 
ATOM      5  C   UNL     1      48.977   8.073  16.108  0.00  0.00    +0.000 A 
ATOM      6  C   UNL     1      49.381   6.985  15.325  0.00  0.00    +0.000 A 
ATOM      7  C   UNL     1      48.961   6.873  13.997  0.00  0.00    +0.000 A 
BRANCH   5   8
ATOM      8  C   UNL     1      49.402   8.186  17.551  0.00  0.00    +0.000 C 
BRANCH   8   9
ATOM      9  C   UNL     1      49.978   6.883  18.123  0.00  0.00    +0.000 C 
BRANCH   9  10
ATOM     10  C   UNL     1      48.991   6.098  19.006  0.00  0.00    +0.000 C 
BRANCH  10  11
ATOM     11  N   UNL     1      48.755   4.719  18.545  0.00  0.00    +0.000 NA
ATOM     12  C   UNL     1      47.528   4.603  17.745  0.00  0.00    +0.000 C 
ATOM     13  C   UNL     1      47.260   3.147  17.373  0.00  0.00    +0.000 C 
ATOM     14  C   UNL     1      48.440   2.544  16.623  0.00  0.00    +0.000 C 
ATOM     15  C   UNL     1      49.730   2.754  17.405  0.00  0.00    +0.000 C 
ATOM     16  C   UNL     1      49.919   4.222  17.794  0.00  0.00    +0.000 C 
ENDBRANCH  10  11
ENDBRANCH   9  10
ENDBRANCH   8   9
ENDBRANCH   5   8
ENDBRANCH   1   2
BRANCH   1  19
ATOM     17  O   UNL     1      44.837   7.414  12.134  0.00  0.00    +0.000 OA
ATOM     18  C   UNL     1      45.535   6.447  11.837  0.00  0.00    +0.000 C 
ATOM     19  N   UNL     1      46.903   6.507  11.802  0.00  0.00    +0.000 N 
ATOM     20  H   UNL     1      47.421   5.753  11.368  0.00  0.00    +0.000 HD
BRANCH  18  21
ATOM     21  C   UNL     1      44.940   5.133  11.557  0.00  0.00    +0.000 A 
ATOM     22  C   UNL     1      44.224   4.476  12.549  0.00  0.00    +0.000 A 
ATOM     23  S   UNL     1      43.625   2.954  12.066  0.00  0.00    +0.000 S 
ATOM     24  C   UNL     1      44.259   3.139  10.499  0.00  0.00    +0.000 A 
ATOM     25  N   UNL     1      44.070   2.184   9.549  0.00  0.00    +0.000 NA
ATOM     26  C   UNL     1      44.565   2.473   8.392  0.00  0.00    +0.000 A 
ATOM     27  N   UNL     1      45.250   3.625   8.104  0.00  0.00    +0.000 N 
ATOM     28  C   UNL     1      45.533   4.580   9.050  0.00  0.00    +0.000 A 
ATOM     29  O   UNL     1      46.264   5.529   8.788  0.00  0.00    +0.000 OA
ATOM     30  C   UNL     1      44.947   4.330  10.355  0.00  0.00    +0.000 A 
ATOM     31  H   UNL     1      45.644   3.778   7.189  0.00  0.00    +0.000 HD
ENDBRANCH  18  21
ENDBRANCH   1  19
TORSDOF 7
ENDMDL
MODEL 4
REMARK VINA RESULT:    -7.212      1.581      2.195
REMARK INTER + INTRA:         -11.063
REMARK INTER:                 -10.206
REMARK INTRA:                  -0.857
REMARK UNBOUND:                -0.899
REMARK  Name = 
REMARK  7 active torsions:
REMARK  status: ('A' for Active; 'I' for Inactive)
REMARK    1  A    between atoms: C_2  and  C_20
REMARK    2  A    between atoms: N_3  and  C_4
REMARK    3  A    between atoms: C_4  and  C_5
REMARK    4  A    between atoms: C_8  and  C_9
REMARK    5  A    between atoms: C_9  and  C_10
REMARK    6  A    between atoms: C_10  and  C_11
REMARK    7  A    between atoms: C_11  and  N_12
REMARK                            x       y       z     vdW  Elec       q    Type
REMARK                         _______ _______ _______ _____ _____    ______ ____
ROOT
ATOM      1  C   UNL     1      48.604   6.967  14.091  0.00  0.00    +0.000 C 
ENDROOT
BRANCH   1   2
ATOM      2  C   UNL     1      47.485   6.439  13.232  0.00  0.00    +0.000 A 
ATOM      3  C   UNL     1      46.755   5.322  13.649  0.00  0.00    +0.000 A 
ATOM      4  C   UNL     1      45.713   4.823  12.870  0.00  0.00    +0.000 A 
ATOM      5  C   UNL     1      45.377   5.434  11.657  0.00  0.00    +0.000 A 
ATOM      6  C   UNL     1      46.126   6.534  11.221  0.00  0.00    +0.000 A 
ATOM      7  C   UNL     1      47.178   7.027  11.998  0.00  0.00    +0.000 A 
BRANCH   5   8
ATOM      8  C   UNL     1      44.221   4.914  10.838  0.00  0.00    +0.000 C 
BRANCH   8   9
ATOM      9  C   UNL     1      44.572   3.675  10.003  0.00  0.00    +0.000 C 
BRANCH   9  10
ATOM     10  C   UNL     1      44.477   3.897   8.483  0.00  0.00    +0.000 C 
BRANCH  10  11
ATOM     11  N   UNL     1      45.359   3.014   7.701  0.00  0.00    +0.000 NA
ATOM     12  C   UNL     1      46.463   3.749   7.069  0.00  0.00    +0.000 C 
ATOM     13  C   UNL     1      47.293   2.823   6.184  0.00  0.00    +0.000 C 
ATOM     14  C   UNL     1      47.831   1.640   6.977  0.00  0.00    +0.000 C 
ATOM     15  C   UNL     1      46.699   0.937   7.715  0.00  0.00    +0.000 C 
ATOM     16  C   UNL     1      45.872   1.922   8.544  0.00  0.00    +0.000 C 
ENDBRANCH  10  11
ENDBRANCH   9  10
ENDBRANCH   8   9
ENDBRANCH   5   8
ENDBRANCH   1   2
BRANCH   1  19
ATOM     17  O   UNL     1      49.931   8.063  16.326  0.00  0.00    +0.000 OA
ATOM     18  C   UNL     1      49.094   7.181  16.500  0.00  0.00    +0.000 C 
ATOM     19  N   UNL     1      48.441   6.568  15.465  0.00  0.00    +0.000 N 
ATOM     20  H   UNL     1      47.630   5.994  15.661  0.00  0.00    +0.000 HD
BRANCH  18  21
ATOM     21  C   UNL     1      48.782   6.681  17.847  0.00  0.00    +0.000 A 
ATOM     22  C   UNL     1      49.091   5.370  18.184  0.00  0.00    +0.000 A 
ATOM     23  S   UNL     1      48.640   4.947  19.773  0.00  0.00    +0.000 S 
ATOM     24  C   UNL     1      48.057   6.514  20.084  0.00  0.00    +0.000 A 
ATOM     25  N   UNL     1      47.549   6.843  21.302  0.00  0.00    +0.000 NA
ATOM     26  C   UNL     1      47.185   8.077  21.415  0.00  0.00    +0.000 A 
ATOM     27  N   UNL     1      47.265   9.008  20.413  0.00  0.00    +0.000 N 
ATOM     28  C   UNL     1      47.698   8.702  19.145  0.00  0.00    +0.000 A 
ATOM     29  O   UNL     1      47.627   9.526  18.239  0.00  0.00    +0.000 OA
ATOM     30  C   UNL     1      48.174   7.341  18.981  0.00  0.00    +0.000 A 
ATOM     31  H   UNL     1      46.933   9.949  20.551  0.00  0.00    +0.000 HD
ENDBRANCH  18  21
ENDBRANCH   1  19
TORSDOF 7
ENDMDL
MODEL 5
REMARK VINA RESULT:    -7.135      3.476      8.417
REMARK INTER + INTRA:         -10.953
REMARK INTER:                  -9.510
REMARK INTRA:                  -1.443
REMARK UNBOUND:                -0.899
REMARK  Name = 
REMARK  7 active torsions:
REMARK  status: ('A' for Active; 'I' for Inactive)
REMARK    1  A    between atoms: C_2  and  C_20
REMARK    2  A    between atoms: N_3  and  C_4
REMARK    3  A    between atoms: C_4  and  C_5
REMARK    4  A    between atoms: C_8  and  C_9
REMARK    5  A    between atoms: C_9  and  C_10
REMARK    6  A    between atoms: C_10  and  C_11
REMARK    7  A    between atoms: C_11  and  N_12
REMARK                            x       y       z     vdW  Elec       q    Type
REMARK                         _______ _______ _______ _____ _____    ______ ____
ROOT
ATOM      1  C   UNL     1      48.479   8.023  11.933  0.00  0.00    +0.000 C 
ENDROOT
BRANCH   1   2
ATOM      2  C   UNL     1      48.553   8.004  13.437  0.00  0.00    +0.000 A 
ATOM      3  C   UNL     1      49.050   6.874  14.095  0.00  0.00    +0.000 A 
ATOM      4  C   UNL     1      49.131   6.842  15.485  0.00  0.00    +0.000 A 
ATOM      5  C   UNL     1      48.721   7.941  16.248  0.00  0.00    +0.000 A 
ATOM      6  C   UNL     1      48.194   9.061  15.594  0.00  0.00    +0.000 A 
ATOM      7  C   UNL     1      48.102   9.089  14.200  0.00  0.00    +0.000 A 
BRANCH   5   8
ATOM      8  C   UNL     1      48.849   7.914  17.751  0.00  0.00    +0.000 C 
BRANCH   8   9
ATOM      9  C   UNL     1      49.800   6.824  18.265  0.00  0.00    +0.000 C 
BRANCH   9  10
ATOM     10  C   UNL     1      49.153   5.849  19.265  0.00  0.00    +0.000 C 
BRANCH  10  11
ATOM     11  N   UNL     1      48.885   4.516  18.700  0.00  0.00    +0.000 NA
ATOM     12  C   UNL     1      47.631   4.478  17.935  0.00  0.00    +0.000 C 
ATOM     13  C   UNL     1      47.332   3.060  17.454  0.00  0.00    +0.000 C 
ATOM     14  C   UNL     1      48.479   2.510  16.617  0.00  0.00    +0.000 C 
ATOM     15  C   UNL     1      49.797   2.641  17.370  0.00  0.00    +0.000 C 
ATOM     16  C   UNL     1      50.017   4.070  17.872  0.00  0.00    +0.000 C 
ENDBRANCH  10  11
ENDBRANCH   9  10
ENDBRANCH   8   9
ENDBRANCH   5   8
ENDBRANCH   1   2
BRANCH   1  19
ATOM     17  O   UNL     1      45.665   7.910  11.752  0.00  0.00    +0.000 OA
ATOM     18  C   UNL     1      46.330   6.962  11.339  0.00  0.00    +0.000 C 
ATOM     19  N   UNL     1      47.696   6.922  11.434  0.00  0.00    +0.000 N 
ATOM     20  H   UNL     1      48.208   6.221  10.913  0.00  0.00    +0.000 HD
BRANCH  18  21
ATOM     21  C   UNL     1      45.688   5.771  10.767  0.00  0.00    +0.000 A 
ATOM     22  C   UNL     1      45.857   5.476   9.421  0.00  0.00    +0.000 A 
ATOM     23  S   UNL     1      45.024   4.076   8.916  0.00  0.00    +0.000 S 
ATOM     24  C   UNL     1      44.446   3.786  10.489  0.00  0.00    +0.000 A 
ATOM     25  N   UNL     1      43.675   2.699  10.763  0.00  0.00    +0.000 NA
ATOM     26  C   UNL     1      43.344   2.576  12.005  0.00  0.00    +0.000 A 
ATOM     27  N   UNL     1      43.697   3.454  12.996  0.00  0.00    +0.000 N 
ATOM     28  C   UNL     1      44.406   4.605  12.753  0.00  0.00    +0.000 A 
ATOM     29  O   UNL     1      44.585   5.434  13.640  0.00  0.00    +0.000 OA
ATOM     30  C   UNL     1      44.854   4.761  11.381  0.00  0.00    +0.000 A 
ATOM     31  H   UNL     1      43.378   3.323  13.943  0.00  0.00    +0.000 HD
ENDBRANCH  18  21
ENDBRANCH   1  19
TORSDOF 7
ENDMDL
MODEL 6
REMARK VINA RESULT:    -6.907      3.938      6.002
REMARK INTER + INTRA:         -10.633
REMARK INTER:                  -9.571
REMARK INTRA:                  -1.062
REMARK UNBOUND:                -0.899
REMARK  Name = 
REMARK  7 active torsions:
REMARK  status: ('A' for Active; 'I' for Inactive)
REMARK    1  A    between atoms: C_2  and  C_20
REMARK    2  A    between atoms: N_3  and  C_4
REMARK    3  A    between atoms: C_4  and  C_5
REMARK    4  A    between atoms: C_8  and  C_9
REMARK    5  A    between atoms: C_9  and  C_10
REMARK    6  A    between atoms: C_10  and  C_11
REMARK    7  A    between atoms: C_11  and  N_12
REMARK                            x       y       z     vdW  Elec       q    Type
REMARK                         _______ _______ _______ _____ _____    ______ ____
ROOT
ATOM      1  C   UNL     1      47.402   6.707  13.737  0.00  0.00    +0.000 C 
ENDROOT
BRANCH   1   2
ATOM      2  C   UNL     1      46.418   5.730  13.150  0.00  0.00    +0.000 A 
ATOM      3  C   UNL     1      45.263   6.201  12.517  0.00  0.00    +0.000 A 
ATOM      4  C   UNL     1      44.345   5.312  11.964  0.00  0.00    +0.000 A 
ATOM      5  C   UNL     1      44.564   3.931  12.027  0.00  0.00    +0.000 A 
ATOM      6  C   UNL     1      45.704   3.455  12.687  0.00  0.00    +0.000 A 
ATOM      7  C   UNL     1      46.619   4.347  13.252  0.00  0.00    +0.000 A 
BRANCH   5   8
ATOM      8  C   UNL     1      43.586   2.975  11.390  0.00  0.00    +0.000 C 
BRANCH   8   9
ATOM      9  C   UNL     1      44.088   2.377  10.068  0.00  0.00    +0.000 C 
BRANCH   9  10
ATOM     10  C   UNL     1      44.685   3.413   9.098  0.00  0.00    +0.000 C 
BRANCH  10  11
ATOM     11  N   UNL     1      45.406   2.812   7.965  0.00  0.00    +0.000 NA
ATOM     12  C   UNL     1      46.266   3.784   7.274  0.00  0.00    +0.000 C 
ATOM     13  C   UNL     1      46.916   3.155   6.045  0.00  0.00    +0.000 C 
ATOM     14  C   UNL     1      47.715   1.914   6.418  0.00  0.00    +0.000 C 
ATOM     15  C   UNL     1      46.852   0.949   7.222  0.00  0.00    +0.000 C 
ATOM     16  C   UNL     1      46.187   1.647   8.410  0.00  0.00    +0.000 C 
ENDBRANCH  10  11
ENDBRANCH   9  10
ENDBRANCH   8   9
ENDBRANCH   5   8
ENDBRANCH   1   2
BRANCH   1  19
ATOM     17  O   UNL     1      48.357   9.210  14.622  0.00  0.00    +0.000 OA
ATOM     18  C   UNL     1      47.969   9.094  13.462  0.00  0.00    +0.000 C 
ATOM     19  N   UNL     1      47.450   7.926  12.971  0.00  0.00    +0.000 N 
ATOM     20  H   UNL     1      47.327   7.820  11.972  0.00  0.00    +0.000 HD
BRANCH  18  21
ATOM     21  C   UNL     1      47.983  10.234  12.535  0.00  0.00    +0.000 A 
ATOM     22  C   UNL     1      49.179  10.881  12.257  0.00  0.00    +0.000 A 
ATOM     23  S   UNL     1      49.012  12.197  11.184  0.00  0.00    +0.000 S 
ATOM     24  C   UNL     1      47.342  11.919  11.015  0.00  0.00    +0.000 A 
ATOM     25  N   UNL     1      46.583  12.691  10.192  0.00  0.00    +0.000 NA
ATOM     26  C   UNL     1      45.341  12.342  10.124  0.00  0.00    +0.000 A 
ATOM     27  N   UNL     1      44.785  11.301  10.821  0.00  0.00    +0.000 N 
ATOM     28  C   UNL     1      45.495  10.544  11.722  0.00  0.00    +0.000 A 
ATOM     29  O   UNL     1      44.934   9.712  12.426  0.00  0.00    +0.000 OA
ATOM     30  C   UNL     1      46.911  10.858  11.792  0.00  0.00    +0.000 A 
ATOM     31  H   UNL     1      43.800  11.098  10.752  0.00  0.00    +0.000 HD
ENDBRANCH  18  21
ENDBRANCH   1  19
TORSDOF 7
ENDMDL
MODEL 7
REMARK VINA RESULT:    -6.894      3.893      9.762
REMARK INTER + INTRA:         -10.614
REMARK INTER:                  -9.269
REMARK INTRA:                  -1.345
REMARK UNBOUND:                -0.899
REMARK  Name = 
REMARK  7 active torsions:
REMARK  status: ('A' for Active; 'I' for Inactive)
REMARK    1  A    between atoms: C_2  and  C_20
REMARK    2  A    between atoms: N_3  and  C_4
REMARK    3  A    between atoms: C_4  and  C_5
REMARK    4  A    between atoms: C_8  and  C_9
REMARK    5  A    between atoms: C_9  and  C_10
REMARK    6  A    between atoms: C_10  and  C_11
REMARK    7  A    between atoms: C_11  and  N_12
REMARK                            x       y       z     vdW  Elec       q    Type
REMARK                         _______ _______ _______ _____ _____    ______ ____
ROOT
ATOM      1  C   UNL     1      47.564   3.683  16.764  0.00  0.00    +0.000 C 
ENDROOT
BRANCH   1   2
ATOM      2  C   UNL     1      47.746   4.351  18.101  0.00  0.00    +0.000 A 
ATOM      3  C   UNL     1      46.964   5.460  18.438  0.00  0.00    +0.000 A 
ATOM      4  C   UNL     1      47.115   6.086  19.673  0.00  0.00    +0.000 A 
ATOM      5  C   UNL     1      48.049   5.613  20.601  0.00  0.00    +0.000 A 
ATOM      6  C   UNL     1      48.855   4.522  20.255  0.00  0.00    +0.000 A 
ATOM      7  C   UNL     1      48.711   3.901  19.012  0.00  0.00    +0.000 A 
BRANCH   5   8
ATOM      8  C   UNL     1      48.178   6.271  21.953  0.00  0.00    +0.000 C 
BRANCH   8   9
ATOM      9  C   UNL     1      47.815   7.763  21.944  0.00  0.00    +0.000 C 
BRANCH   9  10
ATOM     10  C   UNL     1      49.006   8.696  21.658  0.00  0.00    +0.000 C 
BRANCH  10  11
ATOM     11  N   UNL     1      48.869   9.460  20.407  0.00  0.00    +0.000 NA
ATOM     12  C   UNL     1      49.505   8.783  19.269  0.00  0.00    +0.000 C 
ATOM     13  C   UNL     1      49.436   9.650  18.015  0.00  0.00    +0.000 C 
ATOM     14  C   UNL     1      47.997  10.015  17.677  0.00  0.00    +0.000 C 
ATOM     15  C   UNL     1      47.305  10.626  18.889  0.00  0.00    +0.000 C 
ATOM     16  C   UNL     1      47.451   9.737  20.126  0.00  0.00    +0.000 C 
ENDBRANCH  10  11
ENDBRANCH   9  10
ENDBRANCH   8   9
ENDBRANCH   5   8
ENDBRANCH   1   2
BRANCH   1  19
ATOM     17  O   UNL     1      47.281   3.201  13.998  0.00  0.00    +0.000 OA
ATOM     18  C   UNL     1      46.930   4.286  14.456  0.00  0.00    +0.000 C 
ATOM     19  N   UNL     1      47.078   4.613  15.777  0.00  0.00    +0.000 N 
ATOM     20  H   UNL     1      46.603   5.429  16.142  0.00  0.00    +0.000 HD
BRANCH  18  21
ATOM     21  C   UNL     1      46.379   5.337  13.589  0.00  0.00    +0.000 A 
ATOM     22  C   UNL     1      47.126   6.478  13.329  0.00  0.00    +0.000 A 
ATOM     23  S   UNL     1      46.329   7.606  12.328  0.00  0.00    +0.000 S 
ATOM     24  C   UNL     1      44.976   6.589  12.167  0.00  0.00    +0.000 A 
ATOM     25  N   UNL     1      43.916   6.951  11.394  0.00  0.00    +0.000 NA
ATOM     26  C   UNL     1      42.977   6.066  11.324  0.00  0.00    +0.000 A 
ATOM     27  N   UNL     1      42.994   4.859  11.973  0.00  0.00    +0.000 N 
ATOM     28  C   UNL     1      44.005   4.485  12.824  0.00  0.00    +0.000 A 
ATOM     29  O   UNL     1      43.920   3.459  13.491  0.00  0.00    +0.000 OA
ATOM     30  C   UNL     1      45.114   5.420  12.893  0.00  0.00    +0.000 A 
ATOM     31  H   UNL     1      42.214   4.224  11.906  0.00  0.00    +0.000 HD
ENDBRANCH  18  21
ENDBRANCH   1  19
TORSDOF 7
ENDMDL
MODEL 8
REMARK VINA RESULT:    -6.849      1.750      2.412
REMARK INTER + INTRA:         -10.551
REMARK INTER:                  -9.724
REMARK INTRA:                  -0.827
REMARK UNBOUND:                -0.899
REMARK  Name = 
REMARK  7 active torsions:
REMARK  status: ('A' for Active; 'I' for Inactive)
REMARK    1  A    between atoms: C_2  and  C_20
REMARK    2  A    between atoms: N_3  and  C_4
REMARK    3  A    between atoms: C_4  and  C_5
REMARK    4  A    between atoms: C_8  and  C_9
REMARK    5  A    between atoms: C_9  and  C_10
REMARK    6  A    between atoms: C_10  and  C_11
REMARK    7  A    between atoms: C_11  and  N_12
REMARK                            x       y       z     vdW  Elec       q    Type
REMARK                         _______ _______ _______ _____ _____    ______ ____
ROOT
ATOM      1  C   UNL     1      48.134   5.057  15.489  0.00  0.00    +0.000 C 
ENDROOT
BRANCH   1   2
ATOM      2  C   UNL     1      47.254   5.167  14.273  0.00  0.00    +0.000 A 
ATOM      3  C   UNL     1      47.400   6.254  13.405  0.00  0.00    +0.000 A 
ATOM      4  C   UNL     1      46.599   6.369  12.271  0.00  0.00    +0.000 A 
ATOM      5  C   UNL     1      45.635   5.397  11.979  0.00  0.00    +0.000 A 
ATOM      6  C   UNL     1      45.465   4.325  12.863  0.00  0.00    +0.000 A 
ATOM      7  C   UNL     1      46.262   4.215  14.005  0.00  0.00    +0.000 A 
BRANCH   5   8
ATOM      8  C   UNL     1      44.798   5.508  10.728  0.00  0.00    +0.000 C 
BRANCH   8   9
ATOM      9  C   UNL     1      45.498   4.964   9.474  0.00  0.00    +0.000 C 
BRANCH   9  10
ATOM     10  C   UNL     1      44.638   3.986   8.653  0.00  0.00    +0.000 C 
BRANCH  10  11
ATOM     11  N   UNL     1      45.428   3.066   7.817  0.00  0.00    +0.000 NA
ATOM     12  C   UNL     1      46.583   3.731   7.197  0.00  0.00    +0.000 C 
ATOM     13  C   UNL     1      47.315   2.778   6.257  0.00  0.00    +0.000 C 
ATOM     14  C   UNL     1      47.759   1.517   6.987  0.00  0.00    +0.000 C 
ATOM     15  C   UNL     1      46.581   0.882   7.714  0.00  0.00    +0.000 C 
ATOM     16  C   UNL     1      45.855   1.897   8.601  0.00  0.00    +0.000 C 
ENDBRANCH  10  11
ENDBRANCH   9  10
ENDBRANCH   8   9
ENDBRANCH   5   8
ENDBRANCH   1   2
BRANCH   1  19
ATOM     17  O   UNL     1      49.912   5.957  17.487  0.00  0.00    +0.000 OA
ATOM     18  C   UNL     1      48.858   6.562  17.307  0.00  0.00    +0.000 C 
ATOM     19  N   UNL     1      47.924   6.161  16.390  0.00  0.00    +0.000 N 
ATOM     20  H   UNL     1      47.172   6.791  16.141  0.00  0.00    +0.000 HD
BRANCH  18  21
ATOM     21  C   UNL     1      48.503   7.735  18.119  0.00  0.00    +0.000 A 
ATOM     22  C   UNL     1      48.576   9.005  17.563  0.00  0.00    +0.000 A 
ATOM     23  S   UNL     1      48.156  10.253  18.648  0.00  0.00    +0.000 S 
ATOM     24  C   UNL     1      47.815   9.137  19.885  0.00  0.00    +0.000 A 
ATOM     25  N   UNL     1      47.366   9.553  21.100  0.00  0.00    +0.000 NA
ATOM     26  C   UNL     1      47.104   8.599  21.930  0.00  0.00    +0.000 A 
ATOM     27  N   UNL     1      47.269   7.265  21.662  0.00  0.00    +0.000 N 
ATOM     28  C   UNL     1      47.793   6.803  20.479  0.00  0.00    +0.000 A 
ATOM     29  O   UNL     1      48.054   5.614  20.327  0.00  0.00    +0.000 OA
ATOM     30  C   UNL     1      48.050   7.832  19.488  0.00  0.00    +0.000 A 
ATOM     31  H   UNL     1      47.080   6.568  22.364  0.00  0.00    +0.000 HD
ENDBRANCH  18  21
ENDBRANCH   1  19
TORSDOF 7
ENDMDL
MODEL 9
REMARK VINA RESULT:    -6.830      4.014      9.170
REMARK INTER + INTRA:         -10.524
REMARK INTER:                  -9.165
REMARK INTRA:                  -1.359
REMARK UNBOUND:                -0.899
REMARK  Name = 
REMARK  7 active torsions:
REMARK  status: ('A' for Active; 'I' for Inactive)
REMARK    1  A    between atoms: C_2  and  C_20
REMARK    2  A    between atoms: N_3  and  C_4
REMARK    3  A    between atoms: C_4  and  C_5
REMARK    4  A    between atoms: C_8  and  C_9
REMARK    5  A    between atoms: C_9  and  C_10
REMARK    6  A    between atoms: C_10  and  C_11
REMARK    7  A    between atoms: C_11  and  N_12
REMARK                            x       y       z     vdW  Elec       q    Type
REMARK                         _______ _______ _______ _____ _____    ______ ____
ROOT
ATOM      1  C   UNL     1      47.299   3.410  16.862  0.00  0.00    +0.000 C 
ENDROOT
BRANCH   1   2
ATOM      2  C   UNL     1      48.776   3.489  17.140  0.00  0.00    +0.000 A 
ATOM      3  C   UNL     1      49.369   4.726  17.411  0.00  0.00    +0.000 A 
ATOM      4  C   UNL     1      50.734   4.816  17.676  0.00  0.00    +0.000 A 
ATOM      5  C   UNL     1      51.535   3.669  17.679  0.00  0.00    +0.000 A 
ATOM      6  C   UNL     1      50.951   2.433  17.377  0.00  0.00    +0.000 A 
ATOM      7  C   UNL     1      49.584   2.345  17.101  0.00  0.00    +0.000 A 
BRANCH   5   8
ATOM      8  C   UNL     1      53.005   3.769  18.007  0.00  0.00    +0.000 C 
BRANCH   8   9
ATOM      9  C   UNL     1      53.398   5.103  18.657  0.00  0.00    +0.000 C 
BRANCH   9  10
ATOM     10  C   UNL     1      54.396   5.932  17.829  0.00  0.00    +0.000 C 
BRANCH  10  11
ATOM     11  N   UNL     1      53.782   7.082  17.145  0.00  0.00    +0.000 NA
ATOM     12  C   UNL     1      53.219   6.716  15.838  0.00  0.00    +0.000 C 
ATOM     13  C   UNL     1      52.687   7.949  15.112  0.00  0.00    +0.000 C 
ATOM     14  C   UNL     1      51.646   8.675  15.952  0.00  0.00    +0.000 C 
ATOM     15  C   UNL     1      52.194   8.966  17.343  0.00  0.00    +0.000 C 
ATOM     16  C   UNL     1      52.759   7.705  18.000  0.00  0.00    +0.000 C 
ENDBRANCH  10  11
ENDBRANCH   9  10
ENDBRANCH   8   9
ENDBRANCH   5   8
ENDBRANCH   1   2
BRANCH   1  19
ATOM     17  O   UNL     1      47.246   3.037  14.065  0.00  0.00    +0.000 OA
ATOM     18  C   UNL     1      46.862   4.106  14.534  0.00  0.00    +0.000 C 
ATOM     19  N   UNL     1      46.900   4.381  15.876  0.00  0.00    +0.000 N 
ATOM     20  H   UNL     1      46.399   5.186  16.231  0.00  0.00    +0.000 HD
BRANCH  18  21
ATOM     21  C   UNL     1      46.389   5.194  13.666  0.00  0.00    +0.000 A 
ATOM     22  C   UNL     1      47.199   6.299  13.444  0.00  0.00    +0.000 A 
ATOM     23  S   UNL     1      46.488   7.477  12.435  0.00  0.00    +0.000 S 
ATOM     24  C   UNL     1      45.091   6.531  12.221  0.00  0.00    +0.000 A 
ATOM     25  N   UNL     1      44.074   6.954  11.424  0.00  0.00    +0.000 NA
ATOM     26  C   UNL     1      43.095   6.118  11.315  0.00  0.00    +0.000 A 
ATOM     27  N   UNL     1      43.033   4.904  11.947  0.00  0.00    +0.000 N 
ATOM     28  C   UNL     1      44.000   4.470  12.822  0.00  0.00    +0.000 A 
ATOM     29  O   UNL     1      43.845   3.442  13.473  0.00  0.00    +0.000 OA
ATOM     30  C   UNL     1      45.151   5.347  12.935  0.00  0.00    +0.000 A 
ATOM     31  H   UNL     1      42.225   4.309  11.850  0.00  0.00    +0.000 HD
ENDBRANCH  18  21
ENDBRANCH   1  19
TORSDOF 7
ENDMDL
