MODEL 1
REMARK VINA RESULT:    -7.426      0.000      0.000
REMARK INTER + INTRA:         -12.160
REMARK INTER:                 -10.682
REMARK INTRA:                  -1.479
REMARK UNBOUND:                -1.479
REMARK  Name = 
REMARK  11 active torsions:
REMARK  status: ('A' for Active; 'I' for Inactive)
REMARK    1  A    between atoms: C_1  and  O_2
REMARK    2  A    between atoms: O_2  and  C_3
REMARK    3  A    between atoms: C_5  and  C_6
REMARK    4  A    between atoms: C_11  and  C_12
REMARK    5  A    between atoms: C_12  and  O_13
REMARK    6  A    between atoms: C_15  and  C_16
REMARK    7  A    between atoms: C_16  and  C_17
REMARK    8  A    between atoms: C_16  and  C_18
REMARK    9  A    between atoms: C_18  and  N_19
REMARK   10  A    between atoms: C_23  and  C_24
REMARK   11  A    between atoms: C_27  and  C_28
REMARK                            x       y       z     vdW  Elec       q    Type
REMARK                         _______ _______ _______ _____ _____    ______ ____
ROOT
ATOM      1  C   UNL     1      45.198   9.074  12.008  0.00  0.00    +0.000 A 
ATOM      2  C   UNL     1      44.712   7.849  11.538  0.00  0.00    +0.000 A 
ATOM      3  C   UNL     1      45.561   6.754  11.313  0.00  0.00    +0.000 A 
ATOM      4  C   UNL     1      46.945   6.983  11.474  0.00  0.00    +0.000 A 
ATOM      5  C   UNL     1      47.473   8.224  11.874  0.00  0.00    +0.000 A 
ATOM      6  C   UNL     1      46.574   9.256  12.169  0.00  0.00    +0.000 A 
ENDROOT
BRANCH   3   7
ATOM      7  C   UNL     1      45.058   5.402  10.917  0.00  0.00    +0.000 A 
ATOM      8  C   UNL     1      45.281   4.976   9.583  0.00  0.00    +0.000 A 
ATOM      9  C   UNL     1      44.939   3.701   9.134  0.00  0.00    +0.000 A 
ATOM     10  C   UNL     1      44.330   2.810   9.999  0.00  0.00    +0.000 A 
ATOM     11  C   UNL     1      44.057   3.200  11.305  0.00  0.00    +0.000 A 
ATOM     12  C   UNL     1      44.418   4.479  11.795  0.00  0.00    +0.000 A 
BRANCH  12  13
ATOM     13  C   UNL     1      44.048   4.814  13.227  0.00  0.00    +0.000 C 
BRANCH  13  14
ATOM     14  O   UNL     1      42.809   5.512  13.332  0.00  0.00    +0.000 OA
ATOM     15  H   UNL     1      42.201   4.932  13.821  0.00  0.00    +0.000 HD
ENDBRANCH  13  14
ENDBRANCH  12  13
ENDBRANCH   3   7
BRANCH   1  17
ATOM     16  C   UNL     1      44.114  11.064  11.278  0.00  0.00    +0.000 C 
ATOM     17  O   UNL     1      44.426  10.159  12.333  0.00  0.00    +0.000 OA
ENDBRANCH   1  17
BRANCH   5  18
ATOM     18  C   UNL     1      48.977   8.443  12.000  0.00  0.00    +0.000 C 
ATOM     19  C   UNL     1      49.280   9.751  12.748  0.00  0.00    +0.000 C 
BRANCH  18  20
ATOM     20  C   UNL     1      49.685   7.222  12.653  0.00  0.00    +0.000 C 
BRANCH  20  21
ATOM     21  N   UNL     1      50.143   7.563  14.005  0.00  0.00    +0.000 N 
ATOM     22  C   UNL     1      49.533   6.883  15.069  0.00  0.00    +0.000 A 
ATOM     23  C   UNL     1      49.864   7.235  16.374  0.00  0.00    +0.000 A 
ATOM     24  N   UNL     1      49.333   6.660  17.482  0.00  0.00    +0.000 NA
ATOM     25  C   UNL     1      48.407   5.675  17.243  0.00  0.00    +0.000 A 
ATOM     26  C   UNL     1      48.055   5.297  15.945  0.00  0.00    +0.000 A 
ATOM     27  C   UNL     1      47.102   4.204  15.587  0.00  0.00    +0.000 C 
ATOM     28  N   UNL     1      48.616   5.918  14.853  0.00  0.00    +0.000 NA
ATOM     29  H   UNL     1      51.153   7.491  14.098  0.00  0.00    +0.000 HD
BRANCH  25  30
ATOM     30  C   UNL     1      47.830   5.079  18.502  0.00  0.00    +0.000 C 
ATOM     31  N   UNL     1      46.597   5.572  18.857  0.00  0.00    +0.000 N 
ATOM     32  O   UNL     1      48.363   4.220  19.185  0.00  0.00    +0.000 OA
ATOM     33  H   UNL     1      46.145   6.259  18.266  0.00  0.00    +0.000 HD
ATOM     34  H   UNL     1      46.125   5.197  19.668  0.00  0.00    +0.000 HD
ENDBRANCH  25  30
ENDBRANCH  20  21
ENDBRANCH  18  20
ENDBRANCH   5  18
TORSDOF 8
ENDMDL
MODEL 2
REMARK VINA RESULT:    -7.389      3.979      8.113
REMARK INTER + INTRA:         -12.107
REMARK INTER:                 -11.555
REMARK INTRA:                  -0.552
REMARK UNBOUND:                -1.479
REMARK  Name = 
REMARK  11 active torsions:
REMARK  status: ('A' for Active; 'I' for Inactive)
REMARK    1  A    between atoms: C_1  and  O_2
REMARK    2  A    between atoms: O_2  and  C_3
REMARK    3  A    between atoms: C_5  and  C_6
REMARK    4  A    between atoms: C_11  and  C_12
REMARK    5  A    between atoms: C_12  and  O_13
REMARK    6  A    between atoms: C_15  and  C_16
REMARK    7  A    between atoms: C_16  and  C_17
REMARK    8  A    between atoms: C_16  and  C_18
REMARK    9  A    between atoms: C_18  and  N_19
REMARK   10  A    between atoms: C_23  and  C_24
REMARK   11  A    between atoms: C_27  and  C_28
REMARK                            x       y       z     vdW  Elec       q    Type
REMARK                         _______ _______ _______ _____ _____    ______ ____
ROOT
ATOM      1  C   UNL     1      47.343   4.858  14.661  0.00  0.00    +0.000 A 
ATOM      2  C   UNL     1      47.729   6.047  14.031  0.00  0.00    +0.000 A 
ATOM      3  C   UNL     1      46.897   6.698  13.107  0.00  0.00    +0.000 A 
ATOM      4  C   UNL     1      45.699   6.036  12.757  0.00  0.00    +0.000 A 
ATOM      5  C   UNL     1      45.316   4.803  13.318  0.00  0.00    +0.000 A 
ATOM      6  C   UNL     1      46.142   4.242  14.298  0.00  0.00    +0.000 A 
ENDROOT
BRANCH   3   7
ATOM      7  C   UNL     1      47.234   8.023  12.501  0.00  0.00    +0.000 A 
ATOM      8  C   UNL     1      46.236   9.031  12.515  0.00  0.00    +0.000 A 
ATOM      9  C   UNL     1      46.472  10.329  12.063  0.00  0.00    +0.000 A 
ATOM     10  C   UNL     1      47.713  10.661  11.550  0.00  0.00    +0.000 A 
ATOM     11  C   UNL     1      48.708   9.693  11.481  0.00  0.00    +0.000 A 
ATOM     12  C   UNL     1      48.504   8.375  11.957  0.00  0.00    +0.000 A 
BRANCH  12  13
ATOM     13  C   UNL     1      49.646   7.388  11.808  0.00  0.00    +0.000 C 
BRANCH  13  14
ATOM     14  O   UNL     1      50.917   7.959  12.110  0.00  0.00    +0.000 OA
ATOM     15  H   UNL     1      50.933   8.841  11.702  0.00  0.00    +0.000 HD
ENDBRANCH  13  14
ENDBRANCH  12  13
ENDBRANCH   3   7
BRANCH   1  17
ATOM     16  C   UNL     1      47.321   3.698  16.740  0.00  0.00    +0.000 C 
ATOM     17  O   UNL     1      48.058   4.210  15.634  0.00  0.00    +0.000 OA
ENDBRANCH   1  17
BRANCH   5  18
ATOM     18  C   UNL     1      44.033   4.101  12.886  0.00  0.00    +0.000 C 
ATOM     19  C   UNL     1      42.847   5.078  12.885  0.00  0.00    +0.000 C 
BRANCH  18  20
ATOM     20  C   UNL     1      44.200   3.388  11.514  0.00  0.00    +0.000 C 
BRANCH  20  21
ATOM     21  N   UNL     1      44.573   4.357  10.478  0.00  0.00    +0.000 N 
ATOM     22  C   UNL     1      45.257   3.857   9.361  0.00  0.00    +0.000 A 
ATOM     23  C   UNL     1      45.716   4.748   8.395  0.00  0.00    +0.000 A 
ATOM     24  N   UNL     1      46.400   4.386   7.281  0.00  0.00    +0.000 NA
ATOM     25  C   UNL     1      46.635   3.040   7.151  0.00  0.00    +0.000 A 
ATOM     26  C   UNL     1      46.186   2.120   8.102  0.00  0.00    +0.000 A 
ATOM     27  C   UNL     1      46.347   0.637   8.019  0.00  0.00    +0.000 C 
ATOM     28  N   UNL     1      45.504   2.538   9.220  0.00  0.00    +0.000 NA
ATOM     29  H   UNL     1      43.777   4.908  10.163  0.00  0.00    +0.000 HD
BRANCH  25  30
ATOM     30  C   UNL     1      47.414   2.686   5.910  0.00  0.00    +0.000 C 
ATOM     31  N   UNL     1      48.701   2.262   6.142  0.00  0.00    +0.000 N 
ATOM     32  O   UNL     1      46.988   2.743   4.768  0.00  0.00    +0.000 OA
ATOM     33  H   UNL     1      49.036   2.184   7.094  0.00  0.00    +0.000 HD
ATOM     34  H   UNL     1      49.278   1.970   5.366  0.00  0.00    +0.000 HD
ENDBRANCH  25  30
ENDBRANCH  20  21
ENDBRANCH  18  20
ENDBRANCH   5  18
TORSDOF 8
ENDMDL
MODEL 3
REMARK VINA RESULT:    -7.201      1.302      1.821
REMARK INTER + INTRA:         -11.836
REMARK INTER:                 -10.246
REMARK INTRA:                  -1.590
REMARK UNBOUND:                -1.479
REMARK  Name = 
REMARK  11 active torsions:
REMARK  status: ('A' for Active; 'I' for Inactive)
REMARK    1  A    between atoms: C_1  and  O_2
REMARK    2  A    between atoms: O_2  and  C_3
REMARK    3  A    between atoms: C_5  and  C_6
REMARK    4  A    between atoms: C_11  and  C_12
REMARK    5  A    between atoms: C_12  and  O_13
REMARK    6  A    between atoms: C_15  and  C_16
REMARK    7  A    between atoms: C_16  and  C_17
REMARK    8  A    between atoms: C_16  and  C_18
REMARK    9  A    between atoms: C_18  and  N_19
REMARK   10  A    between atoms: C_23  and  C_24
REMARK   11  A    between atoms: C_27  and  C_28
REMARK                            x       y       z     vdW  Elec       q    Type
REMARK                         _______ _______ _______ _____ _____    ______ ____
ROOT
ATOM      1  C   UNL     1      45.314   9.860  11.971  0.00  0.00    +0.000 A 
ATOM      2  C   UNL     1      44.707   8.607  11.830  0.00  0.00    +0.000 A 
ATOM      3  C   UNL     1      45.451   7.417  11.867  0.00  0.00    +0.000 A 
ATOM      4  C   UNL     1      46.855   7.550  11.940  0.00  0.00    +0.000 A 
ATOM      5  C   UNL     1      47.502   8.798  12.009  0.00  0.00    +0.000 A 
ATOM      6  C   UNL     1      46.706   9.949  12.055  0.00  0.00    +0.000 A 
ENDROOT
BRANCH   3   7
ATOM      7  C   UNL     1      44.820   6.061  11.830  0.00  0.00    +0.000 A 
ATOM      8  C   UNL     1      44.018   5.674  12.934  0.00  0.00    +0.000 A 
ATOM      9  C   UNL     1      43.308   4.473  12.962  0.00  0.00    +0.000 A 
ATOM     10  C   UNL     1      43.399   3.597  11.896  0.00  0.00    +0.000 A 
ATOM     11  C   UNL     1      44.206   3.920  10.810  0.00  0.00    +0.000 A 
ATOM     12  C   UNL     1      44.916   5.144  10.744  0.00  0.00    +0.000 A 
BRANCH  12  13
ATOM     13  C   UNL     1      45.791   5.385   9.528  0.00  0.00    +0.000 C 
BRANCH  13  14
ATOM     14  O   UNL     1      45.270   4.790   8.342  0.00  0.00    +0.000 OA
ATOM     15  H   UNL     1      44.695   5.453   7.924  0.00  0.00    +0.000 HD
ENDBRANCH  13  14
ENDBRANCH  12  13
ENDBRANCH   3   7
BRANCH   1  17
ATOM     16  C   UNL     1      43.523  11.212  11.176  0.00  0.00    +0.000 C 
ATOM     17  O   UNL     1      44.651  11.058  12.031  0.00  0.00    +0.000 OA
ENDBRANCH   1  17
BRANCH   5  18
ATOM     18  C   UNL     1      49.023   8.902  12.047  0.00  0.00    +0.000 C 
ATOM     19  C   UNL     1      49.472  10.033  12.984  0.00  0.00    +0.000 C 
BRANCH  18  20
ATOM     20  C   UNL     1      49.684   7.544  12.417  0.00  0.00    +0.000 C 
BRANCH  20  21
ATOM     21  N   UNL     1      50.183   7.579  13.796  0.00  0.00    +0.000 N 
ATOM     22  C   UNL     1      49.497   6.798  14.737  0.00  0.00    +0.000 A 
ATOM     23  C   UNL     1      49.870   6.869  16.076  0.00  0.00    +0.000 A 
ATOM     24  N   UNL     1      49.274   6.173  17.076  0.00  0.00    +0.000 NA
ATOM     25  C   UNL     1      48.234   5.366  16.688  0.00  0.00    +0.000 A 
ATOM     26  C   UNL     1      47.837   5.270  15.352  0.00  0.00    +0.000 A 
ATOM     27  C   UNL     1      46.756   4.382  14.829  0.00  0.00    +0.000 C 
ATOM     28  N   UNL     1      48.467   6.005  14.375  0.00  0.00    +0.000 NA
ATOM     29  H   UNL     1      51.177   7.371  13.851  0.00  0.00    +0.000 HD
BRANCH  25  30
ATOM     30  C   UNL     1      47.591   4.627  17.834  0.00  0.00    +0.000 C 
ATOM     31  N   UNL     1      46.696   5.372  18.566  0.00  0.00    +0.000 N 
ATOM     32  O   UNL     1      47.800   3.462  18.131  0.00  0.00    +0.000 OA
ATOM     33  H   UNL     1      46.501   6.327  18.292  0.00  0.00    +0.000 HD
ATOM     34  H   UNL     1      46.194   4.940  19.328  0.00  0.00    +0.000 HD
ENDBRANCH  25  30
ENDBRANCH  20  21
ENDBRANCH  18  20
ENDBRANCH   5  18
TORSDOF 8
ENDMDL
MODEL 4
REMARK VINA RESULT:    -6.974      1.596      2.071
REMARK INTER + INTRA:         -11.511
REMARK INTER:                 -10.326
REMARK INTRA:                  -1.185
REMARK UNBOUND:                -1.479
REMARK  Name = 
REMARK  11 active torsions:
REMARK  status: ('A' for Active; 'I' for Inactive)
REMARK    1  A    between atoms: C_1  and  O_2
REMARK    2  A    between atoms: O_2  and  C_3
REMARK    3  A    between atoms: C_5  and  C_6
REMARK    4  A    between atoms: C_11  and  C_12
REMARK    5  A    between atoms: C_12  and  O_13
REMARK    6  A    between atoms: C_15  and  C_16
REMARK    7  A    between atoms: C_16  and  C_17
REMARK    8  A    between atoms: C_16  and  C_18
REMARK    9  A    between atoms: C_18  and  N_19
REMARK   10  A    between atoms: C_23  and  C_24
REMARK   11  A    between atoms: C_27  and  C_28
REMARK                            x       y       z     vdW  Elec       q    Type
REMARK                         _______ _______ _______ _____ _____    ______ ____
ROOT
ATOM      1  C   UNL     1      45.179   9.041  12.008  0.00  0.00    +0.000 A 
ATOM      2  C   UNL     1      44.711   7.844  11.455  0.00  0.00    +0.000 A 
ATOM      3  C   UNL     1      45.511   6.692  11.400  0.00  0.00    +0.000 A 
ATOM      4  C   UNL     1      46.850   6.830  11.827  0.00  0.00    +0.000 A 
ATOM      5  C   UNL     1      47.374   8.039  12.320  0.00  0.00    +0.000 A 
ATOM      6  C   UNL     1      46.508   9.133  12.433  0.00  0.00    +0.000 A 
ENDROOT
BRANCH   3   7
ATOM      7  C   UNL     1      45.003   5.370  10.917  0.00  0.00    +0.000 A 
ATOM      8  C   UNL     1      45.253   5.018   9.567  0.00  0.00    +0.000 A 
ATOM      9  C   UNL     1      44.907   3.774   9.038  0.00  0.00    +0.000 A 
ATOM     10  C   UNL     1      44.268   2.843   9.837  0.00  0.00    +0.000 A 
ATOM     11  C   UNL     1      43.968   3.162  11.156  0.00  0.00    +0.000 A 
ATOM     12  C   UNL     1      44.331   4.407  11.726  0.00  0.00    +0.000 A 
BRANCH  12  13
ATOM     13  C   UNL     1      43.931   4.665  13.165  0.00  0.00    +0.000 C 
BRANCH  13  14
ATOM     14  O   UNL     1      42.774   5.491  13.281  0.00  0.00    +0.000 OA
ATOM     15  H   UNL     1      42.458   5.659  12.378  0.00  0.00    +0.000 HD
ENDBRANCH  13  14
ENDBRANCH  12  13
ENDBRANCH   3   7
BRANCH   1  17
ATOM     16  C   UNL     1      43.541  10.523  11.121  0.00  0.00    +0.000 C 
ATOM     17  O   UNL     1      44.435  10.179  12.175  0.00  0.00    +0.000 OA
ENDBRANCH   1  17
BRANCH   5  18
ATOM     18  C   UNL     1      48.836   8.159  12.735  0.00  0.00    +0.000 C 
ATOM     19  C   UNL     1      49.572   9.186  11.859  0.00  0.00    +0.000 C 
BRANCH  18  20
ATOM     20  C   UNL     1      48.982   8.477  14.250  0.00  0.00    +0.000 C 
BRANCH  20  21
ATOM     21  N   UNL     1      48.278   7.470  15.052  0.00  0.00    +0.000 N 
ATOM     22  C   UNL     1      49.070   6.619  15.836  0.00  0.00    +0.000 A 
ATOM     23  C   UNL     1      48.459   5.587  16.542  0.00  0.00    +0.000 A 
ATOM     24  N   UNL     1      49.120   4.695  17.322  0.00  0.00    +0.000 NA
ATOM     25  C   UNL     1      50.480   4.862  17.377  0.00  0.00    +0.000 A 
ATOM     26  C   UNL     1      51.124   5.890  16.683  0.00  0.00    +0.000 A 
ATOM     27  C   UNL     1      52.587   6.183  16.725  0.00  0.00    +0.000 C 
ATOM     28  N   UNL     1      50.409   6.764  15.897  0.00  0.00    +0.000 NA
ATOM     29  H   UNL     1      47.551   7.880  15.633  0.00  0.00    +0.000 HD
BRANCH  25  30
ATOM     30  C   UNL     1      51.174   3.838  18.239  0.00  0.00    +0.000 C 
ATOM     31  N   UNL     1      51.136   4.102  19.587  0.00  0.00    +0.000 N 
ATOM     32  O   UNL     1      51.733   2.833  17.831  0.00  0.00    +0.000 OA
ATOM     33  H   UNL     1      50.639   4.920  19.921  0.00  0.00    +0.000 HD
ATOM     34  H   UNL     1      51.545   3.446  20.237  0.00  0.00    +0.000 HD
ENDBRANCH  25  30
ENDBRANCH  20  21
ENDBRANCH  18  20
ENDBRANCH   5  18
TORSDOF 8
ENDMDL
MODEL 5
REMARK VINA RESULT:    -6.870      2.927      6.609
REMARK INTER + INTRA:         -11.361
REMARK INTER:                  -9.846
REMARK INTRA:                  -1.515
REMARK UNBOUND:                -1.479
REMARK  Name = 
REMARK  11 active torsions:
REMARK  status: ('A' for Active; 'I' for Inactive)
REMARK    1  A    between atoms: C_1  and  O_2
REMARK    2  A    between atoms: O_2  and  C_3
REMARK    3  A    between atoms: C_5  and  C_6
REMARK    4  A    between atoms: C_11  and  C_12
REMARK    5  A    between atoms: C_12  and  O_13
REMARK    6  A    between atoms: C_15  and  C_16
REMARK    7  A    between atoms: C_16  and  C_17
REMARK    8  A    between atoms: C_16  and  C_18
REMARK    9  A    between atoms: C_18  and  N_19
REMARK   10  A    between atoms: C_23  and  C_24
REMARK   11  A    between atoms: C_27  and  C_28
REMARK                            x       y       z     vdW  Elec       q    Type
REMARK                         _______ _______ _______ _____ _____    ______ ____
ROOT
ATOM      1  C   UNL     1      48.160   8.561  18.419  0.00  0.00    +0.000 A 
ATOM      2  C   UNL     1      48.550   7.217  18.449  0.00  0.00    +0.000 A 
ATOM      3  C   UNL     1      48.959   6.540  17.289  0.00  0.00    +0.000 A 
ATOM      4  C   UNL     1      48.850   7.248  16.072  0.00  0.00    +0.000 A 
ATOM      5  C   UNL     1      48.393   8.576  15.998  0.00  0.00    +0.000 A 
ATOM      6  C   UNL     1      48.080   9.231  17.195  0.00  0.00    +0.000 A 
ENDROOT
BRANCH   3   7
ATOM      7  C   UNL     1      49.485   5.140  17.307  0.00  0.00    +0.000 A 
ATOM      8  C   UNL     1      50.887   4.960  17.414  0.00  0.00    +0.000 A 
ATOM      9  C   UNL     1      51.477   3.701  17.534  0.00  0.00    +0.000 A 
ATOM     10  C   UNL     1      50.683   2.569  17.519  0.00  0.00    +0.000 A 
ATOM     11  C   UNL     1      49.307   2.697  17.375  0.00  0.00    +0.000 A 
ATOM     12  C   UNL     1      48.680   3.964  17.279  0.00  0.00    +0.000 A 
BRANCH  12  13
ATOM     13  C   UNL     1      47.174   3.992  17.096  0.00  0.00    +0.000 C 
BRANCH  13  14
ATOM     14  O   UNL     1      46.522   2.869  17.683  0.00  0.00    +0.000 OA
ATOM     15  H   UNL     1      45.652   2.794  17.256  0.00  0.00    +0.000 HD
ENDBRANCH  13  14
ENDBRANCH  12  13
ENDBRANCH   3   7
BRANCH   1  17
ATOM     16  C   UNL     1      47.650  10.710  19.307  0.00  0.00    +0.000 C 
ATOM     17  O   UNL     1      47.831   9.313  19.516  0.00  0.00    +0.000 OA
ENDBRANCH   1  17
BRANCH   5  18
ATOM     18  C   UNL     1      48.253   9.294  14.660  0.00  0.00    +0.000 C 
ATOM     19  C   UNL     1      49.333  10.375  14.502  0.00  0.00    +0.000 C 
BRANCH  18  20
ATOM     20  C   UNL     1      48.251   8.295  13.468  0.00  0.00    +0.000 C 
BRANCH  20  21
ATOM     21  N   UNL     1      46.924   8.250  12.843  0.00  0.00    +0.000 N 
ATOM     22  C   UNL     1      46.327   6.988  12.717  0.00  0.00    +0.000 A 
ATOM     23  C   UNL     1      45.112   6.878  12.048  0.00  0.00    +0.000 A 
ATOM     24  N   UNL     1      44.446   5.713  11.852  0.00  0.00    +0.000 NA
ATOM     25  C   UNL     1      45.061   4.596  12.360  0.00  0.00    +0.000 A 
ATOM     26  C   UNL     1      46.280   4.672  13.039  0.00  0.00    +0.000 A 
ATOM     27  C   UNL     1      46.995   3.523  13.671  0.00  0.00    +0.000 C 
ATOM     28  N   UNL     1      46.920   5.878  13.204  0.00  0.00    +0.000 NA
ATOM     29  H   UNL     1      46.267   8.886  13.289  0.00  0.00    +0.000 HD
BRANCH  25  30
ATOM     30  C   UNL     1      44.296   3.323  12.101  0.00  0.00    +0.000 C 
ATOM     31  N   UNL     1      44.481   2.786  10.849  0.00  0.00    +0.000 N 
ATOM     32  O   UNL     1      43.564   2.763  12.902  0.00  0.00    +0.000 OA
ATOM     33  H   UNL     1      45.117   3.237  10.203  0.00  0.00    +0.000 HD
ATOM     34  H   UNL     1      44.034   1.913  10.609  0.00  0.00    +0.000 HD
ENDBRANCH  25  30
ENDBRANCH  20  21
ENDBRANCH  18  20
ENDBRANCH   5  18
TORSDOF 8
ENDMDL
MODEL 6
REMARK VINA RESULT:    -6.840      2.977      7.124
REMARK INTER + INTRA:         -11.317
REMARK INTER:                 -10.031
REMARK INTRA:                  -1.286
REMARK UNBOUND:                -1.479
REMARK  Name = 
REMARK  11 active torsions:
REMARK  status: ('A' for Active; 'I' for Inactive)
REMARK    1  A    between atoms: C_1  and  O_2
REMARK    2  A    between atoms: O_2  and  C_3
REMARK    3  A    between atoms: C_5  and  C_6
REMARK    4  A    between atoms: C_11  and  C_12
REMARK    5  A    between atoms: C_12  and  O_13
REMARK    6  A    between atoms: C_15  and  C_16
REMARK    7  A    between atoms: C_16  and  C_17
REMARK    8  A    between atoms: C_16  and  C_18
REMARK    9  A    between atoms: C_18  and  N_19
REMARK   10  A    between atoms: C_23  and  C_24
REMARK   11  A    between atoms: C_27  and  C_28
REMARK                            x       y       z     vdW  Elec       q    Type
REMARK                         _______ _______ _______ _____ _____    ______ ____
ROOT
ATOM      1  C   UNL     1      48.094   7.477  19.108  0.00  0.00    +0.000 A 
ATOM      2  C   UNL     1      48.534   6.166  18.896  0.00  0.00    +0.000 A 
ATOM      3  C   UNL     1      49.109   5.766  17.679  0.00  0.00    +0.000 A 
ATOM      4  C   UNL     1      49.119   6.722  16.640  0.00  0.00    +0.000 A 
ATOM      5  C   UNL     1      48.619   8.028  16.797  0.00  0.00    +0.000 A 
ATOM      6  C   UNL     1      48.135   8.398  18.057  0.00  0.00    +0.000 A 
ENDROOT
BRANCH   3   7
ATOM      7  C   UNL     1      49.687   4.404  17.461  0.00  0.00    +0.000 A 
ATOM      8  C   UNL     1      51.053   4.204  17.787  0.00  0.00    +0.000 A 
ATOM      9  C   UNL     1      51.669   2.954  17.711  0.00  0.00    +0.000 A 
ATOM     10  C   UNL     1      50.946   1.859  17.275  0.00  0.00    +0.000 A 
ATOM     11  C   UNL     1      49.614   2.018  16.908  0.00  0.00    +0.000 A 
ATOM     12  C   UNL     1      48.957   3.270  17.000  0.00  0.00    +0.000 A 
BRANCH  12  13
ATOM     13  C   UNL     1      47.512   3.341  16.546  0.00  0.00    +0.000 C 
BRANCH  13  14
ATOM     14  O   UNL     1      46.585   3.133  17.608  0.00  0.00    +0.000 OA
ATOM     15  H   UNL     1      46.304   4.013  17.912  0.00  0.00    +0.000 HD
ENDBRANCH  13  14
ENDBRANCH  12  13
ENDBRANCH   3   7
BRANCH   1  17
ATOM     16  C   UNL     1      47.434   7.030  21.351  0.00  0.00    +0.000 C 
ATOM     17  O   UNL     1      47.603   7.965  20.290  0.00  0.00    +0.000 OA
ENDBRANCH   1  17
BRANCH   5  18
ATOM     18  C   UNL     1      48.612   9.019  15.639  0.00  0.00    +0.000 C 
ATOM     19  C   UNL     1      49.836   9.946  15.704  0.00  0.00    +0.000 C 
BRANCH  18  20
ATOM     20  C   UNL     1      48.500   8.300  14.265  0.00  0.00    +0.000 C 
BRANCH  20  21
ATOM     21  N   UNL     1      47.430   8.902  13.461  0.00  0.00    +0.000 N 
ATOM     22  C   UNL     1      46.440   8.037  12.975  0.00  0.00    +0.000 A 
ATOM     23  C   UNL     1      45.456   8.542  12.130  0.00  0.00    +0.000 A 
ATOM     24  N   UNL     1      44.457   7.801  11.588  0.00  0.00    +0.000 NA
ATOM     25  C   UNL     1      44.468   6.470  11.921  0.00  0.00    +0.000 A 
ATOM     26  C   UNL     1      45.440   5.933  12.769  0.00  0.00    +0.000 A 
ATOM     27  C   UNL     1      45.502   4.514  13.230  0.00  0.00    +0.000 C 
ATOM     28  N   UNL     1      46.439   6.724  13.286  0.00  0.00    +0.000 NA
ATOM     29  H   UNL     1      46.986   9.685  13.936  0.00  0.00    +0.000 HD
BRANCH  25  30
ATOM     30  C   UNL     1      43.352   5.684  11.282  0.00  0.00    +0.000 C 
ATOM     31  N   UNL     1      42.096   5.981  11.756  0.00  0.00    +0.000 N 
ATOM     32  O   UNL     1      43.490   4.847  10.405  0.00  0.00    +0.000 OA
ATOM     33  H   UNL     1      41.986   6.702  12.459  0.00  0.00    +0.000 HD
ATOM     34  H   UNL     1      41.290   5.525  11.354  0.00  0.00    +0.000 HD
ENDBRANCH  25  30
ENDBRANCH  20  21
ENDBRANCH  18  20
ENDBRANCH   5  18
TORSDOF 8
ENDMDL
MODEL 7
REMARK VINA RESULT:    -6.705      3.255      7.749
REMARK INTER + INTRA:         -11.123
REMARK INTER:                 -10.190
REMARK INTRA:                  -0.933
REMARK UNBOUND:                -1.479
REMARK  Name = 
REMARK  11 active torsions:
REMARK  status: ('A' for Active; 'I' for Inactive)
REMARK    1  A    between atoms: C_1  and  O_2
REMARK    2  A    between atoms: O_2  and  C_3
REMARK    3  A    between atoms: C_5  and  C_6
REMARK    4  A    between atoms: C_11  and  C_12
REMARK    5  A    between atoms: C_12  and  O_13
REMARK    6  A    between atoms: C_15  and  C_16
REMARK    7  A    between atoms: C_16  and  C_17
REMARK    8  A    between atoms: C_16  and  C_18
REMARK    9  A    between atoms: C_18  and  N_19
REMARK   10  A    between atoms: C_23  and  C_24
REMARK   11  A    between atoms: C_27  and  C_28
REMARK                            x       y       z     vdW  Elec       q    Type
REMARK                         _______ _______ _______ _____ _____    ______ ____
ROOT
ATOM      1  C   UNL     1      48.655   6.366  18.862  0.00  0.00    +0.000 A 
ATOM      2  C   UNL     1      49.452   5.217  18.810  0.00  0.00    +0.000 A 
ATOM      3  C   UNL     1      50.271   4.934  17.705  0.00  0.00    +0.000 A 
ATOM      4  C   UNL     1      50.165   5.807  16.599  0.00  0.00    +0.000 A 
ATOM      5  C   UNL     1      49.318   6.931  16.591  0.00  0.00    +0.000 A 
ATOM      6  C   UNL     1      48.589   7.213  17.752  0.00  0.00    +0.000 A 
ENDROOT
BRANCH   3   7
ATOM      7  C   UNL     1      51.215   3.775  17.667  0.00  0.00    +0.000 A 
ATOM      8  C   UNL     1      52.587   4.029  17.922  0.00  0.00    +0.000 A 
ATOM      9  C   UNL     1      53.537   3.011  18.004  0.00  0.00    +0.000 A 
ATOM     10  C   UNL     1      53.154   1.698  17.802  0.00  0.00    +0.000 A 
ATOM     11  C   UNL     1      51.826   1.408  17.510  0.00  0.00    +0.000 A 
ATOM     12  C   UNL     1      50.836   2.418  17.447  0.00  0.00    +0.000 A 
BRANCH  12  13
ATOM     13  C   UNL     1      49.423   1.998  17.092  0.00  0.00    +0.000 C 
BRANCH  13  14
ATOM     14  O   UNL     1      49.182   1.989  15.687  0.00  0.00    +0.000 OA
ATOM     15  H   UNL     1      48.549   1.273  15.515  0.00  0.00    +0.000 HD
ENDBRANCH  13  14
ENDBRANCH  12  13
ENDBRANCH   3   7
BRANCH   1  17
ATOM     16  C   UNL     1      48.577   6.921  21.175  0.00  0.00    +0.000 C 
ATOM     17  O   UNL     1      47.897   6.754  19.935  0.00  0.00    +0.000 OA
ENDBRANCH   1  17
BRANCH   5  18
ATOM     18  C   UNL     1      49.203   7.827  15.363  0.00  0.00    +0.000 C 
ATOM     19  C   UNL     1      50.553   7.940  14.638  0.00  0.00    +0.000 C 
BRANCH  18  20
ATOM     20  C   UNL     1      48.069   7.356  14.409  0.00  0.00    +0.000 C 
BRANCH  20  21
ATOM     21  N   UNL     1      47.776   5.935  14.628  0.00  0.00    +0.000 N 
ATOM     22  C   UNL     1      46.925   5.315  13.703  0.00  0.00    +0.000 A 
ATOM     23  C   UNL     1      46.541   3.994  13.918  0.00  0.00    +0.000 A 
ATOM     24  N   UNL     1      45.713   3.294  13.103  0.00  0.00    +0.000 NA
ATOM     25  C   UNL     1      45.245   3.983  12.012  0.00  0.00    +0.000 A 
ATOM     26  C   UNL     1      45.614   5.309  11.767  0.00  0.00    +0.000 A 
ATOM     27  C   UNL     1      45.201   6.120  10.583  0.00  0.00    +0.000 C 
ATOM     28  N   UNL     1      46.450   5.979  12.630  0.00  0.00    +0.000 NA
ATOM     29  H   UNL     1      48.623   5.379  14.728  0.00  0.00    +0.000 HD
BRANCH  25  30
ATOM     30  C   UNL     1      44.315   3.173  11.146  0.00  0.00    +0.000 C 
ATOM     31  N   UNL     1      44.938   2.441  10.163  0.00  0.00    +0.000 N 
ATOM     32  O   UNL     1      43.102   3.124  11.266  0.00  0.00    +0.000 OA
ATOM     33  H   UNL     1      45.948   2.459  10.093  0.00  0.00    +0.000 HD
ATOM     34  H   UNL     1      44.390   1.842   9.563  0.00  0.00    +0.000 HD
ENDBRANCH  25  30
ENDBRANCH  20  21
ENDBRANCH  18  20
ENDBRANCH   5  18
TORSDOF 8
ENDMDL
MODEL 8
REMARK VINA RESULT:    -6.283      2.937      5.857
REMARK INTER + INTRA:         -10.516
REMARK INTER:                  -9.142
REMARK INTRA:                  -1.375
REMARK UNBOUND:                -1.479
REMARK  Name = 
REMARK  11 active torsions:
REMARK  status: ('A' for Active; 'I' for Inactive)
REMARK    1  A    between atoms: C_1  and  O_2
REMARK    2  A    between atoms: O_2  and  C_3
REMARK    3  A    between atoms: C_5  and  C_6
REMARK    4  A    between atoms: C_11  and  C_12
REMARK    5  A    between atoms: C_12  and  O_13
REMARK    6  A    between atoms: C_15  and  C_16
REMARK    7  A    between atoms: C_16  and  C_17
REMARK    8  A    between atoms: C_16  and  C_18
REMARK    9  A    between atoms: C_18  and  N_19
REMARK   10  A    between atoms: C_23  and  C_24
REMARK   11  A    between atoms: C_27  and  C_28
REMARK                            x       y       z     vdW  Elec       q    Type
REMARK                         _______ _______ _______ _____ _____    ______ ____
ROOT
ATOM      1  C   UNL     1      47.796   5.576  14.675  0.00  0.00    +0.000 A 
ATOM      2  C   UNL     1      46.822   5.141  13.769  0.00  0.00    +0.000 A 
ATOM      3  C   UNL     1      46.570   5.824  12.569  0.00  0.00    +0.000 A 
ATOM      4  C   UNL     1      47.268   7.036  12.372  0.00  0.00    +0.000 A 
ATOM      5  C   UNL     1      48.201   7.540  13.297  0.00  0.00    +0.000 A 
ATOM      6  C   UNL     1      48.477   6.773  14.436  0.00  0.00    +0.000 A 
ENDROOT
BRANCH   3   7
ATOM      7  C   UNL     1      45.614   5.324  11.533  0.00  0.00    +0.000 A 
ATOM      8  C   UNL     1      46.022   5.378  10.176  0.00  0.00    +0.000 A 
ATOM      9  C   UNL     1      45.251   4.854   9.138  0.00  0.00    +0.000 A 
ATOM     10  C   UNL     1      44.023   4.281   9.418  0.00  0.00    +0.000 A 
ATOM     11  C   UNL     1      43.567   4.243  10.730  0.00  0.00    +0.000 A 
ATOM     12  C   UNL     1      44.341   4.744  11.806  0.00  0.00    +0.000 A 
BRANCH  12  13
ATOM     13  C   UNL     1      43.738   4.681  13.196  0.00  0.00    +0.000 C 
BRANCH  13  14
ATOM     14  O   UNL     1      42.571   5.488  13.333  0.00  0.00    +0.000 OA
ATOM     15  H   UNL     1      41.812   4.882  13.363  0.00  0.00    +0.000 HD
ENDBRANCH  13  14
ENDBRANCH  12  13
ENDBRANCH   3   7
BRANCH   1  17
ATOM     16  C   UNL     1      48.810   5.692  16.826  0.00  0.00    +0.000 C 
ATOM     17  O   UNL     1      48.159   4.919  15.821  0.00  0.00    +0.000 OA
ENDBRANCH   1  17
BRANCH   5  18
ATOM     18  C   UNL     1      48.907   8.871  13.067  0.00  0.00    +0.000 C 
ATOM     19  C   UNL     1      50.431   8.712  13.182  0.00  0.00    +0.000 C 
BRANCH  18  20
ATOM     20  C   UNL     1      48.490   9.519  11.716  0.00  0.00    +0.000 C 
BRANCH  20  21
ATOM     21  N   UNL     1      47.781  10.781  11.953  0.00  0.00    +0.000 N 
ATOM     22  C   UNL     1      46.388  10.762  11.803  0.00  0.00    +0.000 A 
ATOM     23  C   UNL     1      45.678  11.953  11.924  0.00  0.00    +0.000 A 
ATOM     24  N   UNL     1      44.333  12.062  11.787  0.00  0.00    +0.000 NA
ATOM     25  C   UNL     1      43.677  10.891  11.502  0.00  0.00    +0.000 A 
ATOM     26  C   UNL     1      44.360   9.678  11.377  0.00  0.00    +0.000 A 
ATOM     27  C   UNL     1      43.729   8.348  11.123  0.00  0.00    +0.000 C 
ATOM     28  N   UNL     1      45.727   9.621  11.516  0.00  0.00    +0.000 NA
ATOM     29  H   UNL     1      48.014  11.189  12.856  0.00  0.00    +0.000 HD
BRANCH  25  30
ATOM     30  C   UNL     1      42.188  11.063  11.340  0.00  0.00    +0.000 C 
ATOM     31  N   UNL     1      41.548  11.586  12.438  0.00  0.00    +0.000 N 
ATOM     32  O   UNL     1      41.551  10.787  10.337  0.00  0.00    +0.000 OA
ATOM     33  H   UNL     1      42.089  11.845  13.254  0.00  0.00    +0.000 HD
ATOM     34  H   UNL     1      40.556  11.768  12.398  0.00  0.00    +0.000 HD
ENDBRANCH  25  30
ENDBRANCH  20  21
ENDBRANCH  18  20
ENDBRANCH   5  18
TORSDOF 8
ENDMDL
MODEL 9
REMARK VINA RESULT:    -6.053      1.952      2.812
REMARK INTER + INTRA:         -10.185
REMARK INTER:                  -9.258
REMARK INTRA:                  -0.927
REMARK UNBOUND:                -1.479
REMARK  Name = 
REMARK  11 active torsions:
REMARK  status: ('A' for Active; 'I' for Inactive)
REMARK    1  A    between atoms: C_1  and  O_2
REMARK    2  A    between atoms: O_2  and  C_3
REMARK    3  A    between atoms: C_5  and  C_6
REMARK    4  A    between atoms: C_11  and  C_12
REMARK    5  A    between atoms: C_12  and  O_13
REMARK    6  A    between atoms: C_15  and  C_16
REMARK    7  A    between atoms: C_16  and  C_17
REMARK    8  A    between atoms: C_16  and  C_18
REMARK    9  A    between atoms: C_18  and  N_19
REMARK   10  A    between atoms: C_23  and  C_24
REMARK   11  A    between atoms: C_27  and  C_28
REMARK                            x       y       z     vdW  Elec       q    Type
REMARK                         _______ _______ _______ _____ _____    ______ ____
ROOT
ATOM      1  C   UNL     1      45.681   8.911  11.818  0.00  0.00    +0.000 A 
ATOM      2  C   UNL     1      45.099   7.697  11.439  0.00  0.00    +0.000 A 
ATOM      3  C   UNL     1      45.639   6.463  11.835  0.00  0.00    +0.000 A 
ATOM      4  C   UNL     1      46.863   6.504  12.539  0.00  0.00    +0.000 A 
ATOM      5  C   UNL     1      47.513   7.706  12.872  0.00  0.00    +0.000 A 
ATOM      6  C   UNL     1      46.885   8.909  12.528  0.00  0.00    +0.000 A 
ENDROOT
BRANCH   3   7
ATOM      7  C   UNL     1      44.979   5.153  11.539  0.00  0.00    +0.000 A 
ATOM      8  C   UNL     1      44.257   4.524  12.584  0.00  0.00    +0.000 A 
ATOM      9  C   UNL     1      43.527   3.351  12.394  0.00  0.00    +0.000 A 
ATOM     10  C   UNL     1      43.518   2.743  11.151  0.00  0.00    +0.000 A 
ATOM     11  C   UNL     1      44.246   3.305  10.108  0.00  0.00    +0.000 A 
ATOM     12  C   UNL     1      44.973   4.509  10.267  0.00  0.00    +0.000 A 
BRANCH  12  13
ATOM     13  C   UNL     1      45.757   5.021   9.074  0.00  0.00    +0.000 C 
BRANCH  13  14
ATOM     14  O   UNL     1      45.489   4.291   7.879  0.00  0.00    +0.000 OA
ATOM     15  H   UNL     1      46.343   4.161   7.432  0.00  0.00    +0.000 HD
ENDBRANCH  13  14
ENDBRANCH  12  13
ENDBRANCH   3   7
BRANCH   1  17
ATOM     16  C   UNL     1      43.760  10.309  11.675  0.00  0.00    +0.000 C 
ATOM     17  O   UNL     1      45.169  10.153  11.546  0.00  0.00    +0.000 OA
ENDBRANCH   1  17
BRANCH   5  18
ATOM     18  C   UNL     1      48.853   7.708  13.600  0.00  0.00    +0.000 C 
ATOM     19  C   UNL     1      49.707   8.911  13.171  0.00  0.00    +0.000 C 
BRANCH  18  20
ATOM     20  C   UNL     1      48.671   7.644  15.143  0.00  0.00    +0.000 C 
BRANCH  20  21
ATOM     21  N   UNL     1      48.418   6.263  15.569  0.00  0.00    +0.000 N 
ATOM     22  C   UNL     1      48.585   5.981  16.932  0.00  0.00    +0.000 A 
ATOM     23  C   UNL     1      48.449   4.667  17.372  0.00  0.00    +0.000 A 
ATOM     24  N   UNL     1      48.599   4.270  18.660  0.00  0.00    +0.000 NA
ATOM     25  C   UNL     1      48.914   5.269  19.547  0.00  0.00    +0.000 A 
ATOM     26  C   UNL     1      49.055   6.598  19.138  0.00  0.00    +0.000 A 
ATOM     27  C   UNL     1      49.343   7.757  20.034  0.00  0.00    +0.000 C 
ATOM     28  N   UNL     1      48.902   6.948  17.817  0.00  0.00    +0.000 NA
ATOM     29  H   UNL     1      47.505   5.929  15.268  0.00  0.00    +0.000 HD
BRANCH  25  30
ATOM     30  C   UNL     1      49.091   4.780  20.962  0.00  0.00    +0.000 C 
ATOM     31  N   UNL     1      50.396   4.556  21.333  0.00  0.00    +0.000 N 
ATOM     32  O   UNL     1      48.189   4.588  21.761  0.00  0.00    +0.000 OA
ATOM     33  H   UNL     1      51.141   4.751  20.675  0.00  0.00    +0.000 HD
ATOM     34  H   UNL     1      50.603   4.262  22.276  0.00  0.00    +0.000 HD
ENDBRANCH  25  30
ENDBRANCH  20  21
ENDBRANCH  18  20
ENDBRANCH   5  18
TORSDOF 8
ENDMDL
