MODEL 1
REMARK VINA RESULT:    -6.995      0.000      0.000
REMARK INTER + INTRA:          -9.591
REMARK INTER:                  -8.835
REMARK INTRA:                  -0.756
REMARK UNBOUND:                -0.756
REMARK  Name = 
REMARK  5 active torsions:
REMARK  status: ('A' for Active; 'I' for Inactive)
REMARK    1  A    between atoms: C_2  and  OXT_3
REMARK    2  A    between atoms: C_2  and  CA_4
REMARK    3  A    between atoms: C_8  and  C_9
REMARK    4  A    between atoms: C_9  and  C_10
REMARK    5  A    between atoms: C_14  and  N_15
REMARK                            x       y       z     vdW  Elec       q    Type
REMARK                         _______ _______ _______ _____ _____    ______ ____
ROOT
ATOM      1  C   UNL     1      48.553   7.597  13.194  0.00  0.00    +0.000 C 
ATOM      2  C   UNL     1      49.642   7.282  12.170  0.00  0.00    +0.000 C 
ATOM      3  C   UNL     1      49.592   8.639  12.789  0.00  0.00    +0.000 C 
ENDROOT
BRANCH   1   8
ATOM      4  CA  UNL     1      48.070   5.154  15.960  0.00  0.00    +0.000 A 
ATOM      5  C   UNL     1      48.599   5.758  17.087  0.00  0.00    +0.000 A 
ATOM      6  C   UNL     1      49.207   6.993  16.923  0.00  0.00    +0.000 A 
ATOM      7  C   UNL     1      49.230   7.579  15.656  0.00  0.00    +0.000 A 
ATOM      8  C   UNL     1      48.651   6.923  14.561  0.00  0.00    +0.000 A 
ATOM      9  N   UNL     1      48.096   5.692  14.706  0.00  0.00    +0.000 NA
BRANCH   4  11
ATOM     10  O   UNL     1      46.622   3.503  16.945  0.00  0.00    +0.000 OA
ATOM     11  C   UNL     1      47.384   3.835  16.053  0.00  0.00    +0.000 C 
BRANCH  11  12
ATOM     12  OXT UNL     1      47.729   3.052  15.004  0.00  0.00    +0.000 OA
ATOM     13  HXT UNL     1      48.489   3.482  14.545  0.00  0.00    +0.000 HD
ENDBRANCH  11  12
ENDBRANCH   4  11
ENDBRANCH   1   8
BRANCH   1  14
ATOM     14  C   UNL     1      47.132   7.817  12.672  0.00  0.00    +0.000 A 
ATOM     15  C   UNL     1      46.591   9.109  12.591  0.00  0.00    +0.000 A 
ATOM     16  C   UNL     1      45.348   9.327  12.010  0.00  0.00    +0.000 A 
ATOM     17  C   UNL     1      44.630   8.249  11.493  0.00  0.00    +0.000 A 
ATOM     18  C   UNL     1      45.107   6.933  11.578  0.00  0.00    +0.000 A 
ATOM     19  C   UNL     1      46.343   6.742  12.210  0.00  0.00    +0.000 A 
BRANCH  18  20
ATOM     20  N   UNL     1      44.370   5.893  11.035  0.00  0.00    +0.000 N 
ATOM     21  C   UNL     1      42.977   5.637  11.410  0.00  0.00    +0.000 C 
ATOM     22  C   UNL     1      42.854   4.368  12.252  0.00  0.00    +0.000 C 
ATOM     23  C   UNL     1      43.543   3.184  11.577  0.00  0.00    +0.000 C 
ATOM     24  C   UNL     1      44.996   3.525  11.256  0.00  0.00    +0.000 C 
ATOM     25  C   UNL     1      45.093   4.786  10.398  0.00  0.00    +0.000 C 
ENDBRANCH  18  20
ENDBRANCH   1  14
TORSDOF 5
ENDMDL
MODEL 2
REMARK VINA RESULT:    -6.720      3.047      6.965
REMARK INTER + INTRA:          -9.244
REMARK INTER:                  -8.523
REMARK INTRA:                  -0.722
REMARK UNBOUND:                -0.756
REMARK  Name = 
REMARK  5 active torsions:
REMARK  status: ('A' for Active; 'I' for Inactive)
REMARK    1  A    between atoms: C_2  and  OXT_3
REMARK    2  A    between atoms: C_2  and  CA_4
REMARK    3  A    between atoms: C_8  and  C_9
REMARK    4  A    between atoms: C_9  and  C_10
REMARK    5  A    between atoms: C_14  and  N_15
REMARK                            x       y       z     vdW  Elec       q    Type
REMARK                         _______ _______ _______ _____ _____    ______ ____
ROOT
ATOM      1  C   UNL     1      44.370   5.172  11.504  0.00  0.00    +0.000 C 
ATOM      2  C   UNL     1      42.921   5.373  11.947  0.00  0.00    +0.000 C 
ATOM      3  C   UNL     1      43.573   6.407  11.090  0.00  0.00    +0.000 C 
ENDROOT
BRANCH   1   8
ATOM      4  CA  UNL     1      45.583   3.438   8.442  0.00  0.00    +0.000 A 
ATOM      5  C   UNL     1      44.995   2.186   8.464  0.00  0.00    +0.000 A 
ATOM      6  C   UNL     1      44.222   1.865   9.569  0.00  0.00    +0.000 A 
ATOM      7  C   UNL     1      44.045   2.814  10.578  0.00  0.00    +0.000 A 
ATOM      8  C   UNL     1      44.649   4.075  10.478  0.00  0.00    +0.000 A 
ATOM      9  N   UNL     1      45.446   4.379   9.421  0.00  0.00    +0.000 NA
BRANCH   4  11
ATOM     10  O   UNL     1      46.436   3.321   6.193  0.00  0.00    +0.000 OA
ATOM     11  C   UNL     1      46.414   3.869   7.283  0.00  0.00    +0.000 C 
BRANCH  11  12
ATOM     12  OXT UNL     1      47.148   4.958   7.611  0.00  0.00    +0.000 OA
ATOM     13  HXT UNL     1      47.095   5.594   6.859  0.00  0.00    +0.000 HD
ENDBRANCH  11  12
ENDBRANCH   4  11
ENDBRANCH   1   8
BRANCH   1  14
ATOM     14  C   UNL     1      45.466   5.388  12.546  0.00  0.00    +0.000 A 
ATOM     15  C   UNL     1      45.749   4.402  13.503  0.00  0.00    +0.000 A 
ATOM     16  C   UNL     1      46.820   4.542  14.377  0.00  0.00    +0.000 A 
ATOM     17  C   UNL     1      47.631   5.673  14.299  0.00  0.00    +0.000 A 
ATOM     18  C   UNL     1      47.375   6.706  13.386  0.00  0.00    +0.000 A 
ATOM     19  C   UNL     1      46.261   6.555  12.549  0.00  0.00    +0.000 A 
BRANCH  18  20
ATOM     20  N   UNL     1      48.216   7.805  13.328  0.00  0.00    +0.000 N 
ATOM     21  C   UNL     1      47.712   9.177  13.227  0.00  0.00    +0.000 C 
ATOM     22  C   UNL     1      47.981   9.767  11.844  0.00  0.00    +0.000 C 
ATOM     23  C   UNL     1      49.449   9.614  11.452  0.00  0.00    +0.000 C 
ATOM     24  C   UNL     1      49.878   8.152  11.550  0.00  0.00    +0.000 C 
ATOM     25  C   UNL     1      49.617   7.591  12.947  0.00  0.00    +0.000 C 
ENDBRANCH  18  20
ENDBRANCH   1  14
TORSDOF 5
ENDMDL
MODEL 3
REMARK VINA RESULT:    -6.470      1.843      2.831
REMARK INTER + INTRA:          -8.928
REMARK INTER:                  -8.485
REMARK INTRA:                  -0.443
REMARK UNBOUND:                -0.756
REMARK  Name = 
REMARK  5 active torsions:
REMARK  status: ('A' for Active; 'I' for Inactive)
REMARK    1  A    between atoms: C_2  and  OXT_3
REMARK    2  A    between atoms: C_2  and  CA_4
REMARK    3  A    between atoms: C_8  and  C_9
REMARK    4  A    between atoms: C_9  and  C_10
REMARK    5  A    between atoms: C_14  and  N_15
REMARK                            x       y       z     vdW  Elec       q    Type
REMARK                         _______ _______ _______ _____ _____    ______ ____
ROOT
ATOM      1  C   UNL     1      49.264   6.926  15.580  0.00  0.00    +0.000 C 
ATOM      2  C   UNL     1      50.704   7.414  15.429  0.00  0.00    +0.000 C 
ATOM      3  C   UNL     1      49.679   8.331  16.010  0.00  0.00    +0.000 C 
ENDROOT
BRANCH   1   8
ATOM      4  CA  UNL     1      49.171   3.650  17.344  0.00  0.00    +0.000 A 
ATOM      5  C   UNL     1      48.319   3.828  18.419  0.00  0.00    +0.000 A 
ATOM      6  C   UNL     1      47.805   5.100  18.620  0.00  0.00    +0.000 A 
ATOM      7  C   UNL     1      48.136   6.120  17.726  0.00  0.00    +0.000 A 
ATOM      8  C   UNL     1      48.986   5.862  16.641  0.00  0.00    +0.000 A 
ATOM      9  N   UNL     1      49.531   4.630  16.465  0.00  0.00    +0.000 NA
BRANCH   4  11
ATOM     10  O   UNL     1      49.481   1.627  16.074  0.00  0.00    +0.000 OA
ATOM     11  C   UNL     1      49.753   2.310  17.047  0.00  0.00    +0.000 C 
BRANCH  11  12
ATOM     12  OXT UNL     1      50.629   1.955  18.016  0.00  0.00    +0.000 OA
ATOM     13  HXT UNL     1      51.540   2.098  17.666  0.00  0.00    +0.000 HD
ENDBRANCH  11  12
ENDBRANCH   4  11
ENDBRANCH   1   8
BRANCH   1  14
ATOM     14  C   UNL     1      48.412   6.827  14.314  0.00  0.00    +0.000 A 
ATOM     15  C   UNL     1      48.804   7.479  13.135  0.00  0.00    +0.000 A 
ATOM     16  C   UNL     1      48.099   7.298  11.952  0.00  0.00    +0.000 A 
ATOM     17  C   UNL     1      46.992   6.452  11.931  0.00  0.00    +0.000 A 
ATOM     18  C   UNL     1      46.536   5.801  13.087  0.00  0.00    +0.000 A 
ATOM     19  C   UNL     1      47.242   6.040  14.274  0.00  0.00    +0.000 A 
BRANCH  18  20
ATOM     20  N   UNL     1      45.442   4.953  13.019  0.00  0.00    +0.000 N 
ATOM     21  C   UNL     1      45.552   3.562  12.573  0.00  0.00    +0.000 C 
ATOM     22  C   UNL     1      44.915   3.367  11.198  0.00  0.00    +0.000 C 
ATOM     23  C   UNL     1      43.493   3.921  11.162  0.00  0.00    +0.000 C 
ATOM     24  C   UNL     1      43.477   5.382  11.604  0.00  0.00    +0.000 C 
ATOM     25  C   UNL     1      44.101   5.548  12.989  0.00  0.00    +0.000 C 
ENDBRANCH  18  20
ENDBRANCH   1  14
TORSDOF 5
ENDMDL
MODEL 4
REMARK VINA RESULT:    -6.308      1.913      5.937
REMARK INTER + INTRA:          -8.724
REMARK INTER:                  -7.910
REMARK INTRA:                  -0.814
REMARK UNBOUND:                -0.756
REMARK  Name = 
REMARK  5 active torsions:
REMARK  status: ('A' for Active; 'I' for Inactive)
REMARK    1  A    between atoms: C_2  and  OXT_3
REMARK    2  A    between atoms: C_2  and  CA_4
REMARK    3  A    between atoms: C_8  and  C_9
REMARK    4  A    between atoms: C_9  and  C_10
REMARK    5  A    between atoms: C_14  and  N_15
REMARK                            x       y       z     vdW  Elec       q    Type
REMARK                         _______ _______ _______ _____ _____    ______ ____
ROOT
ATOM      1  C   UNL     1      45.948   7.203  12.011  0.00  0.00    +0.000 C 
ATOM      2  C   UNL     1      44.891   8.166  12.551  0.00  0.00    +0.000 C 
ATOM      3  C   UNL     1      45.772   8.603  11.427  0.00  0.00    +0.000 C 
ENDROOT
BRANCH   1   8
ATOM      4  CA  UNL     1      44.359   3.937  11.199  0.00  0.00    +0.000 A 
ATOM      5  C   UNL     1      44.744   3.647   9.902  0.00  0.00    +0.000 A 
ATOM      6  C   UNL     1      45.501   4.597   9.235  0.00  0.00    +0.000 A 
ATOM      7  C   UNL     1      45.864   5.771   9.898  0.00  0.00    +0.000 A 
ATOM      8  C   UNL     1      45.461   5.989  11.223  0.00  0.00    +0.000 A 
ATOM      9  N   UNL     1      44.679   5.083  11.867  0.00  0.00    +0.000 NA
BRANCH   4  11
ATOM     10  O   UNL     1      42.926   2.030  11.525  0.00  0.00    +0.000 OA
ATOM     11  C   UNL     1      43.559   2.962  11.992  0.00  0.00    +0.000 C 
BRANCH  11  12
ATOM     12  OXT UNL     1      43.631   3.260  13.311  0.00  0.00    +0.000 OA
ATOM     13  HXT UNL     1      43.063   2.616  13.796  0.00  0.00    +0.000 HD
ENDBRANCH  11  12
ENDBRANCH   4  11
ENDBRANCH   1   8
BRANCH   1  14
ATOM     14  C   UNL     1      47.198   6.975  12.861  0.00  0.00    +0.000 A 
ATOM     15  C   UNL     1      48.423   7.558  12.503  0.00  0.00    +0.000 A 
ATOM     16  C   UNL     1      49.533   7.451  13.332  0.00  0.00    +0.000 A 
ATOM     17  C   UNL     1      49.429   6.762  14.539  0.00  0.00    +0.000 A 
ATOM     18  C   UNL     1      48.239   6.131  14.931  0.00  0.00    +0.000 A 
ATOM     19  C   UNL     1      47.151   6.219  14.052  0.00  0.00    +0.000 A 
BRANCH  18  20
ATOM     20  N   UNL     1      48.173   5.472  16.148  0.00  0.00    +0.000 N 
ATOM     21  C   UNL     1      49.182   5.649  17.194  0.00  0.00    +0.000 C 
ATOM     22  C   UNL     1      50.046   4.399  17.349  0.00  0.00    +0.000 C 
ATOM     23  C   UNL     1      49.188   3.147  17.519  0.00  0.00    +0.000 C 
ATOM     24  C   UNL     1      48.192   3.022  16.369  0.00  0.00    +0.000 C 
ATOM     25  C   UNL     1      47.327   4.276  16.246  0.00  0.00    +0.000 C 
ENDBRANCH  18  20
ENDBRANCH   1  14
TORSDOF 5
ENDMDL
MODEL 5
REMARK VINA RESULT:    -6.299      2.755      4.101
REMARK INTER + INTRA:          -8.712
REMARK INTER:                  -8.292
REMARK INTRA:                  -0.420
REMARK UNBOUND:                -0.756
REMARK  Name = 
REMARK  5 active torsions:
REMARK  status: ('A' for Active; 'I' for Inactive)
REMARK    1  A    between atoms: C_2  and  OXT_3
REMARK    2  A    between atoms: C_2  and  CA_4
REMARK    3  A    between atoms: C_8  and  C_9
REMARK    4  A    between atoms: C_9  and  C_10
REMARK    5  A    between atoms: C_14  and  N_15
REMARK                            x       y       z     vdW  Elec       q    Type
REMARK                         _______ _______ _______ _____ _____    ______ ____
ROOT
ATOM      1  C   UNL     1      48.156   4.550  16.724  0.00  0.00    +0.000 C 
ATOM      2  C   UNL     1      47.186   4.705  17.895  0.00  0.00    +0.000 C 
ATOM      3  C   UNL     1      47.205   3.425  17.125  0.00  0.00    +0.000 C 
ENDROOT
BRANCH   1   8
ATOM      4  CA  UNL     1      51.471   3.090  17.580  0.00  0.00    +0.000 A 
ATOM      5  C   UNL     1      52.289   4.167  17.870  0.00  0.00    +0.000 A 
ATOM      6  C   UNL     1      51.754   5.436  17.710  0.00  0.00    +0.000 A 
ATOM      7  C   UNL     1      50.425   5.570  17.301  0.00  0.00    +0.000 A 
ATOM      8  C   UNL     1      49.644   4.434  17.049  0.00  0.00    +0.000 A 
ATOM      9  N   UNL     1      50.176   3.188  17.159  0.00  0.00    +0.000 NA
BRANCH   4  11
ATOM     10  O   UNL     1      52.911   1.361  18.436  0.00  0.00    +0.000 OA
ATOM     11  C   UNL     1      51.963   1.694  17.744  0.00  0.00    +0.000 C 
BRANCH  11  12
ATOM     12  OXT UNL     1      51.208   0.842  17.012  0.00  0.00    +0.000 OA
ATOM     13  HXT UNL     1      51.696  -0.013  16.948  0.00  0.00    +0.000 HD
ENDBRANCH  11  12
ENDBRANCH   4  11
ENDBRANCH   1   8
BRANCH   1  14
ATOM     14  C   UNL     1      47.825   5.289  15.427  0.00  0.00    +0.000 A 
ATOM     15  C   UNL     1      48.484   6.482  15.095  0.00  0.00    +0.000 A 
ATOM     16  C   UNL     1      48.274   7.095  13.866  0.00  0.00    +0.000 A 
ATOM     17  C   UNL     1      47.402   6.515  12.946  0.00  0.00    +0.000 A 
ATOM     18  C   UNL     1      46.691   5.342  13.237  0.00  0.00    +0.000 A 
ATOM     19  C   UNL     1      46.891   4.773  14.503  0.00  0.00    +0.000 A 
BRANCH  18  20
ATOM     20  N   UNL     1      45.849   4.787  12.288  0.00  0.00    +0.000 N 
ATOM     21  C   UNL     1      45.331   5.555  11.153  0.00  0.00    +0.000 C 
ATOM     22  C   UNL     1      43.838   5.837  11.308  0.00  0.00    +0.000 C 
ATOM     23  C   UNL     1      43.058   4.557  11.600  0.00  0.00    +0.000 C 
ATOM     24  C   UNL     1      43.640   3.842  12.816  0.00  0.00    +0.000 C 
ATOM     25  C   UNL     1      45.130   3.554  12.629  0.00  0.00    +0.000 C 
ENDBRANCH  18  20
ENDBRANCH   1  14
TORSDOF 5
ENDMDL
MODEL 6
REMARK VINA RESULT:    -6.161      2.884      5.884
REMARK INTER + INTRA:          -8.538
REMARK INTER:                  -8.121
REMARK INTRA:                  -0.416
REMARK UNBOUND:                -0.756
REMARK  Name = 
REMARK  5 active torsions:
REMARK  status: ('A' for Active; 'I' for Inactive)
REMARK    1  A    between atoms: C_2  and  OXT_3
REMARK    2  A    between atoms: C_2  and  CA_4
REMARK    3  A    between atoms: C_8  and  C_9
REMARK    4  A    between atoms: C_9  and  C_10
REMARK    5  A    between atoms: C_14  and  N_15
REMARK                            x       y       z     vdW  Elec       q    Type
REMARK                         _______ _______ _______ _____ _____    ______ ____
ROOT
ATOM      1  C   UNL     1      46.495   5.182  13.385  0.00  0.00    +0.000 C 
ATOM      2  C   UNL     1      47.391   4.010  13.784  0.00  0.00    +0.000 C 
ATOM      3  C   UNL     1      46.648   4.756  14.843  0.00  0.00    +0.000 C 
ENDROOT
BRANCH   1   8
ATOM      4  CA  UNL     1      44.157   4.052  10.719  0.00  0.00    +0.000 A 
ATOM      5  C   UNL     1      42.900   4.462  11.126  0.00  0.00    +0.000 A 
ATOM      6  C   UNL     1      42.800   5.075  12.365  0.00  0.00    +0.000 A 
ATOM      7  C   UNL     1      43.956   5.278  13.121  0.00  0.00    +0.000 A 
ATOM      8  C   UNL     1      45.203   4.861  12.636  0.00  0.00    +0.000 A 
ATOM      9  N   UNL     1      45.301   4.217  11.443  0.00  0.00    +0.000 NA
BRANCH   4  11
ATOM     10  O   UNL     1      44.744   2.258   9.224  0.00  0.00    +0.000 OA
ATOM     11  C   UNL     1      44.353   3.401   9.393  0.00  0.00    +0.000 C 
BRANCH  11  12
ATOM     12  OXT UNL     1      44.039   4.262   8.397  0.00  0.00    +0.000 OA
ATOM     13  HXT UNL     1      43.119   4.061   8.104  0.00  0.00    +0.000 HD
ENDBRANCH  11  12
ENDBRANCH   4  11
ENDBRANCH   1   8
BRANCH   1  14
ATOM     14  C   UNL     1      47.176   6.491  12.985  0.00  0.00    +0.000 A 
ATOM     15  C   UNL     1      48.530   6.511  12.617  0.00  0.00    +0.000 A 
ATOM     16  C   UNL     1      49.123   7.673  12.140  0.00  0.00    +0.000 A 
ATOM     17  C   UNL     1      48.363   8.835  12.018  0.00  0.00    +0.000 A 
ATOM     18  C   UNL     1      47.015   8.882  12.402  0.00  0.00    +0.000 A 
ATOM     19  C   UNL     1      46.458   7.705  12.921  0.00  0.00    +0.000 A 
BRANCH  18  20
ATOM     20  N   UNL     1      46.290  10.053  12.247  0.00  0.00    +0.000 N 
ATOM     21  C   UNL     1      44.841  10.058  12.035  0.00  0.00    +0.000 C 
ATOM     22  C   UNL     1      44.490  10.467  10.606  0.00  0.00    +0.000 C 
ATOM     23  C   UNL     1      45.179  11.772  10.217  0.00  0.00    +0.000 C 
ATOM     24  C   UNL     1      46.687  11.666  10.433  0.00  0.00    +0.000 C 
ATOM     25  C   UNL     1      47.013  11.275  11.875  0.00  0.00    +0.000 C 
ENDBRANCH  18  20
ENDBRANCH   1  14
TORSDOF 5
ENDMDL
MODEL 7
REMARK VINA RESULT:    -6.130      2.672      6.193
REMARK INTER + INTRA:          -8.499
REMARK INTER:                  -7.940
REMARK INTRA:                  -0.559
REMARK UNBOUND:                -0.756
REMARK  Name = 
REMARK  5 active torsions:
REMARK  status: ('A' for Active; 'I' for Inactive)
REMARK    1  A    between atoms: C_2  and  OXT_3
REMARK    2  A    between atoms: C_2  and  CA_4
REMARK    3  A    between atoms: C_8  and  C_9
REMARK    4  A    between atoms: C_9  and  C_10
REMARK    5  A    between atoms: C_14  and  N_15
REMARK                            x       y       z     vdW  Elec       q    Type
REMARK                         _______ _______ _______ _____ _____    ______ ____
ROOT
ATOM      1  C   UNL     1      46.496   7.119  12.688  0.00  0.00    +0.000 C 
ATOM      2  C   UNL     1      45.572   8.308  12.951  0.00  0.00    +0.000 C 
ATOM      3  C   UNL     1      46.482   8.336  11.767  0.00  0.00    +0.000 C 
ENDROOT
BRANCH   1   8
ATOM      4  CA  UNL     1      45.124   4.459  10.475  0.00  0.00    +0.000 A 
ATOM      5  C   UNL     1      44.486   3.566  11.316  0.00  0.00    +0.000 A 
ATOM      6  C   UNL     1      44.568   3.804  12.679  0.00  0.00    +0.000 A 
ATOM      7  C   UNL     1      45.251   4.934  13.135  0.00  0.00    +0.000 A 
ATOM      8  C   UNL     1      45.853   5.813  12.224  0.00  0.00    +0.000 A 
ATOM      9  N   UNL     1      45.816   5.560  10.889  0.00  0.00    +0.000 NA
BRANCH   4  11
ATOM     10  O   UNL     1      44.419   3.434   8.413  0.00  0.00    +0.000 OA
ATOM     11  C   UNL     1      45.069   4.286   8.996  0.00  0.00    +0.000 C 
BRANCH  11  12
ATOM     12  OXT UNL     1      45.849   5.209   8.386  0.00  0.00    +0.000 OA
ATOM     13  HXT UNL     1      45.332   6.046   8.323  0.00  0.00    +0.000 HD
ENDBRANCH  11  12
ENDBRANCH   4  11
ENDBRANCH   1   8
BRANCH   1  14
ATOM     14  C   UNL     1      47.722   6.961  13.587  0.00  0.00    +0.000 A 
ATOM     15  C   UNL     1      48.909   7.656  13.308  0.00  0.00    +0.000 A 
ATOM     16  C   UNL     1      49.986   7.610  14.184  0.00  0.00    +0.000 A 
ATOM     17  C   UNL     1      49.886   6.869  15.361  0.00  0.00    +0.000 A 
ATOM     18  C   UNL     1      48.738   6.128  15.675  0.00  0.00    +0.000 A 
ATOM     19  C   UNL     1      47.686   6.160  14.749  0.00  0.00    +0.000 A 
BRANCH  18  20
ATOM     20  N   UNL     1      48.673   5.420  16.864  0.00  0.00    +0.000 N 
ATOM     21  C   UNL     1      49.855   4.824  17.489  0.00  0.00    +0.000 C 
ATOM     22  C   UNL     1      49.830   3.300  17.383  0.00  0.00    +0.000 C 
ATOM     23  C   UNL     1      48.507   2.730  17.887  0.00  0.00    +0.000 C 
ATOM     24  C   UNL     1      47.334   3.378  17.157  0.00  0.00    +0.000 C 
ATOM     25  C   UNL     1      47.369   4.900  17.294  0.00  0.00    +0.000 C 
ENDBRANCH  18  20
ENDBRANCH   1  14
TORSDOF 5
ENDMDL
MODEL 8
REMARK VINA RESULT:    -5.752      1.935      5.711
REMARK INTER + INTRA:          -8.021
REMARK INTER:                  -7.561
REMARK INTRA:                  -0.460
REMARK UNBOUND:                -0.756
REMARK  Name = 
REMARK  5 active torsions:
REMARK  status: ('A' for Active; 'I' for Inactive)
REMARK    1  A    between atoms: C_2  and  OXT_3
REMARK    2  A    between atoms: C_2  and  CA_4
REMARK    3  A    between atoms: C_8  and  C_9
REMARK    4  A    between atoms: C_9  and  C_10
REMARK    5  A    between atoms: C_14  and  N_15
REMARK                            x       y       z     vdW  Elec       q    Type
REMARK                         _______ _______ _______ _____ _____    ______ ____
ROOT
ATOM      1  C   UNL     1      48.278   7.600  13.058  0.00  0.00    +0.000 C 
ATOM      2  C   UNL     1      48.953   8.657  12.184  0.00  0.00    +0.000 C 
ATOM      3  C   UNL     1      49.514   7.273  12.224  0.00  0.00    +0.000 C 
ENDROOT
BRANCH   1   8
ATOM      4  CA  UNL     1      45.539   5.286  12.060  0.00  0.00    +0.000 A 
ATOM      5  C   UNL     1      44.519   6.095  11.590  0.00  0.00    +0.000 A 
ATOM      6  C   UNL     1      44.706   7.466  11.670  0.00  0.00    +0.000 A 
ATOM      7  C   UNL     1      45.907   7.963  12.180  0.00  0.00    +0.000 A 
ATOM      8  C   UNL     1      46.910   7.085  12.613  0.00  0.00    +0.000 A 
ATOM      9  N   UNL     1      46.714   5.741  12.582  0.00  0.00    +0.000 NA
BRANCH   4  11
ATOM     10  O   UNL     1      45.680   3.038  12.910  0.00  0.00    +0.000 OA
ATOM     11  C   UNL     1      45.425   3.802  11.994  0.00  0.00    +0.000 C 
BRANCH  11  12
ATOM     12  OXT UNL     1      45.000   3.418  10.768  0.00  0.00    +0.000 OA
ATOM     13  HXT UNL     1      44.127   2.972  10.878  0.00  0.00    +0.000 HD
ENDBRANCH  11  12
ENDBRANCH   4  11
ENDBRANCH   1   8
BRANCH   1  14
ATOM     14  C   UNL     1      48.483   7.694  14.570  0.00  0.00    +0.000 A 
ATOM     15  C   UNL     1      48.440   8.935  15.222  0.00  0.00    +0.000 A 
ATOM     16  C   UNL     1      48.508   9.016  16.608  0.00  0.00    +0.000 A 
ATOM     17  C   UNL     1      48.614   7.848  17.362  0.00  0.00    +0.000 A 
ATOM     18  C   UNL     1      48.696   6.583  16.761  0.00  0.00    +0.000 A 
ATOM     19  C   UNL     1      48.670   6.540  15.361  0.00  0.00    +0.000 A 
BRANCH  18  20
ATOM     20  N   UNL     1      48.782   5.447  17.548  0.00  0.00    +0.000 N 
ATOM     21  C   UNL     1      50.051   4.967  18.101  0.00  0.00    +0.000 C 
ATOM     22  C   UNL     1      50.508   3.684  17.410  0.00  0.00    +0.000 C 
ATOM     23  C   UNL     1      49.400   2.634  17.399  0.00  0.00    +0.000 C 
ATOM     24  C   UNL     1      48.129   3.206  16.774  0.00  0.00    +0.000 C 
ATOM     25  C   UNL     1      47.682   4.477  17.494  0.00  0.00    +0.000 C 
ENDBRANCH  18  20
ENDBRANCH   1  14
TORSDOF 5
ENDMDL
MODEL 9
REMARK VINA RESULT:    -5.585      2.347      4.422
REMARK INTER + INTRA:          -7.810
REMARK INTER:                  -7.325
REMARK INTRA:                  -0.485
REMARK UNBOUND:                -0.756
REMARK  Name = 
REMARK  5 active torsions:
REMARK  status: ('A' for Active; 'I' for Inactive)
REMARK    1  A    between atoms: C_2  and  OXT_3
REMARK    2  A    between atoms: C_2  and  CA_4
REMARK    3  A    between atoms: C_8  and  C_9
REMARK    4  A    between atoms: C_9  and  C_10
REMARK    5  A    between atoms: C_14  and  N_15
REMARK                            x       y       z     vdW  Elec       q    Type
REMARK                         _______ _______ _______ _____ _____    ______ ____
ROOT
ATOM      1  C   UNL     1      48.626   7.958  12.196  0.00  0.00    +0.000 C 
ATOM      2  C   UNL     1      49.724   7.686  11.167  0.00  0.00    +0.000 C 
ATOM      3  C   UNL     1      50.082   7.770  12.614  0.00  0.00    +0.000 C 
ENDROOT
BRANCH   1   8
ATOM      4  CA  UNL     1      46.958   5.005  13.728  0.00  0.00    +0.000 A 
ATOM      5  C   UNL     1      45.937   4.662  12.861  0.00  0.00    +0.000 A 
ATOM      6  C   UNL     1      45.737   5.477  11.757  0.00  0.00    +0.000 A 
ATOM      7  C   UNL     1      46.580   6.571  11.555  0.00  0.00    +0.000 A 
ATOM      8  C   UNL     1      47.614   6.845  12.460  0.00  0.00    +0.000 A 
ATOM      9  N   UNL     1      47.786   6.078  13.569  0.00  0.00    +0.000 NA
BRANCH   4  11
ATOM     10  O   UNL     1      47.593   3.001  14.902  0.00  0.00    +0.000 OA
ATOM     11  C   UNL     1      47.252   4.171  14.928  0.00  0.00    +0.000 C 
BRANCH  11  12
ATOM     12  OXT UNL     1      47.082   4.899  16.057  0.00  0.00    +0.000 OA
ATOM     13  HXT UNL     1      46.711   4.300  16.747  0.00  0.00    +0.000 HD
ENDBRANCH  11  12
ENDBRANCH   4  11
ENDBRANCH   1   8
BRANCH   1  14
ATOM     14  C   UNL     1      48.074   9.381  12.283  0.00  0.00    +0.000 A 
ATOM     15  C   UNL     1      48.890  10.442  12.702  0.00  0.00    +0.000 A 
ATOM     16  C   UNL     1      48.430  11.752  12.671  0.00  0.00    +0.000 A 
ATOM     17  C   UNL     1      47.141  12.020  12.210  0.00  0.00    +0.000 A 
ATOM     18  C   UNL     1      46.270  10.996  11.811  0.00  0.00    +0.000 A 
ATOM     19  C   UNL     1      46.750   9.682  11.897  0.00  0.00    +0.000 A 
BRANCH  18  20
ATOM     20  N   UNL     1      45.004  11.306  11.343  0.00  0.00    +0.000 N 
ATOM     21  C   UNL     1      43.838  10.460  11.607  0.00  0.00    +0.000 C 
ATOM     22  C   UNL     1      43.376   9.740  10.342  0.00  0.00    +0.000 C 
ATOM     23  C   UNL     1      43.184  10.718   9.185  0.00  0.00    +0.000 C 
ATOM     24  C   UNL     1      44.456  11.530   8.956  0.00  0.00    +0.000 C 
ATOM     25  C   UNL     1      44.887  12.256  10.230  0.00  0.00    +0.000 C 
ENDBRANCH  18  20
ENDBRANCH   1  14
TORSDOF 5
ENDMDL
