MODEL 1
REMARK VINA RESULT:    -7.756      0.000      0.000
REMARK INTER + INTRA:         -11.503
REMARK INTER:                 -10.476
REMARK INTRA:                  -1.026
REMARK UNBOUND:                -1.026
REMARK  Name = 
REMARK  6 active torsions:
REMARK  status: ('A' for Active; 'I' for Inactive)
REMARK    1  A    between atoms: C_2  and  C_25
REMARK    2  A    between atoms: N_3  and  C_4
REMARK    3  A    between atoms: C_4  and  C_5
REMARK    4  A    between atoms: C_8  and  C_9
REMARK    5  A    between atoms: C_9  and  N_10
REMARK    6  A    between atoms: C_11  and  C_13
REMARK                            x       y       z     vdW  Elec       q    Type
REMARK                         _______ _______ _______ _____ _____    ______ ____
ROOT
ATOM      1  C   UNL     1      49.972   7.320  15.516  0.00  0.00    +0.000 A 
ATOM      2  C   UNL     1      50.069   8.501  14.783  0.00  0.00    +0.000 A 
ATOM      3  C   UNL     1      49.260   8.671  13.663  0.00  0.00    +0.000 A 
ATOM      4  C   UNL     1      48.354   7.671  13.304  0.00  0.00    +0.000 A 
ATOM      5  C   UNL     1      48.338   6.520  14.084  0.00  0.00    +0.000 A 
ATOM      6  N   UNL     1      49.111   6.327  15.179  0.00  0.00    +0.000 NA
ENDROOT
BRANCH   1   7
ATOM      7  C   UNL     1      50.803   7.129  16.763  0.00  0.00    +0.000 C 
BRANCH   7  10
ATOM      8  O   UNL     1      49.847   5.129  18.515  0.00  0.00    +0.000 OA
ATOM      9  C   UNL     1      50.774   4.862  17.756  0.00  0.00    +0.000 C 
ATOM     10  N   UNL     1      51.306   5.774  16.878  0.00  0.00    +0.000 N 
ATOM     11  H   UNL     1      51.977   5.486  16.177  0.00  0.00    +0.000 HD
BRANCH   9  12
ATOM     12  C   UNL     1      51.310   3.482  17.717  0.00  0.00    +0.000 A 
ATOM     13  C   UNL     1      52.639   3.286  18.114  0.00  0.00    +0.000 A 
ATOM     14  C   UNL     1      53.187   2.004  18.108  0.00  0.00    +0.000 A 
ATOM     15  C   UNL     1      52.386   0.953  17.696  0.00  0.00    +0.000 A 
ATOM     16  N   UNL     1      51.110   1.103  17.284  0.00  0.00    +0.000 NA
ATOM     17  C   UNL     1      50.604   2.364  17.296  0.00  0.00    +0.000 A 
ATOM     18 CL   UNL     1      48.996   2.398  16.674  0.00  0.00    +0.000 Cl
ENDBRANCH   9  12
ENDBRANCH   7  10
ENDBRANCH   1   7
BRANCH   4  19
ATOM     19  C   UNL     1      47.447   7.815  12.118  0.00  0.00    +0.000 C 
BRANCH  19  20
ATOM     20  N   UNL     1      46.786   6.576  11.796  0.00  0.00    +0.000 N 
ATOM     21  C   UNL     1      45.419   6.472  11.848  0.00  0.00    +0.000 C 
ATOM     22  O   UNL     1      44.705   7.437  12.116  0.00  0.00    +0.000 OA
ATOM     23  H   UNL     1      47.349   5.731  11.794  0.00  0.00    +0.000 HD
BRANCH  21  24
ATOM     24  C   UNL     1      44.843   5.166  11.511  0.00  0.00    +0.000 A 
ATOM     25  C   UNL     1      44.084   4.484  12.453  0.00  0.00    +0.000 A 
ATOM     26  S   UNL     1      43.452   3.006  11.885  0.00  0.00    +0.000 S 
ATOM     27  C   UNL     1      44.214   3.198  10.376  0.00  0.00    +0.000 A 
ATOM     28  N   UNL     1      44.099   2.246   9.408  0.00  0.00    +0.000 NA
ATOM     29  C   UNL     1      44.754   2.505   8.327  0.00  0.00    +0.000 A 
ATOM     30  N   UNL     1      45.508   3.631   8.120  0.00  0.00    +0.000 N 
ATOM     31  C   UNL     1      45.628   4.631   9.054  0.00  0.00    +0.000 A 
ATOM     32  O   UNL     1      46.272   5.650   8.825  0.00  0.00    +0.000 OA
ATOM     33  C   UNL     1      44.923   4.383  10.299  0.00  0.00    +0.000 A 
ATOM     34  H   UNL     1      45.991   3.778   7.247  0.00  0.00    +0.000 HD
ENDBRANCH  21  24
ENDBRANCH  19  20
ENDBRANCH   4  19
TORSDOF 6
ENDMDL
MODEL 2
REMARK VINA RESULT:    -7.507      1.451      2.065
REMARK INTER + INTRA:         -11.167
REMARK INTER:                 -10.209
REMARK INTRA:                  -0.957
REMARK UNBOUND:                -1.026
REMARK  Name = 
REMARK  6 active torsions:
REMARK  status: ('A' for Active; 'I' for Inactive)
REMARK    1  A    between atoms: C_2  and  C_25
REMARK    2  A    between atoms: N_3  and  C_4
REMARK    3  A    between atoms: C_4  and  C_5
REMARK    4  A    between atoms: C_8  and  C_9
REMARK    5  A    between atoms: C_9  and  N_10
REMARK    6  A    between atoms: C_11  and  C_13
REMARK                            x       y       z     vdW  Elec       q    Type
REMARK                         _______ _______ _______ _____ _____    ______ ____
ROOT
ATOM      1  C   UNL     1      49.389   7.573  15.963  0.00  0.00    +0.000 A 
ATOM      2  C   UNL     1      48.456   8.595  15.802  0.00  0.00    +0.000 A 
ATOM      3  C   UNL     1      47.996   8.896  14.522  0.00  0.00    +0.000 A 
ATOM      4  C   UNL     1      48.459   8.163  13.428  0.00  0.00    +0.000 A 
ATOM      5  C   UNL     1      49.403   7.173  13.681  0.00  0.00    +0.000 A 
ATOM      6  N   UNL     1      49.867   6.856  14.914  0.00  0.00    +0.000 NA
ENDROOT
BRANCH   1   7
ATOM      7  C   UNL     1      49.869   7.193  17.344  0.00  0.00    +0.000 C 
BRANCH   7  10
ATOM      8  O   UNL     1      48.849   4.747  18.326  0.00  0.00    +0.000 OA
ATOM      9  C   UNL     1      49.976   4.771  17.841  0.00  0.00    +0.000 C 
ATOM     10  N   UNL     1      50.554   5.915  17.348  0.00  0.00    +0.000 N 
ATOM     11  H   UNL     1      51.427   5.874  16.837  0.00  0.00    +0.000 HD
BRANCH   9  12
ATOM     12  C   UNL     1      50.737   3.508  17.706  0.00  0.00    +0.000 A 
ATOM     13  C   UNL     1      52.063   3.492  18.159  0.00  0.00    +0.000 A 
ATOM     14  C   UNL     1      52.818   2.323  18.067  0.00  0.00    +0.000 A 
ATOM     15  C   UNL     1      52.223   1.203  17.514  0.00  0.00    +0.000 A 
ATOM     16  N   UNL     1      50.958   1.183  17.045  0.00  0.00    +0.000 NA
ATOM     17  C   UNL     1      50.247   2.337  17.144  0.00  0.00    +0.000 A 
ATOM     18 CL   UNL     1      48.684   2.170  16.436  0.00  0.00    +0.000 Cl
ENDBRANCH   9  12
ENDBRANCH   7  10
ENDBRANCH   1   7
BRANCH   4  19
ATOM     19  C   UNL     1      47.980   8.435  12.034  0.00  0.00    +0.000 C 
BRANCH  19  20
ATOM     20  N   UNL     1      47.390   7.267  11.432  0.00  0.00    +0.000 N 
ATOM     21  C   UNL     1      46.037   7.047  11.497  0.00  0.00    +0.000 C 
ATOM     22  O   UNL     1      45.273   7.857  12.019  0.00  0.00    +0.000 OA
ATOM     23  H   UNL     1      48.008   6.495  11.202  0.00  0.00    +0.000 HD
BRANCH  21  24
ATOM     24  C   UNL     1      45.536   5.824  10.861  0.00  0.00    +0.000 A 
ATOM     25  C   UNL     1      45.782   5.599   9.513  0.00  0.00    +0.000 A 
ATOM     26  S   UNL     1      45.171   4.111   8.944  0.00  0.00    +0.000 S 
ATOM     27  C   UNL     1      44.509   3.739  10.467  0.00  0.00    +0.000 A 
ATOM     28  N   UNL     1      43.810   2.586  10.662  0.00  0.00    +0.000 NA
ATOM     29  C   UNL     1      43.337   2.447  11.855  0.00  0.00    +0.000 A 
ATOM     30  N   UNL     1      43.504   3.350  12.873  0.00  0.00    +0.000 N 
ATOM     31  C   UNL     1      44.226   4.509  12.731  0.00  0.00    +0.000 A 
ATOM     32  O   UNL     1      44.400   5.277  13.672  0.00  0.00    +0.000 OA
ATOM     33  C   UNL     1      44.769   4.725  11.401  0.00  0.00    +0.000 A 
ATOM     34  H   UNL     1      43.114   3.178  13.787  0.00  0.00    +0.000 HD
ENDBRANCH  21  24
ENDBRANCH  19  20
ENDBRANCH   4  19
TORSDOF 6
ENDMDL
MODEL 3
REMARK VINA RESULT:    -7.219      3.813      8.989
REMARK INTER + INTRA:         -10.778
REMARK INTER:                  -9.935
REMARK INTRA:                  -0.843
REMARK UNBOUND:                -1.026
REMARK  Name = 
REMARK  6 active torsions:
REMARK  status: ('A' for Active; 'I' for Inactive)
REMARK    1  A    between atoms: C_2  and  C_25
REMARK    2  A    between atoms: N_3  and  C_4
REMARK    3  A    between atoms: C_4  and  C_5
REMARK    4  A    between atoms: C_8  and  C_9
REMARK    5  A    between atoms: C_9  and  N_10
REMARK    6  A    between atoms: C_11  and  C_13
REMARK                            x       y       z     vdW  Elec       q    Type
REMARK                         _______ _______ _______ _____ _____    ______ ____
ROOT
ATOM      1  C   UNL     1      45.076   4.661  12.237  0.00  0.00    +0.000 A 
ATOM      2  C   UNL     1      44.672   5.964  11.954  0.00  0.00    +0.000 A 
ATOM      3  C   UNL     1      45.440   7.028  12.421  0.00  0.00    +0.000 A 
ATOM      4  C   UNL     1      46.608   6.775  13.144  0.00  0.00    +0.000 A 
ATOM      5  C   UNL     1      46.924   5.443  13.393  0.00  0.00    +0.000 A 
ATOM      6  N   UNL     1      46.198   4.389  12.951  0.00  0.00    +0.000 NA
ENDROOT
BRANCH   1   7
ATOM      7  C   UNL     1      44.288   3.488  11.702  0.00  0.00    +0.000 C 
BRANCH   7  10
ATOM      8  O   UNL     1      44.264   4.040   8.931  0.00  0.00    +0.000 OA
ATOM      9  C   UNL     1      44.950   3.111   9.348  0.00  0.00    +0.000 C 
ATOM     10  N   UNL     1      45.016   2.768  10.676  0.00  0.00    +0.000 N 
ATOM     11  H   UNL     1      45.690   2.086  11.001  0.00  0.00    +0.000 HD
BRANCH   9  12
ATOM     12  C   UNL     1      45.810   2.360   8.405  0.00  0.00    +0.000 A 
ATOM     13  C   UNL     1      45.756   0.961   8.443  0.00  0.00    +0.000 A 
ATOM     14  C   UNL     1      46.535   0.208   7.566  0.00  0.00    +0.000 A 
ATOM     15  C   UNL     1      47.357   0.882   6.678  0.00  0.00    +0.000 A 
ATOM     16  N   UNL     1      47.455   2.226   6.625  0.00  0.00    +0.000 NA
ATOM     17  C   UNL     1      46.687   2.934   7.494  0.00  0.00    +0.000 A 
ATOM     18 CL   UNL     1      46.983   4.627   7.353  0.00  0.00    +0.000 Cl
ENDBRANCH   9  12
ENDBRANCH   7  10
ENDBRANCH   1   7
BRANCH   4  19
ATOM     19  C   UNL     1      47.480   7.884  13.651  0.00  0.00    +0.000 C 
BRANCH  19  20
ATOM     20  N   UNL     1      47.794   7.723  15.047  0.00  0.00    +0.000 N 
ATOM     21  C   UNL     1      49.011   7.227  15.443  0.00  0.00    +0.000 C 
ATOM     22  O   UNL     1      49.894   6.953  14.633  0.00  0.00    +0.000 OA
ATOM     23  H   UNL     1      47.021   7.728  15.706  0.00  0.00    +0.000 HD
BRANCH  21  24
ATOM     24  C   UNL     1      49.231   7.093  16.888  0.00  0.00    +0.000 A 
ATOM     25  C   UNL     1      49.904   8.092  17.577  0.00  0.00    +0.000 A 
ATOM     26  S   UNL     1      50.034   7.802  19.253  0.00  0.00    +0.000 S 
ATOM     27  C   UNL     1      49.240   6.304  19.109  0.00  0.00    +0.000 A 
ATOM     28  N   UNL     1      49.043   5.510  20.198  0.00  0.00    +0.000 NA
ATOM     29  C   UNL     1      48.459   4.388  19.940  0.00  0.00    +0.000 A 
ATOM     30  N   UNL     1      48.045   3.991  18.694  0.00  0.00    +0.000 N 
ATOM     31  C   UNL     1      48.195   4.770  17.574  0.00  0.00    +0.000 A 
ATOM     32  O   UNL     1      47.773   4.409  16.479  0.00  0.00    +0.000 OA
ATOM     33  C   UNL     1      48.863   6.039  17.805  0.00  0.00    +0.000 A 
ATOM     34  H   UNL     1      47.586   3.102  18.561  0.00  0.00    +0.000 HD
ENDBRANCH  21  24
ENDBRANCH  19  20
ENDBRANCH   4  19
TORSDOF 6
ENDMDL
MODEL 4
REMARK VINA RESULT:    -6.805      2.935      8.888
REMARK INTER + INTRA:         -10.218
REMARK INTER:                  -9.209
REMARK INTRA:                  -1.009
REMARK UNBOUND:                -1.026
REMARK  Name = 
REMARK  6 active torsions:
REMARK  status: ('A' for Active; 'I' for Inactive)
REMARK    1  A    between atoms: C_2  and  C_25
REMARK    2  A    between atoms: N_3  and  C_4
REMARK    3  A    between atoms: C_4  and  C_5
REMARK    4  A    between atoms: C_8  and  C_9
REMARK    5  A    between atoms: C_9  and  N_10
REMARK    6  A    between atoms: C_11  and  C_13
REMARK                            x       y       z     vdW  Elec       q    Type
REMARK                         _______ _______ _______ _____ _____    ______ ____
ROOT
ATOM      1  C   UNL     1      47.849   7.867  13.489  0.00  0.00    +0.000 A 
ATOM      2  C   UNL     1      48.115   6.614  14.036  0.00  0.00    +0.000 A 
ATOM      3  C   UNL     1      48.586   6.531  15.345  0.00  0.00    +0.000 A 
ATOM      4  C   UNL     1      48.764   7.697  16.091  0.00  0.00    +0.000 A 
ATOM      5  C   UNL     1      48.490   8.904  15.459  0.00  0.00    +0.000 A 
ATOM      6  N   UNL     1      48.030   9.016  14.190  0.00  0.00    +0.000 NA
ENDROOT
BRANCH   1   7
ATOM      7  C   UNL     1      47.293   7.983  12.090  0.00  0.00    +0.000 C 
BRANCH   7  10
ATOM      8  O   UNL     1      44.615   7.420  11.386  0.00  0.00    +0.000 OA
ATOM      9  C   UNL     1      45.458   6.535  11.277  0.00  0.00    +0.000 C 
ATOM     10  N   UNL     1      46.779   6.718  11.603  0.00  0.00    +0.000 N 
ATOM     11  H   UNL     1      47.470   6.013  11.377  0.00  0.00    +0.000 HD
BRANCH   9  12
ATOM     12  C   UNL     1      45.071   5.226  10.703  0.00  0.00    +0.000 A 
ATOM     13  C   UNL     1      45.480   4.939   9.394  0.00  0.00    +0.000 A 
ATOM     14  C   UNL     1      45.153   3.715   8.813  0.00  0.00    +0.000 A 
ATOM     15  C   UNL     1      44.415   2.813   9.560  0.00  0.00    +0.000 A 
ATOM     16  N   UNL     1      43.983   3.059  10.814  0.00  0.00    +0.000 NA
ATOM     17  C   UNL     1      44.312   4.262  11.354  0.00  0.00    +0.000 A 
ATOM     18 CL   UNL     1      43.624   4.452  12.923  0.00  0.00    +0.000 Cl
ENDBRANCH   9  12
ENDBRANCH   7  10
ENDBRANCH   1   7
BRANCH   4  19
ATOM     19  C   UNL     1      49.249   7.660  17.510  0.00  0.00    +0.000 C 
BRANCH  19  20
ATOM     20  N   UNL     1      50.255   6.648  17.706  0.00  0.00    +0.000 N 
ATOM     21  C   UNL     1      50.114   5.693  18.681  0.00  0.00    +0.000 C 
ATOM     22  O   UNL     1      49.107   5.629  19.385  0.00  0.00    +0.000 OA
ATOM     23  H   UNL     1      51.172   6.814  17.302  0.00  0.00    +0.000 HD
BRANCH  21  24
ATOM     24  C   UNL     1      51.198   4.712  18.807  0.00  0.00    +0.000 A 
ATOM     25  C   UNL     1      52.309   5.012  19.583  0.00  0.00    +0.000 A 
ATOM     26  S   UNL     1      53.452   3.748  19.660  0.00  0.00    +0.000 S 
ATOM     27  C   UNL     1      52.527   2.775  18.614  0.00  0.00    +0.000 A 
ATOM     28  N   UNL     1      52.963   1.540  18.239  0.00  0.00    +0.000 NA
ATOM     29  C   UNL     1      52.178   0.926  17.418  0.00  0.00    +0.000 A 
ATOM     30  N   UNL     1      50.994   1.429  16.944  0.00  0.00    +0.000 N 
ATOM     31  C   UNL     1      50.501   2.654  17.318  0.00  0.00    +0.000 A 
ATOM     32  O   UNL     1      49.415   3.060  16.914  0.00  0.00    +0.000 OA
ATOM     33  C   UNL     1      51.353   3.397  18.230  0.00  0.00    +0.000 A 
ATOM     34  H   UNL     1      50.422   0.893  16.309  0.00  0.00    +0.000 HD
ENDBRANCH  21  24
ENDBRANCH  19  20
ENDBRANCH   4  19
TORSDOF 6
ENDMDL
MODEL 5
REMARK VINA RESULT:    -6.736      5.528      8.545
REMARK INTER + INTRA:         -10.125
REMARK INTER:                  -9.067
REMARK INTRA:                  -1.059
REMARK UNBOUND:                -1.026
REMARK  Name = 
REMARK  6 active torsions:
REMARK  status: ('A' for Active; 'I' for Inactive)
REMARK    1  A    between atoms: C_2  and  C_25
REMARK    2  A    between atoms: N_3  and  C_4
REMARK    3  A    between atoms: C_4  and  C_5
REMARK    4  A    between atoms: C_8  and  C_9
REMARK    5  A    between atoms: C_9  and  N_10
REMARK    6  A    between atoms: C_11  and  C_13
REMARK                            x       y       z     vdW  Elec       q    Type
REMARK                         _______ _______ _______ _____ _____    ______ ____
ROOT
ATOM      1  C   UNL     1      47.731   7.301  12.803  0.00  0.00    +0.000 A 
ATOM      2  C   UNL     1      47.683   8.552  12.191  0.00  0.00    +0.000 A 
ATOM      3  C   UNL     1      48.867   9.135  11.748  0.00  0.00    +0.000 A 
ATOM      4  C   UNL     1      50.076   8.455  11.906  0.00  0.00    +0.000 A 
ATOM      5  C   UNL     1      50.031   7.220  12.543  0.00  0.00    +0.000 A 
ATOM      6  N   UNL     1      48.895   6.627  12.982  0.00  0.00    +0.000 NA
ENDROOT
BRANCH   1   7
ATOM      7  C   UNL     1      46.456   6.624  13.250  0.00  0.00    +0.000 C 
BRANCH   7  10
ATOM      8  O   UNL     1      44.653   6.823  11.083  0.00  0.00    +0.000 OA
ATOM      9  C   UNL     1      45.186   5.743  11.317  0.00  0.00    +0.000 C 
ATOM     10  N   UNL     1      46.068   5.553  12.352  0.00  0.00    +0.000 N 
ATOM     11  H   UNL     1      46.589   4.689  12.436  0.00  0.00    +0.000 HD
BRANCH   9  12
ATOM     12  C   UNL     1      44.938   4.597  10.412  0.00  0.00    +0.000 A 
ATOM     13  C   UNL     1      45.435   4.677   9.104  0.00  0.00    +0.000 A 
ATOM     14  C   UNL     1      45.241   3.619   8.218  0.00  0.00    +0.000 A 
ATOM     15  C   UNL     1      44.544   2.510   8.666  0.00  0.00    +0.000 A 
ATOM     16  N   UNL     1      44.030   2.404   9.909  0.00  0.00    +0.000 NA
ATOM     17  C   UNL     1      44.230   3.452  10.750  0.00  0.00    +0.000 A 
ATOM     18 CL   UNL     1      43.451   3.194  12.266  0.00  0.00    +0.000 Cl
ENDBRANCH   9  12
ENDBRANCH   7  10
ENDBRANCH   1   7
BRANCH   4  19
ATOM     19  C   UNL     1      51.375   9.031  11.428  0.00  0.00    +0.000 C 
BRANCH  19  20
ATOM     20  N   UNL     1      51.767   8.486  10.154  0.00  0.00    +0.000 N 
ATOM     21  C   UNL     1      52.856   8.980   9.481  0.00  0.00    +0.000 C 
ATOM     22  O   UNL     1      53.567   9.862   9.957  0.00  0.00    +0.000 OA
ATOM     23  H   UNL     1      51.083   7.929   9.651  0.00  0.00    +0.000 HD
BRANCH  21  24
ATOM     24  C   UNL     1      53.168   8.362   8.186  0.00  0.00    +0.000 A 
ATOM     25  C   UNL     1      53.228   9.150   7.045  0.00  0.00    +0.000 A 
ATOM     26  S   UNL     1      53.646   8.285   5.636  0.00  0.00    +0.000 S 
ATOM     27  C   UNL     1      53.708   6.816   6.491  0.00  0.00    +0.000 A 
ATOM     28  N   UNL     1      53.994   5.647   5.853  0.00  0.00    +0.000 NA
ATOM     29  C   UNL     1      53.976   4.606   6.617  0.00  0.00    +0.000 A 
ATOM     30  N   UNL     1      53.707   4.627   7.961  0.00  0.00    +0.000 N 
ATOM     31  C   UNL     1      53.445   5.784   8.652  0.00  0.00    +0.000 A 
ATOM     32  O   UNL     1      53.253   5.779   9.864  0.00  0.00    +0.000 OA
ATOM     33  C   UNL     1      53.436   6.986   7.837  0.00  0.00    +0.000 A 
ATOM     34  H   UNL     1      53.717   3.777   8.504  0.00  0.00    +0.000 HD
ENDBRANCH  21  24
ENDBRANCH  19  20
ENDBRANCH   4  19
TORSDOF 6
ENDMDL
MODEL 6
REMARK VINA RESULT:    -6.712      2.172      2.972
REMARK INTER + INTRA:         -10.092
REMARK INTER:                  -9.030
REMARK INTRA:                  -1.062
REMARK UNBOUND:                -1.026
REMARK  Name = 
REMARK  6 active torsions:
REMARK  status: ('A' for Active; 'I' for Inactive)
REMARK    1  A    between atoms: C_2  and  C_25
REMARK    2  A    between atoms: N_3  and  C_4
REMARK    3  A    between atoms: C_4  and  C_5
REMARK    4  A    between atoms: C_8  and  C_9
REMARK    5  A    between atoms: C_9  and  N_10
REMARK    6  A    between atoms: C_11  and  C_13
REMARK                            x       y       z     vdW  Elec       q    Type
REMARK                         _______ _______ _______ _____ _____    ______ ____
ROOT
ATOM      1  C   UNL     1      49.140   5.814  17.403  0.00  0.00    +0.000 A 
ATOM      2  C   UNL     1      48.366   5.013  16.566  0.00  0.00    +0.000 A 
ATOM      3  C   UNL     1      48.028   5.483  15.300  0.00  0.00    +0.000 A 
ATOM      4  C   UNL     1      48.482   6.735  14.882  0.00  0.00    +0.000 A 
ATOM      5  C   UNL     1      49.234   7.473  15.790  0.00  0.00    +0.000 A 
ATOM      6  N   UNL     1      49.580   7.041  17.026  0.00  0.00    +0.000 NA
ENDROOT
BRANCH   1   7
ATOM      7  C   UNL     1      49.561   5.309  18.763  0.00  0.00    +0.000 C 
BRANCH   7  10
ATOM      8  O   UNL     1      52.284   5.163  18.018  0.00  0.00    +0.000 OA
ATOM      9  C   UNL     1      51.688   4.129  18.304  0.00  0.00    +0.000 C 
ATOM     10  N   UNL     1      50.365   4.105  18.670  0.00  0.00    +0.000 N 
ATOM     11  H   UNL     1      49.941   3.257  19.026  0.00  0.00    +0.000 HD
BRANCH   9  12
ATOM     12  C   UNL     1      52.428   2.847  18.335  0.00  0.00    +0.000 A 
ATOM     13  C   UNL     1      51.974   1.810  17.509  0.00  0.00    +0.000 A 
ATOM     14  C   UNL     1      52.645   0.588  17.491  0.00  0.00    +0.000 A 
ATOM     15  C   UNL     1      53.750   0.436  18.309  0.00  0.00    +0.000 A 
ATOM     16  N   UNL     1      54.206   1.401  19.135  0.00  0.00    +0.000 NA
ATOM     17  C   UNL     1      53.530   2.580  19.136  0.00  0.00    +0.000 A 
ATOM     18 CL   UNL     1      54.187   3.676  20.293  0.00  0.00    +0.000 Cl
ENDBRANCH   9  12
ENDBRANCH   7  10
ENDBRANCH   1   7
BRANCH   4  19
ATOM     19  C   UNL     1      48.162   7.279  13.521  0.00  0.00    +0.000 C 
BRANCH  19  20
ATOM     20  N   UNL     1      47.453   6.319  12.715  0.00  0.00    +0.000 N 
ATOM     21  C   UNL     1      46.451   6.715  11.866  0.00  0.00    +0.000 C 
ATOM     22  O   UNL     1      46.156   7.900  11.719  0.00  0.00    +0.000 OA
ATOM     23  H   UNL     1      47.522   5.341  12.979  0.00  0.00    +0.000 HD
BRANCH  21  24
ATOM     24  C   UNL     1      45.783   5.661  11.094  0.00  0.00    +0.000 A 
ATOM     25  C   UNL     1      45.900   5.642   9.711  0.00  0.00    +0.000 A 
ATOM     26  S   UNL     1      45.104   4.326   8.973  0.00  0.00    +0.000 S 
ATOM     27  C   UNL     1      44.528   3.764  10.473  0.00  0.00    +0.000 A 
ATOM     28  N   UNL     1      43.736   2.659  10.548  0.00  0.00    +0.000 NA
ATOM     29  C   UNL     1      43.346   2.365  11.743  0.00  0.00    +0.000 A 
ATOM     30  N   UNL     1      43.680   3.070  12.871  0.00  0.00    +0.000 N 
ATOM     31  C   UNL     1      44.500   4.171  12.847  0.00  0.00    +0.000 A 
ATOM     32  O   UNL     1      44.820   4.755  13.877  0.00  0.00    +0.000 OA
ATOM     33  C   UNL     1      44.956   4.556  11.523  0.00  0.00    +0.000 A 
ATOM     34  H   UNL     1      43.347   2.782  13.778  0.00  0.00    +0.000 HD
ENDBRANCH  21  24
ENDBRANCH  19  20
ENDBRANCH   4  19
TORSDOF 6
ENDMDL
MODEL 7
REMARK VINA RESULT:    -6.668      4.347      9.092
REMARK INTER + INTRA:         -10.034
REMARK INTER:                  -9.235
REMARK INTRA:                  -0.799
REMARK UNBOUND:                -1.026
REMARK  Name = 
REMARK  6 active torsions:
REMARK  status: ('A' for Active; 'I' for Inactive)
REMARK    1  A    between atoms: C_2  and  C_25
REMARK    2  A    between atoms: N_3  and  C_4
REMARK    3  A    between atoms: C_4  and  C_5
REMARK    4  A    between atoms: C_8  and  C_9
REMARK    5  A    between atoms: C_9  and  N_10
REMARK    6  A    between atoms: C_11  and  C_13
REMARK                            x       y       z     vdW  Elec       q    Type
REMARK                         _______ _______ _______ _____ _____    ______ ____
ROOT
ATOM      1  C   UNL     1      45.450   4.801  11.656  0.00  0.00    +0.000 A 
ATOM      2  C   UNL     1      46.058   6.051  11.563  0.00  0.00    +0.000 A 
ATOM      3  C   UNL     1      46.864   6.492  12.610  0.00  0.00    +0.000 A 
ATOM      4  C   UNL     1      47.065   5.672  13.722  0.00  0.00    +0.000 A 
ATOM      5  C   UNL     1      46.405   4.448  13.736  0.00  0.00    +0.000 A 
ATOM      6  N   UNL     1      45.618   3.992  12.733  0.00  0.00    +0.000 NA
ENDROOT
BRANCH   1   7
ATOM      7  C   UNL     1      44.611   4.277  10.514  0.00  0.00    +0.000 C 
BRANCH   7  10
ATOM      8  O   UNL     1      44.811   1.776   9.214  0.00  0.00    +0.000 OA
ATOM      9  C   UNL     1      45.444   2.729   8.772  0.00  0.00    +0.000 C 
ATOM     10  N   UNL     1      45.412   3.978   9.344  0.00  0.00    +0.000 N 
ATOM     11  H   UNL     1      45.838   4.770   8.880  0.00  0.00    +0.000 HD
BRANCH   9  12
ATOM     12  C   UNL     1      46.227   2.569   7.525  0.00  0.00    +0.000 A 
ATOM     13  C   UNL     1      46.363   3.686   6.690  0.00  0.00    +0.000 A 
ATOM     14  C   UNL     1      47.102   3.590   5.512  0.00  0.00    +0.000 A 
ATOM     15  C   UNL     1      47.679   2.371   5.199  0.00  0.00    +0.000 A 
ATOM     16  N   UNL     1      47.553   1.267   5.964  0.00  0.00    +0.000 NA
ATOM     17  C   UNL     1      46.823   1.388   7.104  0.00  0.00    +0.000 A 
ATOM     18 CL   UNL     1      46.694  -0.122   7.926  0.00  0.00    +0.000 Cl
ENDBRANCH   9  12
ENDBRANCH   7  10
ENDBRANCH   1   7
BRANCH   4  19
ATOM     19  C   UNL     1      47.939   6.092  14.866  0.00  0.00    +0.000 C 
BRANCH  19  20
ATOM     20  N   UNL     1      48.853   7.138  14.486  0.00  0.00    +0.000 N 
ATOM     21  C   UNL     1      50.103   7.220  15.045  0.00  0.00    +0.000 C 
ATOM     22  O   UNL     1      50.512   6.381  15.845  0.00  0.00    +0.000 OA
ATOM     23  H   UNL     1      48.467   7.950  14.012  0.00  0.00    +0.000 HD
BRANCH  21  24
ATOM     24  C   UNL     1      50.956   8.328  14.598  0.00  0.00    +0.000 A 
ATOM     25  C   UNL     1      51.594   9.127  15.536  0.00  0.00    +0.000 A 
ATOM     26  S   UNL     1      52.581  10.337  14.849  0.00  0.00    +0.000 S 
ATOM     27  C   UNL     1      52.147   9.870  13.271  0.00  0.00    +0.000 A 
ATOM     28  N   UNL     1      52.634  10.535  12.187  0.00  0.00    +0.000 NA
ATOM     29  C   UNL     1      52.197  10.096  11.054  0.00  0.00    +0.000 A 
ATOM     30  N   UNL     1      51.325   9.049  10.905  0.00  0.00    +0.000 N 
ATOM     31  C   UNL     1      50.833   8.331  11.966  0.00  0.00    +0.000 A 
ATOM     32  O   UNL     1      50.090   7.368  11.801  0.00  0.00    +0.000 OA
ATOM     33  C   UNL     1      51.279   8.793  13.268  0.00  0.00    +0.000 A 
ATOM     34  H   UNL     1      51.028   8.750   9.988  0.00  0.00    +0.000 HD
ENDBRANCH  21  24
ENDBRANCH  19  20
ENDBRANCH   4  19
TORSDOF 6
ENDMDL
MODEL 8
REMARK VINA RESULT:    -6.598      2.505      2.932
REMARK INTER + INTRA:          -9.938
REMARK INTER:                  -8.906
REMARK INTRA:                  -1.033
REMARK UNBOUND:                -1.026
REMARK  Name = 
REMARK  6 active torsions:
REMARK  status: ('A' for Active; 'I' for Inactive)
REMARK    1  A    between atoms: C_2  and  C_25
REMARK    2  A    between atoms: N_3  and  C_4
REMARK    3  A    between atoms: C_4  and  C_5
REMARK    4  A    between atoms: C_8  and  C_9
REMARK    5  A    between atoms: C_9  and  N_10
REMARK    6  A    between atoms: C_11  and  C_13
REMARK                            x       y       z     vdW  Elec       q    Type
REMARK                         _______ _______ _______ _____ _____    ______ ____
ROOT
ATOM      1  C   UNL     1      50.369   7.326  15.160  0.00  0.00    +0.000 A 
ATOM      2  C   UNL     1      50.607   8.305  14.198  0.00  0.00    +0.000 A 
ATOM      3  C   UNL     1      49.704   8.458  13.148  0.00  0.00    +0.000 A 
ATOM      4  C   UNL     1      48.570   7.647  13.086  0.00  0.00    +0.000 A 
ATOM      5  C   UNL     1      48.422   6.685  14.080  0.00  0.00    +0.000 A 
ATOM      6  N   UNL     1      49.281   6.515  15.114  0.00  0.00    +0.000 NA
ENDROOT
BRANCH   1   7
ATOM      7  C   UNL     1      51.305   7.171  16.335  0.00  0.00    +0.000 C 
BRANCH   7  10
ATOM      8  O   UNL     1      50.367   8.468  18.664  0.00  0.00    +0.000 OA
ATOM      9  C   UNL     1      50.223   7.254  18.560  0.00  0.00    +0.000 C 
ATOM     10  N   UNL     1      50.655   6.541  17.468  0.00  0.00    +0.000 N 
ATOM     11  H   UNL     1      50.404   5.567  17.354  0.00  0.00    +0.000 HD
BRANCH   9  12
ATOM     12  C   UNL     1      49.490   6.513  19.612  0.00  0.00    +0.000 A 
ATOM     13  C   UNL     1      48.132   6.806  19.792  0.00  0.00    +0.000 A 
ATOM     14  C   UNL     1      47.394   6.127  20.761  0.00  0.00    +0.000 A 
ATOM     15  C   UNL     1      48.043   5.176  21.529  0.00  0.00    +0.000 A 
ATOM     16  N   UNL     1      49.353   4.881  21.402  0.00  0.00    +0.000 NA
ATOM     17  C   UNL     1      50.049   5.561  20.454  0.00  0.00    +0.000 A 
ATOM     18 CL   UNL     1      51.717   5.126  20.470  0.00  0.00    +0.000 Cl
ENDBRANCH   9  12
ENDBRANCH   7  10
ENDBRANCH   1   7
BRANCH   4  19
ATOM     19  C   UNL     1      47.558   7.785  11.988  0.00  0.00    +0.000 C 
BRANCH  19  20
ATOM     20  N   UNL     1      46.876   6.544  11.729  0.00  0.00    +0.000 N 
ATOM     21  C   UNL     1      45.512   6.451  11.848  0.00  0.00    +0.000 C 
ATOM     22  O   UNL     1      44.817   7.426  12.125  0.00  0.00    +0.000 OA
ATOM     23  H   UNL     1      47.433   5.694  11.722  0.00  0.00    +0.000 HD
BRANCH  21  24
ATOM     24  C   UNL     1      44.913   5.140  11.571  0.00  0.00    +0.000 A 
ATOM     25  C   UNL     1      44.201   4.485  12.566  0.00  0.00    +0.000 A 
ATOM     26  S   UNL     1      43.533   2.997  12.065  0.00  0.00    +0.000 S 
ATOM     27  C   UNL     1      44.218   3.150  10.515  0.00  0.00    +0.000 A 
ATOM     28  N   UNL     1      44.048   2.177   9.577  0.00  0.00    +0.000 NA
ATOM     29  C   UNL     1      44.648   2.408   8.457  0.00  0.00    +0.000 A 
ATOM     30  N   UNL     1      45.396   3.525   8.186  0.00  0.00    +0.000 N 
ATOM     31  C   UNL     1      45.568   4.545   9.090  0.00  0.00    +0.000 A 
ATOM     32  O   UNL     1      46.204   5.555   8.804  0.00  0.00    +0.000 OA
ATOM     33  C   UNL     1      44.927   4.329  10.374  0.00  0.00    +0.000 A 
ATOM     34  H   UNL     1      45.833   3.649   7.286  0.00  0.00    +0.000 HD
ENDBRANCH  21  24
ENDBRANCH  19  20
ENDBRANCH   4  19
TORSDOF 6
ENDMDL
MODEL 9
REMARK VINA RESULT:    -6.331      3.374      5.466
REMARK INTER + INTRA:          -9.578
REMARK INTER:                  -8.567
REMARK INTRA:                  -1.011
REMARK UNBOUND:                -1.026
REMARK  Name = 
REMARK  6 active torsions:
REMARK  status: ('A' for Active; 'I' for Inactive)
REMARK    1  A    between atoms: C_2  and  C_25
REMARK    2  A    between atoms: N_3  and  C_4
REMARK    3  A    between atoms: C_4  and  C_5
REMARK    4  A    between atoms: C_8  and  C_9
REMARK    5  A    between atoms: C_9  and  N_10
REMARK    6  A    between atoms: C_11  and  C_13
REMARK                            x       y       z     vdW  Elec       q    Type
REMARK                         _______ _______ _______ _____ _____    ______ ____
ROOT
ATOM      1  C   UNL     1      51.388   3.823  18.006  0.00  0.00    +0.000 A 
ATOM      2  C   UNL     1      51.021   2.609  17.429  0.00  0.00    +0.000 A 
ATOM      3  C   UNL     1      49.693   2.408  17.061  0.00  0.00    +0.000 A 
ATOM      4  C   UNL     1      48.758   3.426  17.255  0.00  0.00    +0.000 A 
ATOM      5  C   UNL     1      49.210   4.597  17.853  0.00  0.00    +0.000 A 
ATOM      6  N   UNL     1      50.494   4.823  18.220  0.00  0.00    +0.000 NA
ENDROOT
BRANCH   1   7
ATOM      7  C   UNL     1      52.830   4.087  18.372  0.00  0.00    +0.000 C 
BRANCH   7  10
ATOM      8  O   UNL     1      54.291   5.385  16.331  0.00  0.00    +0.000 OA
ATOM      9  C   UNL     1      53.867   6.047  17.274  0.00  0.00    +0.000 C 
ATOM     10  N   UNL     1      53.155   5.498  18.312  0.00  0.00    +0.000 N 
ATOM     11  H   UNL     1      52.709   6.089  19.002  0.00  0.00    +0.000 HD
BRANCH   9  12
ATOM     12  C   UNL     1      54.058   7.516  17.277  0.00  0.00    +0.000 A 
ATOM     13  C   UNL     1      54.815   8.074  18.315  0.00  0.00    +0.000 A 
ATOM     14  C   UNL     1      55.035   9.450  18.355  0.00  0.00    +0.000 A 
ATOM     15  C   UNL     1      54.482  10.231  17.355  0.00  0.00    +0.000 A 
ATOM     16  N   UNL     1      53.728   9.735  16.352  0.00  0.00    +0.000 NA
ATOM     17  C   UNL     1      53.526   8.391  16.340  0.00  0.00    +0.000 A 
ATOM     18 CL   UNL     1      52.486   7.927  15.046  0.00  0.00    +0.000 Cl
ENDBRANCH   9  12
ENDBRANCH   7  10
ENDBRANCH   1   7
BRANCH   4  19
ATOM     19  C   UNL     1      47.321   3.266  16.857  0.00  0.00    +0.000 C 
BRANCH  19  20
ATOM     20  N   UNL     1      46.900   4.299  15.946  0.00  0.00    +0.000 N 
ATOM     21  C   UNL     1      46.945   4.103  14.588  0.00  0.00    +0.000 C 
ATOM     22  O   UNL     1      47.291   3.029  14.099  0.00  0.00    +0.000 OA
ATOM     23  H   UNL     1      46.828   5.245  16.309  0.00  0.00    +0.000 HD
BRANCH  21  24
ATOM     24  C   UNL     1      46.502   5.219  13.745  0.00  0.00    +0.000 A 
ATOM     25  C   UNL     1      47.314   6.336  13.600  0.00  0.00    +0.000 A 
ATOM     26  S   UNL     1      46.673   7.518  12.552  0.00  0.00    +0.000 S 
ATOM     27  C   UNL     1      45.261   6.603  12.296  0.00  0.00    +0.000 A 
ATOM     28  N   UNL     1      44.260   7.070  11.498  0.00  0.00    +0.000 NA
ATOM     29  C   UNL     1      43.236   6.289  11.419  0.00  0.00    +0.000 A 
ATOM     30  N   UNL     1      43.122   5.081  12.057  0.00  0.00    +0.000 N 
ATOM     31  C   UNL     1      44.116   4.557  12.845  0.00  0.00    +0.000 A 
ATOM     32  O   UNL     1      44.007   3.452  13.367  0.00  0.00    +0.000 OA
ATOM     33  C   UNL     1      45.288   5.403  12.983  0.00  0.00    +0.000 A 
ATOM     34  H   UNL     1      42.295   4.514  11.947  0.00  0.00    +0.000 HD
ENDBRANCH  21  24
ENDBRANCH  19  20
ENDBRANCH   4  19
TORSDOF 6
ENDMDL
