MODEL 1
REMARK VINA RESULT:    -8.313      0.000      0.000
REMARK INTER + INTRA:         -11.124
REMARK INTER:                 -10.257
REMARK INTRA:                  -0.867
REMARK UNBOUND:                -0.867
REMARK  Name = 
REMARK  4 active torsions:
REMARK  status: ('A' for Active; 'I' for Inactive)
REMARK    1  A    between atoms: C_4  and  C_5
REMARK    2  A    between atoms: C_5  and  C_6
REMARK    3  A    between atoms: C_6  and  C_7
REMARK    4  A    between atoms: C_11  and  C_12
REMARK                            x       y       z     vdW  Elec       q    Type
REMARK                         _______ _______ _______ _____ _____    ______ ____
ROOT
ATOM      1  C   UNL     1      45.411   4.816  11.833  0.00  0.00    +0.000 A 
ATOM      2  C   UNL     1      45.877   6.089  11.461  0.00  0.00    +0.000 A 
ATOM      3  C   UNL     1      46.872   6.747  12.184  0.00  0.00    +0.000 A 
ATOM      4  C   UNL     1      47.404   6.158  13.329  0.00  0.00    +0.000 A 
ATOM      5  C   UNL     1      46.979   4.889  13.747  0.00  0.00    +0.000 A 
ATOM      6  C   UNL     1      46.034   4.217  12.946  0.00  0.00    +0.000 A 
ENDROOT
BRANCH   5   7
ATOM      7  C   UNL     1      47.411   4.305  15.031  0.00  0.00    +0.000 A 
ATOM      8  C   UNL     1      47.370   5.034  16.222  0.00  0.00    +0.000 A 
ATOM      9  C   UNL     1      47.719   4.413  17.419  0.00  0.00    +0.000 A 
ATOM     10  C   UNL     1      48.095   3.078  17.403  0.00  0.00    +0.000 A 
ATOM     11  C   UNL     1      48.101   2.417  16.187  0.00  0.00    +0.000 A 
ATOM     12  N   UNL     1      47.767   2.995  15.011  0.00  0.00    +0.000 NA
ENDBRANCH   5   7
BRANCH   1  13
ATOM     13  C   UNL     1      44.159   4.205  11.176  0.00  0.00    +0.000 C 
ATOM     14  C   UNL     1      43.305   3.145  11.866  0.00  0.00    +0.000 C 
ATOM     15  C   UNL     1      42.888   4.577  11.957  0.00  0.00    +0.000 C 
BRANCH  13  16
ATOM     16  C   UNL     1      44.054   4.260   9.653  0.00  0.00    +0.000 C 
BRANCH  16  20
ATOM     17  C   UNL     1      46.995   2.382   7.205  0.00  0.00    +0.000 A 
ATOM     18  C   UNL     1      46.270   1.583   8.083  0.00  0.00    +0.000 A 
ATOM     19  C   UNL     1      45.324   2.171   8.923  0.00  0.00    +0.000 A 
ATOM     20  C   UNL     1      45.145   3.553   8.881  0.00  0.00    +0.000 A 
ATOM     21  N   UNL     1      45.854   4.338   8.027  0.00  0.00    +0.000 NA
ATOM     22  C   UNL     1      46.757   3.743   7.221  0.00  0.00    +0.000 A 
ENDBRANCH  16  20
ENDBRANCH  13  16
ENDBRANCH   1  13
TORSDOF 4
ENDMDL
MODEL 2
REMARK VINA RESULT:    -7.547      2.091      3.955
REMARK INTER + INTRA:         -10.179
REMARK INTER:                  -9.457
REMARK INTRA:                  -0.722
REMARK UNBOUND:                -0.867
REMARK  Name = 
REMARK  4 active torsions:
REMARK  status: ('A' for Active; 'I' for Inactive)
REMARK    1  A    between atoms: C_4  and  C_5
REMARK    2  A    between atoms: C_5  and  C_6
REMARK    3  A    between atoms: C_6  and  C_7
REMARK    4  A    between atoms: C_11  and  C_12
REMARK                            x       y       z     vdW  Elec       q    Type
REMARK                         _______ _______ _______ _____ _____    ______ ____
ROOT
ATOM      1  C   UNL     1      45.305   4.797  11.988  0.00  0.00    +0.000 A 
ATOM      2  C   UNL     1      45.889   3.961  12.956  0.00  0.00    +0.000 A 
ATOM      3  C   UNL     1      46.977   4.375  13.724  0.00  0.00    +0.000 A 
ATOM      4  C   UNL     1      47.536   5.634  13.515  0.00  0.00    +0.000 A 
ATOM      5  C   UNL     1      46.995   6.512  12.566  0.00  0.00    +0.000 A 
ATOM      6  C   UNL     1      45.844   6.093  11.867  0.00  0.00    +0.000 A 
ENDROOT
BRANCH   5   7
ATOM      7  C   UNL     1      47.652   7.786  12.217  0.00  0.00    +0.000 A 
ATOM      8  C   UNL     1      48.972   7.834  11.763  0.00  0.00    +0.000 A 
ATOM      9  C   UNL     1      49.520   9.054  11.377  0.00  0.00    +0.000 A 
ATOM     10  C   UNL     1      48.740  10.198  11.445  0.00  0.00    +0.000 A 
ATOM     11  C   UNL     1      47.437  10.073  11.894  0.00  0.00    +0.000 A 
ATOM     12  N   UNL     1      46.879   8.901  12.274  0.00  0.00    +0.000 NA
ENDBRANCH   5   7
BRANCH   1  13
ATOM     13  C   UNL     1      44.266   4.252  10.990  0.00  0.00    +0.000 C 
ATOM     14  C   UNL     1      43.389   3.043  11.298  0.00  0.00    +0.000 C 
ATOM     15  C   UNL     1      42.839   4.411  11.537  0.00  0.00    +0.000 C 
BRANCH  13  16
ATOM     16  C   UNL     1      44.461   4.577   9.510  0.00  0.00    +0.000 C 
BRANCH  16  20
ATOM     17  C   UNL     1      47.018   2.170   7.094  0.00  0.00    +0.000 A 
ATOM     18  C   UNL     1      46.265   1.538   8.078  0.00  0.00    +0.000 A 
ATOM     19  C   UNL     1      45.445   2.301   8.909  0.00  0.00    +0.000 A 
ATOM     20  C   UNL     1      45.417   3.685   8.750  0.00  0.00    +0.000 A 
ATOM     21  N   UNL     1      46.153   4.307   7.791  0.00  0.00    +0.000 NA
ATOM     22  C   UNL     1      46.933   3.545   6.996  0.00  0.00    +0.000 A 
ENDBRANCH  16  20
ENDBRANCH  13  16
ENDBRANCH   1  13
TORSDOF 4
ENDMDL
MODEL 3
REMARK VINA RESULT:    -7.244      2.942      5.207
REMARK INTER + INTRA:          -9.806
REMARK INTER:                  -9.135
REMARK INTRA:                  -0.670
REMARK UNBOUND:                -0.867
REMARK  Name = 
REMARK  4 active torsions:
REMARK  status: ('A' for Active; 'I' for Inactive)
REMARK    1  A    between atoms: C_4  and  C_5
REMARK    2  A    between atoms: C_5  and  C_6
REMARK    3  A    between atoms: C_6  and  C_7
REMARK    4  A    between atoms: C_11  and  C_12
REMARK                            x       y       z     vdW  Elec       q    Type
REMARK                         _______ _______ _______ _____ _____    ______ ____
ROOT
ATOM      1  C   UNL     1      45.110   5.698  11.777  0.00  0.00    +0.000 A 
ATOM      2  C   UNL     1      46.459   5.680  12.176  0.00  0.00    +0.000 A 
ATOM      3  C   UNL     1      47.173   6.856  12.402  0.00  0.00    +0.000 A 
ATOM      4  C   UNL     1      46.562   8.091  12.197  0.00  0.00    +0.000 A 
ATOM      5  C   UNL     1      45.219   8.171  11.802  0.00  0.00    +0.000 A 
ATOM      6  C   UNL     1      44.504   6.964  11.664  0.00  0.00    +0.000 A 
ENDROOT
BRANCH   5   7
ATOM      7  C   UNL     1      44.589   9.453  11.433  0.00  0.00    +0.000 A 
ATOM      8  C   UNL     1      45.199  10.679  11.707  0.00  0.00    +0.000 A 
ATOM      9  C   UNL     1      44.597  11.857  11.273  0.00  0.00    +0.000 A 
ATOM     10  C   UNL     1      43.405  11.787  10.569  0.00  0.00    +0.000 A 
ATOM     11  C   UNL     1      42.865  10.537  10.324  0.00  0.00    +0.000 A 
ATOM     12  N   UNL     1      43.428   9.377  10.734  0.00  0.00    +0.000 NA
ENDBRANCH   5   7
BRANCH   1  13
ATOM     13  C   UNL     1      44.405   4.413  11.305  0.00  0.00    +0.000 C 
ATOM     14  C   UNL     1      44.458   3.110  12.096  0.00  0.00    +0.000 C 
ATOM     15  C   UNL     1      43.281   4.013  12.273  0.00  0.00    +0.000 C 
BRANCH  13  16
ATOM     16  C   UNL     1      44.091   4.279   9.816  0.00  0.00    +0.000 C 
BRANCH  16  20
ATOM     17  C   UNL     1      46.899   2.463   7.171  0.00  0.00    +0.000 A 
ATOM     18  C   UNL     1      46.227   1.643   8.073  0.00  0.00    +0.000 A 
ATOM     19  C   UNL     1      45.327   2.211   8.976  0.00  0.00    +0.000 A 
ATOM     20  C   UNL     1      45.140   3.592   8.970  0.00  0.00    +0.000 A 
ATOM     21  N   UNL     1      45.796   4.396   8.093  0.00  0.00    +0.000 NA
ATOM     22  C   UNL     1      46.655   3.822   7.226  0.00  0.00    +0.000 A 
ENDBRANCH  16  20
ENDBRANCH  13  16
ENDBRANCH   1  13
TORSDOF 4
ENDMDL
MODEL 4
REMARK VINA RESULT:    -7.025      2.282      2.965
REMARK INTER + INTRA:          -9.535
REMARK INTER:                  -8.858
REMARK INTRA:                  -0.678
REMARK UNBOUND:                -0.867
REMARK  Name = 
REMARK  4 active torsions:
REMARK  status: ('A' for Active; 'I' for Inactive)
REMARK    1  A    between atoms: C_4  and  C_5
REMARK    2  A    between atoms: C_5  and  C_6
REMARK    3  A    between atoms: C_6  and  C_7
REMARK    4  A    between atoms: C_11  and  C_12
REMARK                            x       y       z     vdW  Elec       q    Type
REMARK                         _______ _______ _______ _____ _____    ______ ____
ROOT
ATOM      1  C   UNL     1      45.305   5.944  11.559  0.00  0.00    +0.000 A 
ATOM      2  C   UNL     1      44.519   7.094  11.367  0.00  0.00    +0.000 A 
ATOM      3  C   UNL     1      44.986   8.366  11.699  0.00  0.00    +0.000 A 
ATOM      4  C   UNL     1      46.248   8.516  12.270  0.00  0.00    +0.000 A 
ATOM      5  C   UNL     1      47.077   7.405  12.482  0.00  0.00    +0.000 A 
ATOM      6  C   UNL     1      46.607   6.146  12.058  0.00  0.00    +0.000 A 
ENDROOT
BRANCH   5   7
ATOM      7  C   UNL     1      48.351   7.512  13.219  0.00  0.00    +0.000 A 
ATOM      8  C   UNL     1      49.410   8.292  12.750  0.00  0.00    +0.000 A 
ATOM      9  C   UNL     1      50.564   8.417  13.519  0.00  0.00    +0.000 A 
ATOM     10  C   UNL     1      50.634   7.767  14.742  0.00  0.00    +0.000 A 
ATOM     11  C   UNL     1      49.541   7.021  15.148  0.00  0.00    +0.000 A 
ATOM     12  N   UNL     1      48.409   6.883  14.421  0.00  0.00    +0.000 NA
ENDBRANCH   5   7
BRANCH   1  13
ATOM     13  C   UNL     1      44.699   4.535  11.414  0.00  0.00    +0.000 C 
ATOM     14  C   UNL     1      45.043   3.393  12.366  0.00  0.00    +0.000 C 
ATOM     15  C   UNL     1      43.806   4.192  12.616  0.00  0.00    +0.000 C 
BRANCH  13  16
ATOM     16  C   UNL     1      44.170   4.125  10.041  0.00  0.00    +0.000 C 
BRANCH  16  20
ATOM     17  C   UNL     1      46.820   2.467   7.143  0.00  0.00    +0.000 A 
ATOM     18  C   UNL     1      46.218   1.599   8.049  0.00  0.00    +0.000 A 
ATOM     19  C   UNL     1      45.373   2.113   9.032  0.00  0.00    +0.000 A 
ATOM     20  C   UNL     1      45.170   3.491   9.100  0.00  0.00    +0.000 A 
ATOM     21  N   UNL     1      45.758   4.342   8.218  0.00  0.00    +0.000 NA
ATOM     22  C   UNL     1      46.565   3.818   7.273  0.00  0.00    +0.000 A 
ENDBRANCH  16  20
ENDBRANCH  13  16
ENDBRANCH   1  13
TORSDOF 4
ENDMDL
MODEL 5
REMARK VINA RESULT:    -6.594      1.649      1.998
REMARK INTER + INTRA:          -9.003
REMARK INTER:                  -8.387
REMARK INTRA:                  -0.617
REMARK UNBOUND:                -0.867
REMARK  Name = 
REMARK  4 active torsions:
REMARK  status: ('A' for Active; 'I' for Inactive)
REMARK    1  A    between atoms: C_4  and  C_5
REMARK    2  A    between atoms: C_5  and  C_6
REMARK    3  A    between atoms: C_6  and  C_7
REMARK    4  A    between atoms: C_11  and  C_12
REMARK                            x       y       z     vdW  Elec       q    Type
REMARK                         _______ _______ _______ _____ _____    ______ ____
ROOT
ATOM      1  C   UNL     1      46.479   5.958  12.274  0.00  0.00    +0.000 A 
ATOM      2  C   UNL     1      47.032   6.974  11.474  0.00  0.00    +0.000 A 
ATOM      3  C   UNL     1      48.170   7.679  11.865  0.00  0.00    +0.000 A 
ATOM      4  C   UNL     1      48.767   7.409  13.094  0.00  0.00    +0.000 A 
ATOM      5  C   UNL     1      48.261   6.406  13.933  0.00  0.00    +0.000 A 
ATOM      6  C   UNL     1      47.162   5.656  13.469  0.00  0.00    +0.000 A 
ENDROOT
BRANCH   5   7
ATOM      7  C   UNL     1      48.777   6.198  15.300  0.00  0.00    +0.000 A 
ATOM      8  C   UNL     1      49.688   7.080  15.886  0.00  0.00    +0.000 A 
ATOM      9  C   UNL     1      50.087   6.878  17.204  0.00  0.00    +0.000 A 
ATOM     10  C   UNL     1      49.563   5.808  17.913  0.00  0.00    +0.000 A 
ATOM     11  C   UNL     1      48.656   4.982  17.271  0.00  0.00    +0.000 A 
ATOM     12  N   UNL     1      48.251   5.155  15.992  0.00  0.00    +0.000 NA
ENDBRANCH   5   7
BRANCH   1  13
ATOM     13  C   UNL     1      45.100   5.354  11.949  0.00  0.00    +0.000 C 
ATOM     14  C   UNL     1      44.417   4.337  12.859  0.00  0.00    +0.000 C 
ATOM     15  C   UNL     1      44.053   5.780  12.990  0.00  0.00    +0.000 C 
BRANCH  13  16
ATOM     16  C   UNL     1      44.644   5.361  10.492  0.00  0.00    +0.000 C 
BRANCH  16  20
ATOM     17  C   UNL     1      46.082   2.427   7.754  0.00  0.00    +0.000 A 
ATOM     18  C   UNL     1      45.387   1.987   8.877  0.00  0.00    +0.000 A 
ATOM     19  C   UNL     1      44.933   2.919   9.810  0.00  0.00    +0.000 A 
ATOM     20  C   UNL     1      45.209   4.271   9.609  0.00  0.00    +0.000 A 
ATOM     21  N   UNL     1      45.890   4.704   8.515  0.00  0.00    +0.000 NA
ATOM     22  C   UNL     1      46.312   3.783   7.624  0.00  0.00    +0.000 A 
ENDBRANCH  16  20
ENDBRANCH  13  16
ENDBRANCH   1  13
TORSDOF 4
ENDMDL
MODEL 6
REMARK VINA RESULT:    -6.542      3.174      6.668
REMARK INTER + INTRA:          -8.939
REMARK INTER:                  -8.173
REMARK INTRA:                  -0.766
REMARK UNBOUND:                -0.867
REMARK  Name = 
REMARK  4 active torsions:
REMARK  status: ('A' for Active; 'I' for Inactive)
REMARK    1  A    between atoms: C_4  and  C_5
REMARK    2  A    between atoms: C_5  and  C_6
REMARK    3  A    between atoms: C_6  and  C_7
REMARK    4  A    between atoms: C_11  and  C_12
REMARK                            x       y       z     vdW  Elec       q    Type
REMARK                         _______ _______ _______ _____ _____    ______ ____
ROOT
ATOM      1  C   UNL     1      44.382   4.786  11.303  0.00  0.00    +0.000 A 
ATOM      2  C   UNL     1      43.475   3.870  11.864  0.00  0.00    +0.000 A 
ATOM      3  C   UNL     1      43.348   2.570  11.375  0.00  0.00    +0.000 A 
ATOM      4  C   UNL     1      44.105   2.162  10.280  0.00  0.00    +0.000 A 
ATOM      5  C   UNL     1      45.028   3.032   9.680  0.00  0.00    +0.000 A 
ATOM      6  C   UNL     1      45.191   4.309  10.253  0.00  0.00    +0.000 A 
ENDROOT
BRANCH   5   7
ATOM      7  C   UNL     1      45.732   2.683   8.432  0.00  0.00    +0.000 A 
ATOM      8  C   UNL     1      45.934   3.618   7.414  0.00  0.00    +0.000 A 
ATOM      9  C   UNL     1      46.669   3.257   6.288  0.00  0.00    +0.000 A 
ATOM     10  C   UNL     1      47.193   1.977   6.204  0.00  0.00    +0.000 A 
ATOM     11  C   UNL     1      46.962   1.107   7.256  0.00  0.00    +0.000 A 
ATOM     12  N   UNL     1      46.252   1.431   8.361  0.00  0.00    +0.000 NA
ENDBRANCH   5   7
BRANCH   1  13
ATOM     13  C   UNL     1      44.347   6.277  11.690  0.00  0.00    +0.000 C 
ATOM     14  C   UNL     1      44.032   7.378  10.682  0.00  0.00    +0.000 C 
ATOM     15  C   UNL     1      42.929   6.852  11.543  0.00  0.00    +0.000 C 
BRANCH  13  16
ATOM     16  C   UNL     1      45.124   6.709  12.932  0.00  0.00    +0.000 C 
BRANCH  16  20
ATOM     17  C   UNL     1      48.601   9.025  12.081  0.00  0.00    +0.000 A 
ATOM     18  C   UNL     1      48.587   7.694  11.674  0.00  0.00    +0.000 A 
ATOM     19  C   UNL     1      47.479   6.900  11.968  0.00  0.00    +0.000 A 
ATOM     20  C   UNL     1      46.419   7.451  12.686  0.00  0.00    +0.000 A 
ATOM     21  N   UNL     1      46.430   8.750  13.087  0.00  0.00    +0.000 NA
ATOM     22  C   UNL     1      47.510   9.499  12.784  0.00  0.00    +0.000 A 
ENDBRANCH  16  20
ENDBRANCH  13  16
ENDBRANCH   1  13
TORSDOF 4
ENDMDL
MODEL 7
REMARK VINA RESULT:    -6.416      3.024      4.769
REMARK INTER + INTRA:          -8.783
REMARK INTER:                  -7.910
REMARK INTRA:                  -0.873
REMARK UNBOUND:                -0.867
REMARK  Name = 
REMARK  4 active torsions:
REMARK  status: ('A' for Active; 'I' for Inactive)
REMARK    1  A    between atoms: C_4  and  C_5
REMARK    2  A    between atoms: C_5  and  C_6
REMARK    3  A    between atoms: C_6  and  C_7
REMARK    4  A    between atoms: C_11  and  C_12
REMARK                            x       y       z     vdW  Elec       q    Type
REMARK                         _______ _______ _______ _____ _____    ______ ____
ROOT
ATOM      1  C   UNL     1      45.968   6.646  12.158  0.00  0.00    +0.000 A 
ATOM      2  C   UNL     1      45.100   7.675  12.562  0.00  0.00    +0.000 A 
ATOM      3  C   UNL     1      45.512   9.007  12.611  0.00  0.00    +0.000 A 
ATOM      4  C   UNL     1      46.826   9.340  12.289  0.00  0.00    +0.000 A 
ATOM      5  C   UNL     1      47.736   8.356  11.877  0.00  0.00    +0.000 A 
ATOM      6  C   UNL     1      47.262   7.034  11.759  0.00  0.00    +0.000 A 
ENDROOT
BRANCH   5   7
ATOM      7  C   UNL     1      49.168   8.652  11.675  0.00  0.00    +0.000 A 
ATOM      8  C   UNL     1      50.107   7.639  11.471  0.00  0.00    +0.000 A 
ATOM      9  C   UNL     1      51.433   7.976  11.213  0.00  0.00    +0.000 A 
ATOM     10  C   UNL     1      51.793   9.313  11.156  0.00  0.00    +0.000 A 
ATOM     11  C   UNL     1      50.805  10.263  11.356  0.00  0.00    +0.000 A 
ATOM     12  N   UNL     1      49.511   9.964  11.609  0.00  0.00    +0.000 NA
ENDBRANCH   5   7
BRANCH   1  13
ATOM     13  C   UNL     1      45.581   5.166  12.333  0.00  0.00    +0.000 C 
ATOM     14  C   UNL     1      46.540   4.130  12.911  0.00  0.00    +0.000 C 
ATOM     15  C   UNL     1      45.546   4.776  13.819  0.00  0.00    +0.000 C 
BRANCH  13  16
ATOM     16  C   UNL     1      44.449   4.618  11.466  0.00  0.00    +0.000 C 
BRANCH  16  20
ATOM     17  C   UNL     1      45.785   2.713   7.894  0.00  0.00    +0.000 A 
ATOM     18  C   UNL     1      45.938   4.092   7.994  0.00  0.00    +0.000 A 
ATOM     19  C   UNL     1      45.480   4.751   9.135  0.00  0.00    +0.000 A 
ATOM     20  C   UNL     1      44.854   4.014  10.140  0.00  0.00    +0.000 A 
ATOM     21  N   UNL     1      44.700   2.667  10.044  0.00  0.00    +0.000 NA
ATOM     22  C   UNL     1      45.159   2.053   8.934  0.00  0.00    +0.000 A 
ENDBRANCH  16  20
ENDBRANCH  13  16
ENDBRANCH   1  13
TORSDOF 4
ENDMDL
MODEL 8
REMARK VINA RESULT:    -6.359      2.459      7.656
REMARK INTER + INTRA:          -8.713
REMARK INTER:                  -8.148
REMARK INTRA:                  -0.565
REMARK UNBOUND:                -0.867
REMARK  Name = 
REMARK  4 active torsions:
REMARK  status: ('A' for Active; 'I' for Inactive)
REMARK    1  A    between atoms: C_4  and  C_5
REMARK    2  A    between atoms: C_5  and  C_6
REMARK    3  A    between atoms: C_6  and  C_7
REMARK    4  A    between atoms: C_11  and  C_12
REMARK                            x       y       z     vdW  Elec       q    Type
REMARK                         _______ _______ _______ _____ _____    ______ ____
ROOT
ATOM      1  C   UNL     1      47.887   4.460  16.029  0.00  0.00    +0.000 A 
ATOM      2  C   UNL     1      48.628   5.655  16.020  0.00  0.00    +0.000 A 
ATOM      3  C   UNL     1      48.476   6.606  15.012  0.00  0.00    +0.000 A 
ATOM      4  C   UNL     1      47.598   6.367  13.957  0.00  0.00    +0.000 A 
ATOM      5  C   UNL     1      46.831   5.194  13.913  0.00  0.00    +0.000 A 
ATOM      6  C   UNL     1      46.948   4.294  14.992  0.00  0.00    +0.000 A 
ENDROOT
BRANCH   5   7
ATOM      7  C   UNL     1      46.008   4.843  12.741  0.00  0.00    +0.000 A 
ATOM      8  C   UNL     1      45.859   5.712  11.658  0.00  0.00    +0.000 A 
ATOM      9  C   UNL     1      45.131   5.303  10.544  0.00  0.00    +0.000 A 
ATOM     10  C   UNL     1      44.573   4.034  10.530  0.00  0.00    +0.000 A 
ATOM     11  C   UNL     1      44.772   3.222  11.634  0.00  0.00    +0.000 A 
ATOM     12  N   UNL     1      45.474   3.594  12.728  0.00  0.00    +0.000 NA
ENDBRANCH   5   7
BRANCH   1  13
ATOM     13  C   UNL     1      48.230   3.320  17.007  0.00  0.00    +0.000 C 
ATOM     14  C   UNL     1      48.123   3.479  18.520  0.00  0.00    +0.000 C 
ATOM     15  C   UNL     1      46.982   2.862  17.778  0.00  0.00    +0.000 C 
BRANCH  13  16
ATOM     16  C   UNL     1      49.162   2.215  16.514  0.00  0.00    +0.000 C 
BRANCH  16  20
ATOM     17  C   UNL     1      53.054   2.098  18.248  0.00  0.00    +0.000 A 
ATOM     18  C   UNL     1      52.445   3.340  18.096  0.00  0.00    +0.000 A 
ATOM     19  C   UNL     1      51.186   3.416  17.500  0.00  0.00    +0.000 A 
ATOM     20  C   UNL     1      50.577   2.247  17.047  0.00  0.00    +0.000 A 
ATOM     21  N   UNL     1      51.170   1.032  17.191  0.00  0.00    +0.000 NA
ATOM     22  C   UNL     1      52.385   0.985  17.777  0.00  0.00    +0.000 A 
ENDBRANCH  16  20
ENDBRANCH  13  16
ENDBRANCH   1  13
TORSDOF 4
ENDMDL
MODEL 9
REMARK VINA RESULT:    -6.304      3.627      7.307
REMARK INTER + INTRA:          -8.645
REMARK INTER:                  -7.976
REMARK INTRA:                  -0.668
REMARK UNBOUND:                -0.867
REMARK  Name = 
REMARK  4 active torsions:
REMARK  status: ('A' for Active; 'I' for Inactive)
REMARK    1  A    between atoms: C_4  and  C_5
REMARK    2  A    between atoms: C_5  and  C_6
REMARK    3  A    between atoms: C_6  and  C_7
REMARK    4  A    between atoms: C_11  and  C_12
REMARK                            x       y       z     vdW  Elec       q    Type
REMARK                         _______ _______ _______ _____ _____    ______ ____
ROOT
ATOM      1  C   UNL     1      44.652   6.696  11.464  0.00  0.00    +0.000 A 
ATOM      2  C   UNL     1      43.402   6.261  11.940  0.00  0.00    +0.000 A 
ATOM      3  C   UNL     1      42.869   5.024  11.580  0.00  0.00    +0.000 A 
ATOM      4  C   UNL     1      43.562   4.199  10.697  0.00  0.00    +0.000 A 
ATOM      5  C   UNL     1      44.814   4.578  10.192  0.00  0.00    +0.000 A 
ATOM      6  C   UNL     1      45.360   5.796  10.643  0.00  0.00    +0.000 A 
ENDROOT
BRANCH   5   7
ATOM      7  C   UNL     1      45.501   3.799   9.144  0.00  0.00    +0.000 A 
ATOM      8  C   UNL     1      45.494   2.403   9.140  0.00  0.00    +0.000 A 
ATOM      9  C   UNL     1      46.096   1.717   8.089  0.00  0.00    +0.000 A 
ATOM     10  C   UNL     1      46.685   2.437   7.061  0.00  0.00    +0.000 A 
ATOM     11  C   UNL     1      46.644   3.819   7.126  0.00  0.00    +0.000 A 
ATOM     12  N   UNL     1      46.066   4.510   8.135  0.00  0.00    +0.000 NA
ENDBRANCH   5   7
BRANCH   1  13
ATOM     13  C   UNL     1      45.121   8.148  11.674  0.00  0.00    +0.000 C 
ATOM     14  C   UNL     1      45.467   8.706  13.051  0.00  0.00    +0.000 C 
ATOM     15  C   UNL     1      46.570   8.191  12.184  0.00  0.00    +0.000 C 
BRANCH  13  16
ATOM     16  C   UNL     1      44.750   9.177  10.609  0.00  0.00    +0.000 C 
BRANCH  16  20
ATOM     17  C   UNL     1      41.274  11.584  11.155  0.00  0.00    +0.000 A 
ATOM     18  C   UNL     1      42.514  12.162  11.408  0.00  0.00    +0.000 A 
ATOM     19  C   UNL     1      43.669  11.392  11.272  0.00  0.00    +0.000 A 
ATOM     20  C   UNL     1      43.552  10.050  10.910  0.00  0.00    +0.000 A 
ATOM     21  N   UNL     1      42.343   9.482  10.665  0.00  0.00    +0.000 NA
ATOM     22  C   UNL     1      41.242  10.250  10.796  0.00  0.00    +0.000 A 
ENDBRANCH  16  20
ENDBRANCH  13  16
ENDBRANCH   1  13
TORSDOF 4
ENDMDL
