MODEL 1
REMARK VINA RESULT:    -7.710      0.000      0.000
REMARK INTER + INTRA:          -9.888
REMARK INTER:                  -9.513
REMARK INTRA:                  -0.375
REMARK UNBOUND:                -0.375
REMARK  Name = 
REMARK  5 active torsions:
REMARK  status: ('A' for Active; 'I' for Inactive)
REMARK    1  A    between atoms: C_1  and  C_2
REMARK    2  A    between atoms: N_4  and  C_5
REMARK    3  A    between atoms: C_9  and  C_10
REMARK    4  A    between atoms: C_10  and  N_11
REMARK    5  A    between atoms: C_15  and  C_16
REMARK                            x       y       z     vdW  Elec       q    Type
REMARK                         _______ _______ _______ _____ _____    ______ ____
ROOT
ATOM      1  C   UNL     1      46.911   6.862  12.332  0.00  0.00    +0.000 A 
ATOM      2  C   UNL     1      47.113   6.139  13.516  0.00  0.00    +0.000 A 
ATOM      3  C   UNL     1      46.337   5.020  13.836  0.00  0.00    +0.000 A 
ATOM      4  C   UNL     1      45.326   4.598  12.976  0.00  0.00    +0.000 A 
ATOM      5  C   UNL     1      45.065   5.312  11.804  0.00  0.00    +0.000 A 
ATOM      6  C   UNL     1      45.874   6.420  11.495  0.00  0.00    +0.000 A 
ENDROOT
BRANCH   1  10
ATOM      7  C   UNL     1      50.225   7.924  13.913  0.00  0.00    +0.000 C 
ATOM      8  C   UNL     1      50.010   8.663  12.588  0.00  0.00    +0.000 C 
ATOM      9  C   UNL     1      49.090   7.870  11.622  0.00  0.00    +0.000 C 
ATOM     10  N   UNL     1      47.679   7.964  12.021  0.00  0.00    +0.000 N 
ATOM     11  C   UNL     1      47.191   9.335  12.208  0.00  0.00    +0.000 C 
ATOM     12  C   UNL     1      48.126  10.108  13.167  0.00  0.00    +0.000 C 
ATOM     13  N   UNL     1      49.558  10.058  12.810  0.00  0.00    +0.000 NA
ATOM     14  H   UNL     1      50.102  10.473  13.565  0.00  0.00    +0.000 HD
ENDBRANCH   1  10
BRANCH   5  15
ATOM     15  C   UNL     1      43.910   4.950  10.899  0.00  0.00    +0.000 C 
BRANCH  15  16
ATOM     16  N   UNL     1      43.932   3.527  10.562  0.00  0.00    +0.000 N 
ATOM     17  C   UNL     1      44.818   3.222   9.514  0.00  0.00    +0.000 A 
ATOM     18  C   UNL     1      44.938   1.900   9.087  0.00  0.00    +0.000 A 
ATOM     19  C   UNL     1      45.789   1.594   8.021  0.00  0.00    +0.000 A 
ATOM     20  C   UNL     1      46.510   2.614   7.396  0.00  0.00    +0.000 A 
ATOM     21  C   UNL     1      46.339   3.894   7.894  0.00  0.00    +0.000 A 
ATOM     22  N   UNL     1      45.528   4.209   8.934  0.00  0.00    +0.000 NA
ATOM     23  H   UNL     1      43.006   3.206  10.298  0.00  0.00    +0.000 HD
BRANCH  20  24
ATOM     24  C   UNL     1      47.386   2.298   6.248  0.00  0.00    +0.000 C 
ATOM     25  N   UNL     1      47.320   3.070   5.119  0.00  0.00    +0.000 N 
ATOM     26  O   UNL     1      48.163   1.349   6.290  0.00  0.00    +0.000 OA
ATOM     27  H   UNL     1      46.727   3.871   4.974  0.00  0.00    +0.000 HD
ATOM     28  H   UNL     1      47.937   2.809   4.364  0.00  0.00    +0.000 HD
ENDBRANCH  20  24
ENDBRANCH  15  16
ENDBRANCH   5  15
TORSDOF 4
ENDMDL
MODEL 2
REMARK VINA RESULT:    -7.465      1.880      2.747
REMARK INTER + INTRA:          -9.586
REMARK INTER:                  -9.293
REMARK INTRA:                  -0.293
REMARK UNBOUND:                -0.375
REMARK  Name = 
REMARK  5 active torsions:
REMARK  status: ('A' for Active; 'I' for Inactive)
REMARK    1  A    between atoms: C_1  and  C_2
REMARK    2  A    between atoms: N_4  and  C_5
REMARK    3  A    between atoms: C_9  and  C_10
REMARK    4  A    between atoms: C_10  and  N_11
REMARK    5  A    between atoms: C_15  and  C_16
REMARK                            x       y       z     vdW  Elec       q    Type
REMARK                         _______ _______ _______ _____ _____    ______ ____
ROOT
ATOM      1  C   UNL     1      45.623   7.848  12.297  0.00  0.00    +0.000 A 
ATOM      2  C   UNL     1      46.526   7.095  13.060  0.00  0.00    +0.000 A 
ATOM      3  C   UNL     1      46.537   5.697  13.017  0.00  0.00    +0.000 A 
ATOM      4  C   UNL     1      45.632   5.012  12.209  0.00  0.00    +0.000 A 
ATOM      5  C   UNL     1      44.689   5.722  11.462  0.00  0.00    +0.000 A 
ATOM      6  C   UNL     1      44.714   7.128  11.506  0.00  0.00    +0.000 A 
ENDROOT
BRANCH   1  10
ATOM      7  C   UNL     1      44.084  10.261   9.764  0.00  0.00    +0.000 C 
ATOM      8  C   UNL     1      44.376  10.991  11.079  0.00  0.00    +0.000 C 
ATOM      9  C   UNL     1      44.382  10.023  12.293  0.00  0.00    +0.000 C 
ATOM     10  N   UNL     1      45.616   9.226  12.342  0.00  0.00    +0.000 N 
ATOM     11  C   UNL     1      46.851  10.017  12.291  0.00  0.00    +0.000 C 
ATOM     12  C   UNL     1      46.820  10.979  11.080  0.00  0.00    +0.000 C 
ATOM     13  N   UNL     1      45.606  11.814  10.984  0.00  0.00    +0.000 NA
ATOM     14  H   UNL     1      45.613  12.307  10.093  0.00  0.00    +0.000 HD
ENDBRANCH   1  10
BRANCH   5  15
ATOM     15  C   UNL     1      43.623   5.014  10.658  0.00  0.00    +0.000 C 
BRANCH  15  16
ATOM     16  N   UNL     1      43.944   3.598  10.491  0.00  0.00    +0.000 N 
ATOM     17  C   UNL     1      44.839   3.355   9.433  0.00  0.00    +0.000 A 
ATOM     18  C   UNL     1      45.229   2.046   9.158  0.00  0.00    +0.000 A 
ATOM     19  C   UNL     1      46.089   1.793   8.085  0.00  0.00    +0.000 A 
ATOM     20  C   UNL     1      46.546   2.853   7.301  0.00  0.00    +0.000 A 
ATOM     21  C   UNL     1      46.117   4.121   7.654  0.00  0.00    +0.000 A 
ATOM     22  N   UNL     1      45.294   4.388   8.697  0.00  0.00    +0.000 NA
ATOM     23  H   UNL     1      43.102   3.055  10.325  0.00  0.00    +0.000 HD
BRANCH  20  24
ATOM     24  C   UNL     1      47.430   2.586   6.146  0.00  0.00    +0.000 C 
ATOM     25  N   UNL     1      48.700   2.122   6.363  0.00  0.00    +0.000 N 
ATOM     26  O   UNL     1      47.044   2.784   4.998  0.00  0.00    +0.000 OA
ATOM     27  H   UNL     1      49.120   1.920   7.257  0.00  0.00    +0.000 HD
ATOM     28  H   UNL     1      49.261   1.959   5.541  0.00  0.00    +0.000 HD
ENDBRANCH  20  24
ENDBRANCH  15  16
ENDBRANCH   5  15
TORSDOF 4
ENDMDL
MODEL 3
REMARK VINA RESULT:    -7.419      5.339      8.563
REMARK INTER + INTRA:          -9.528
REMARK INTER:                  -8.893
REMARK INTRA:                  -0.635
REMARK UNBOUND:                -0.375
REMARK  Name = 
REMARK  5 active torsions:
REMARK  status: ('A' for Active; 'I' for Inactive)
REMARK    1  A    between atoms: C_1  and  C_2
REMARK    2  A    between atoms: N_4  and  C_5
REMARK    3  A    between atoms: C_9  and  C_10
REMARK    4  A    between atoms: C_10  and  N_11
REMARK    5  A    between atoms: C_15  and  C_16
REMARK                            x       y       z     vdW  Elec       q    Type
REMARK                         _______ _______ _______ _____ _____    ______ ____
ROOT
ATOM      1  C   UNL     1      46.368   5.036  12.891  0.00  0.00    +0.000 A 
ATOM      2  C   UNL     1      47.038   6.233  12.603  0.00  0.00    +0.000 A 
ATOM      3  C   UNL     1      47.908   6.829  13.522  0.00  0.00    +0.000 A 
ATOM      4  C   UNL     1      48.125   6.240  14.766  0.00  0.00    +0.000 A 
ATOM      5  C   UNL     1      47.448   5.067  15.110  0.00  0.00    +0.000 A 
ATOM      6  C   UNL     1      46.596   4.478  14.158  0.00  0.00    +0.000 A 
ENDROOT
BRANCH   1  10
ATOM      7  C   UNL     1      42.646   5.748  12.395  0.00  0.00    +0.000 C 
ATOM      8  C   UNL     1      43.205   4.992  11.186  0.00  0.00    +0.000 C 
ATOM      9  C   UNL     1      44.730   5.227  11.007  0.00  0.00    +0.000 C 
ATOM     10  N   UNL     1      45.512   4.453  11.981  0.00  0.00    +0.000 N 
ATOM     11  C   UNL     1      45.198   3.020  12.011  0.00  0.00    +0.000 C 
ATOM     12  C   UNL     1      43.674   2.811  12.181  0.00  0.00    +0.000 C 
ATOM     13  N   UNL     1      42.837   3.557  11.221  0.00  0.00    +0.000 NA
ATOM     14  H   UNL     1      41.859   3.467  11.495  0.00  0.00    +0.000 HD
ENDBRANCH   1  10
BRANCH   5  15
ATOM     15  C   UNL     1      47.574   4.456  16.486  0.00  0.00    +0.000 C 
BRANCH  15  16
ATOM     16  N   UNL     1      48.730   4.999  17.198  0.00  0.00    +0.000 N 
ATOM     17  C   UNL     1      49.774   4.068  17.345  0.00  0.00    +0.000 A 
ATOM     18  C   UNL     1      50.939   4.450  18.009  0.00  0.00    +0.000 A 
ATOM     19  C   UNL     1      51.966   3.520  18.191  0.00  0.00    +0.000 A 
ATOM     20  C   UNL     1      51.815   2.219  17.707  0.00  0.00    +0.000 A 
ATOM     21  C   UNL     1      50.631   1.931  17.050  0.00  0.00    +0.000 A 
ATOM     22  N   UNL     1      49.629   2.822  16.852  0.00  0.00    +0.000 NA
ATOM     23  H   UNL     1      48.463   5.324  18.122  0.00  0.00    +0.000 HD
BRANCH  20  24
ATOM     24  C   UNL     1      52.886   1.223  17.926  0.00  0.00    +0.000 C 
ATOM     25  N   UNL     1      53.037   0.191  17.040  0.00  0.00    +0.000 N 
ATOM     26  O   UNL     1      53.634   1.305  18.896  0.00  0.00    +0.000 OA
ATOM     27  H   UNL     1      52.487   0.026  16.212  0.00  0.00    +0.000 HD
ATOM     28  H   UNL     1      53.781  -0.461  17.238  0.00  0.00    +0.000 HD
ENDBRANCH  20  24
ENDBRANCH  15  16
ENDBRANCH   5  15
TORSDOF 4
ENDMDL
MODEL 4
REMARK VINA RESULT:    -7.403      3.579      7.737
REMARK INTER + INTRA:          -9.509
REMARK INTER:                  -8.929
REMARK INTRA:                  -0.579
REMARK UNBOUND:                -0.375
REMARK  Name = 
REMARK  5 active torsions:
REMARK  status: ('A' for Active; 'I' for Inactive)
REMARK    1  A    between atoms: C_1  and  C_2
REMARK    2  A    between atoms: N_4  and  C_5
REMARK    3  A    between atoms: C_9  and  C_10
REMARK    4  A    between atoms: C_10  and  N_11
REMARK    5  A    between atoms: C_15  and  C_16
REMARK                            x       y       z     vdW  Elec       q    Type
REMARK                         _______ _______ _______ _____ _____    ______ ____
ROOT
ATOM      1  C   UNL     1      45.335   6.904  11.419  0.00  0.00    +0.000 A 
ATOM      2  C   UNL     1      44.809   8.168  11.721  0.00  0.00    +0.000 A 
ATOM      3  C   UNL     1      45.597   9.178  12.282  0.00  0.00    +0.000 A 
ATOM      4  C   UNL     1      46.940   8.945  12.565  0.00  0.00    +0.000 A 
ATOM      5  C   UNL     1      47.497   7.688  12.317  0.00  0.00    +0.000 A 
ATOM      6  C   UNL     1      46.688   6.697  11.731  0.00  0.00    +0.000 A 
ENDROOT
BRANCH   1  10
ATOM      7  C   UNL     1      43.318   4.223  13.249  0.00  0.00    +0.000 C 
ATOM      8  C   UNL     1      42.859   4.327  11.791  0.00  0.00    +0.000 C 
ATOM      9  C   UNL     1      43.134   5.734  11.194  0.00  0.00    +0.000 C 
ATOM     10  N   UNL     1      44.555   5.912  10.866  0.00  0.00    +0.000 N 
ATOM     11  C   UNL     1      45.118   4.857  10.015  0.00  0.00    +0.000 C 
ATOM     12  C   UNL     1      44.826   3.466  10.626  0.00  0.00    +0.000 C 
ATOM     13  N   UNL     1      43.409   3.226  10.966  0.00  0.00    +0.000 NA
ATOM     14  H   UNL     1      43.337   2.350  11.482  0.00  0.00    +0.000 HD
ENDBRANCH   1  10
BRANCH   5  15
ATOM     15  C   UNL     1      48.920   7.362  12.707  0.00  0.00    +0.000 C 
BRANCH  15  16
ATOM     16  N   UNL     1      49.169   7.693  14.109  0.00  0.00    +0.000 N 
ATOM     17  C   UNL     1      48.768   6.677  14.996  0.00  0.00    +0.000 A 
ATOM     18  C   UNL     1      48.945   6.860  16.366  0.00  0.00    +0.000 A 
ATOM     19  C   UNL     1      48.515   5.871  17.255  0.00  0.00    +0.000 A 
ATOM     20  C   UNL     1      47.914   4.711  16.762  0.00  0.00    +0.000 A 
ATOM     21  C   UNL     1      47.791   4.609  15.387  0.00  0.00    +0.000 A 
ATOM     22  N   UNL     1      48.212   5.550  14.508  0.00  0.00    +0.000 NA
ATOM     23  H   UNL     1      48.687   8.548  14.369  0.00  0.00    +0.000 HD
BRANCH  20  24
ATOM     24  C   UNL     1      47.430   3.677  17.702  0.00  0.00    +0.000 C 
ATOM     25  N   UNL     1      48.052   3.523  18.912  0.00  0.00    +0.000 N 
ATOM     26  O   UNL     1      46.486   2.951  17.407  0.00  0.00    +0.000 OA
ATOM     27  H   UNL     1      48.830   4.062  19.259  0.00  0.00    +0.000 HD
ATOM     28  H   UNL     1      47.684   2.801  19.513  0.00  0.00    +0.000 HD
ENDBRANCH  20  24
ENDBRANCH  15  16
ENDBRANCH   5  15
TORSDOF 4
ENDMDL
MODEL 5
REMARK VINA RESULT:    -7.308      1.329      2.099
REMARK INTER + INTRA:          -9.392
REMARK INTER:                  -8.955
REMARK INTRA:                  -0.436
REMARK UNBOUND:                -0.375
REMARK  Name = 
REMARK  5 active torsions:
REMARK  status: ('A' for Active; 'I' for Inactive)
REMARK    1  A    between atoms: C_1  and  C_2
REMARK    2  A    between atoms: N_4  and  C_5
REMARK    3  A    between atoms: C_9  and  C_10
REMARK    4  A    between atoms: C_10  and  N_11
REMARK    5  A    between atoms: C_15  and  C_16
REMARK                            x       y       z     vdW  Elec       q    Type
REMARK                         _______ _______ _______ _____ _____    ______ ____
ROOT
ATOM      1  C   UNL     1      47.069   6.190  13.154  0.00  0.00    +0.000 A 
ATOM      2  C   UNL     1      47.132   5.136  14.076  0.00  0.00    +0.000 A 
ATOM      3  C   UNL     1      46.252   4.050  14.012  0.00  0.00    +0.000 A 
ATOM      4  C   UNL     1      45.274   3.996  13.021  0.00  0.00    +0.000 A 
ATOM      5  C   UNL     1      45.151   5.044  12.106  0.00  0.00    +0.000 A 
ATOM      6  C   UNL     1      46.063   6.113  12.178  0.00  0.00    +0.000 A 
ENDROOT
BRANCH   1  10
ATOM      7  C   UNL     1      46.478   9.765  11.938  0.00  0.00    +0.000 C 
ATOM      8  C   UNL     1      47.681   9.721  12.885  0.00  0.00    +0.000 C 
ATOM      9  C   UNL     1      47.599   8.528  13.876  0.00  0.00    +0.000 C 
ATOM     10  N   UNL     1      47.939   7.258  13.220  0.00  0.00    +0.000 N 
ATOM     11  C   UNL     1      49.222   7.266  12.510  0.00  0.00    +0.000 C 
ATOM     12  C   UNL     1      49.285   8.466  11.535  0.00  0.00    +0.000 C 
ATOM     13  N   UNL     1      48.963   9.773  12.142  0.00  0.00    +0.000 NA
ATOM     14  H   UNL     1      48.896  10.473  11.404  0.00  0.00    +0.000 HD
ENDBRANCH   1  10
BRANCH   5  15
ATOM     15  C   UNL     1      44.039   5.074  11.084  0.00  0.00    +0.000 C 
BRANCH  15  16
ATOM     16  N   UNL     1      44.557   5.379   9.751  0.00  0.00    +0.000 N 
ATOM     17  C   UNL     1      45.131   4.264   9.114  0.00  0.00    +0.000 A 
ATOM     18  C   UNL     1      45.669   4.412   7.837  0.00  0.00    +0.000 A 
ATOM     19  C   UNL     1      46.274   3.317   7.212  0.00  0.00    +0.000 A 
ATOM     20  C   UNL     1      46.334   2.089   7.874  0.00  0.00    +0.000 A 
ATOM     21  C   UNL     1      45.763   2.031   9.133  0.00  0.00    +0.000 A 
ATOM     22  N   UNL     1      45.161   3.076   9.751  0.00  0.00    +0.000 NA
ATOM     23  H   UNL     1      45.257   6.113   9.796  0.00  0.00    +0.000 HD
BRANCH  20  24
ATOM     24  C   UNL     1      47.001   0.938   7.229  0.00  0.00    +0.000 C 
ATOM     25  N   UNL     1      46.653  -0.335   7.597  0.00  0.00    +0.000 N 
ATOM     26  O   UNL     1      47.869   1.108   6.378  0.00  0.00    +0.000 OA
ATOM     27  H   UNL     1      45.956  -0.592   8.277  0.00  0.00    +0.000 HD
ATOM     28  H   UNL     1      47.141  -1.083   7.128  0.00  0.00    +0.000 HD
ENDBRANCH  20  24
ENDBRANCH  15  16
ENDBRANCH   5  15
TORSDOF 4
ENDMDL
MODEL 6
REMARK VINA RESULT:    -7.054      5.000      8.778
REMARK INTER + INTRA:          -9.078
REMARK INTER:                  -8.469
REMARK INTRA:                  -0.610
REMARK UNBOUND:                -0.375
REMARK  Name = 
REMARK  5 active torsions:
REMARK  status: ('A' for Active; 'I' for Inactive)
REMARK    1  A    between atoms: C_1  and  C_2
REMARK    2  A    between atoms: N_4  and  C_5
REMARK    3  A    between atoms: C_9  and  C_10
REMARK    4  A    between atoms: C_10  and  N_11
REMARK    5  A    between atoms: C_15  and  C_16
REMARK                            x       y       z     vdW  Elec       q    Type
REMARK                         _______ _______ _______ _____ _____    ______ ____
ROOT
ATOM      1  C   UNL     1      46.198   5.647  12.650  0.00  0.00    +0.000 A 
ATOM      2  C   UNL     1      46.506   6.389  11.501  0.00  0.00    +0.000 A 
ATOM      3  C   UNL     1      47.605   7.254  11.457  0.00  0.00    +0.000 A 
ATOM      4  C   UNL     1      48.425   7.404  12.574  0.00  0.00    +0.000 A 
ATOM      5  C   UNL     1      48.132   6.713  13.752  0.00  0.00    +0.000 A 
ATOM      6  C   UNL     1      47.034   5.833  13.762  0.00  0.00    +0.000 A 
ENDROOT
BRANCH   1  10
ATOM      7  C   UNL     1      44.672   3.674   9.754  0.00  0.00    +0.000 C 
ATOM      8  C   UNL     1      44.177   3.116  11.093  0.00  0.00    +0.000 C 
ATOM      9  C   UNL     1      45.179   3.396  12.246  0.00  0.00    +0.000 C 
ATOM     10  N   UNL     1      45.114   4.796  12.688  0.00  0.00    +0.000 N 
ATOM     11  C   UNL     1      43.766   5.261  13.035  0.00  0.00    +0.000 C 
ATOM     12  C   UNL     1      42.785   4.964  11.877  0.00  0.00    +0.000 C 
ATOM     13  N   UNL     1      42.799   3.568  11.396  0.00  0.00    +0.000 NA
ATOM     14  H   UNL     1      42.229   3.503  10.554  0.00  0.00    +0.000 HD
ENDBRANCH   1  10
BRANCH   5  15
ATOM     15  C   UNL     1      48.933   6.929  15.015  0.00  0.00    +0.000 C 
BRANCH  15  16
ATOM     16  N   UNL     1      48.414   6.114  16.112  0.00  0.00    +0.000 N 
ATOM     17  C   UNL     1      49.428   5.548  16.905  0.00  0.00    +0.000 A 
ATOM     18  C   UNL     1      49.076   4.742  17.987  0.00  0.00    +0.000 A 
ATOM     19  C   UNL     1      50.079   4.146  18.758  0.00  0.00    +0.000 A 
ATOM     20  C   UNL     1      51.420   4.363  18.436  0.00  0.00    +0.000 A 
ATOM     21  C   UNL     1      51.677   5.186  17.354  0.00  0.00    +0.000 A 
ATOM     22  N   UNL     1      50.720   5.783  16.602  0.00  0.00    +0.000 NA
ATOM     23  H   UNL     1      47.832   5.361  15.757  0.00  0.00    +0.000 HD
BRANCH  20  24
ATOM     24  C   UNL     1      52.482   3.708  19.230  0.00  0.00    +0.000 C 
ATOM     25  N   UNL     1      52.894   2.447  18.891  0.00  0.00    +0.000 N 
ATOM     26  O   UNL     1      52.990   4.275  20.192  0.00  0.00    +0.000 OA
ATOM     27  H   UNL     1      52.553   1.890  18.124  0.00  0.00    +0.000 HD
ATOM     28  H   UNL     1      53.619   2.045  19.468  0.00  0.00    +0.000 HD
ENDBRANCH  20  24
ENDBRANCH  15  16
ENDBRANCH   5  15
TORSDOF 4
ENDMDL
MODEL 7
REMARK VINA RESULT:    -7.054      4.662      8.693
REMARK INTER + INTRA:          -9.078
REMARK INTER:                  -8.401
REMARK INTRA:                  -0.677
REMARK UNBOUND:                -0.375
REMARK  Name = 
REMARK  5 active torsions:
REMARK  status: ('A' for Active; 'I' for Inactive)
REMARK    1  A    between atoms: C_1  and  C_2
REMARK    2  A    between atoms: N_4  and  C_5
REMARK    3  A    between atoms: C_9  and  C_10
REMARK    4  A    between atoms: C_10  and  N_11
REMARK    5  A    between atoms: C_15  and  C_16
REMARK                            x       y       z     vdW  Elec       q    Type
REMARK                         _______ _______ _______ _____ _____    ______ ____
ROOT
ATOM      1  C   UNL     1      45.571   6.314  12.881  0.00  0.00    +0.000 A 
ATOM      2  C   UNL     1      45.137   7.608  12.564  0.00  0.00    +0.000 A 
ATOM      3  C   UNL     1      45.985   8.716  12.672  0.00  0.00    +0.000 A 
ATOM      4  C   UNL     1      47.297   8.555  13.112  0.00  0.00    +0.000 A 
ATOM      5  C   UNL     1      47.760   7.288  13.476  0.00  0.00    +0.000 A 
ATOM      6  C   UNL     1      46.893   6.188  13.336  0.00  0.00    +0.000 A 
ENDROOT
BRANCH   1  10
ATOM      7  C   UNL     1      44.842   4.227   9.763  0.00  0.00    +0.000 C 
ATOM      8  C   UNL     1      44.384   3.479  11.019  0.00  0.00    +0.000 C 
ATOM      9  C   UNL     1      45.180   3.915  12.279  0.00  0.00    +0.000 C 
ATOM     10  N   UNL     1      44.732   5.225  12.772  0.00  0.00    +0.000 N 
ATOM     11  C   UNL     1      43.286   5.327  12.999  0.00  0.00    +0.000 C 
ATOM     12  C   UNL     1      42.515   4.880  11.735  0.00  0.00    +0.000 C 
ATOM     13  N   UNL     1      42.915   3.564  11.199  0.00  0.00    +0.000 NA
ATOM     14  H   UNL     1      42.457   3.419  10.300  0.00  0.00    +0.000 HD
ENDBRANCH   1  10
BRANCH   5  15
ATOM     15  C   UNL     1      49.140   7.087  14.058  0.00  0.00    +0.000 C 
BRANCH  15  16
ATOM     16  N   UNL     1      49.276   7.779  15.338  0.00  0.00    +0.000 N 
ATOM     17  C   UNL     1      49.187   6.914  16.444  0.00  0.00    +0.000 A 
ATOM     18  C   UNL     1      49.297   7.440  17.731  0.00  0.00    +0.000 A 
ATOM     19  C   UNL     1      49.172   6.593  18.835  0.00  0.00    +0.000 A 
ATOM     20  C   UNL     1      48.939   5.230  18.640  0.00  0.00    +0.000 A 
ATOM     21  C   UNL     1      48.857   4.794  17.329  0.00  0.00    +0.000 A 
ATOM     22  N   UNL     1      48.987   5.596  16.244  0.00  0.00    +0.000 NA
ATOM     23  H   UNL     1      48.564   8.495  15.438  0.00  0.00    +0.000 HD
BRANCH  20  24
ATOM     24  C   UNL     1      48.775   4.337  19.807  0.00  0.00    +0.000 C 
ATOM     25  N   UNL     1      48.355   3.048  19.613  0.00  0.00    +0.000 N 
ATOM     26  O   UNL     1      49.001   4.738  20.944  0.00  0.00    +0.000 OA
ATOM     27  H   UNL     1      48.145   2.612  18.729  0.00  0.00    +0.000 HD
ATOM     28  H   UNL     1      48.256   2.483  20.443  0.00  0.00    +0.000 HD
ENDBRANCH  20  24
ENDBRANCH  15  16
ENDBRANCH   5  15
TORSDOF 4
ENDMDL
MODEL 8
REMARK VINA RESULT:    -6.795      4.158      6.495
REMARK INTER + INTRA:          -8.758
REMARK INTER:                  -8.008
REMARK INTRA:                  -0.750
REMARK UNBOUND:                -0.375
REMARK  Name = 
REMARK  5 active torsions:
REMARK  status: ('A' for Active; 'I' for Inactive)
REMARK    1  A    between atoms: C_1  and  C_2
REMARK    2  A    between atoms: N_4  and  C_5
REMARK    3  A    between atoms: C_9  and  C_10
REMARK    4  A    between atoms: C_10  and  N_11
REMARK    5  A    between atoms: C_15  and  C_16
REMARK                            x       y       z     vdW  Elec       q    Type
REMARK                         _______ _______ _______ _____ _____    ______ ____
ROOT
ATOM      1  C   UNL     1      49.048   6.753  17.174  0.00  0.00    +0.000 A 
ATOM      2  C   UNL     1      48.826   8.062  17.625  0.00  0.00    +0.000 A 
ATOM      3  C   UNL     1      48.493   9.097  16.744  0.00  0.00    +0.000 A 
ATOM      4  C   UNL     1      48.382   8.847  15.378  0.00  0.00    +0.000 A 
ATOM      5  C   UNL     1      48.633   7.566  14.881  0.00  0.00    +0.000 A 
ATOM      6  C   UNL     1      48.944   6.539  15.791  0.00  0.00    +0.000 A 
ENDROOT
BRANCH   1  10
ATOM      7  C   UNL     1      47.367   3.338  17.517  0.00  0.00    +0.000 C 
ATOM      8  C   UNL     1      48.734   3.327  18.210  0.00  0.00    +0.000 C 
ATOM      9  C   UNL     1      49.704   4.375  17.601  0.00  0.00    +0.000 C 
ATOM     10  N   UNL     1      49.375   5.736  18.045  0.00  0.00    +0.000 N 
ATOM     11  C   UNL     1      49.276   5.892  19.501  0.00  0.00    +0.000 C 
ATOM     12  C   UNL     1      48.311   4.833  20.086  0.00  0.00    +0.000 C 
ATOM     13  N   UNL     1      48.599   3.443  19.681  0.00  0.00    +0.000 NA
ATOM     14  H   UNL     1      47.840   2.842  19.999  0.00  0.00    +0.000 HD
ENDBRANCH   1  10
BRANCH   5  15
ATOM     15  C   UNL     1      48.627   7.279  13.397  0.00  0.00    +0.000 C 
BRANCH  15  16
ATOM     16  N   UNL     1      47.378   7.723  12.781  0.00  0.00    +0.000 N 
ATOM     17  C   UNL     1      46.450   6.682  12.602  0.00  0.00    +0.000 A 
ATOM     18  C   UNL     1      45.214   6.963  12.021  0.00  0.00    +0.000 A 
ATOM     19  C   UNL     1      44.302   5.926  11.805  0.00  0.00    +0.000 A 
ATOM     20  C   UNL     1      44.637   4.622  12.173  0.00  0.00    +0.000 A 
ATOM     21  C   UNL     1      45.879   4.437  12.754  0.00  0.00    +0.000 A 
ATOM     22  N   UNL     1      46.773   5.430  12.983  0.00  0.00    +0.000 NA
ATOM     23  H   UNL     1      47.554   8.150  11.877  0.00  0.00    +0.000 HD
BRANCH  20  24
ATOM     24  C   UNL     1      43.686   3.518  11.917  0.00  0.00    +0.000 C 
ATOM     25  N   UNL     1      43.836   2.333  12.587  0.00  0.00    +0.000 N 
ATOM     26  O   UNL     1      42.774   3.647  11.107  0.00  0.00    +0.000 OA
ATOM     27  H   UNL     1      44.541   2.116  13.273  0.00  0.00    +0.000 HD
ATOM     28  H   UNL     1      43.162   1.613  12.372  0.00  0.00    +0.000 HD
ENDBRANCH  20  24
ENDBRANCH  15  16
ENDBRANCH   5  15
TORSDOF 4
ENDMDL
MODEL 9
REMARK VINA RESULT:    -6.524      4.857      6.411
REMARK INTER + INTRA:          -8.424
REMARK INTER:                  -7.844
REMARK INTRA:                  -0.580
REMARK UNBOUND:                -0.375
REMARK  Name = 
REMARK  5 active torsions:
REMARK  status: ('A' for Active; 'I' for Inactive)
REMARK    1  A    between atoms: C_1  and  C_2
REMARK    2  A    between atoms: N_4  and  C_5
REMARK    3  A    between atoms: C_9  and  C_10
REMARK    4  A    between atoms: C_10  and  N_11
REMARK    5  A    between atoms: C_15  and  C_16
REMARK                            x       y       z     vdW  Elec       q    Type
REMARK                         _______ _______ _______ _____ _____    ______ ____
ROOT
ATOM      1  C   UNL     1      49.872   4.749  18.330  0.00  0.00    +0.000 A 
ATOM      2  C   UNL     1      50.582   3.543  18.246  0.00  0.00    +0.000 A 
ATOM      3  C   UNL     1      50.173   2.506  17.401  0.00  0.00    +0.000 A 
ATOM      4  C   UNL     1      49.029   2.647  16.619  0.00  0.00    +0.000 A 
ATOM      5  C   UNL     1      48.269   3.817  16.701  0.00  0.00    +0.000 A 
ATOM      6  C   UNL     1      48.716   4.853  17.542  0.00  0.00    +0.000 A 
ENDROOT
BRANCH   1  10
ATOM      7  C   UNL     1      47.745   6.732  20.810  0.00  0.00    +0.000 C 
ATOM      8  C   UNL     1      49.233   6.931  21.113  0.00  0.00    +0.000 C 
ATOM      9  C   UNL     1      50.092   5.734  20.621  0.00  0.00    +0.000 C 
ATOM     10  N   UNL     1      50.280   5.768  19.164  0.00  0.00    +0.000 N 
ATOM     11  C   UNL     1      50.800   7.039  18.648  0.00  0.00    +0.000 C 
ATOM     12  C   UNL     1      49.934   8.216  19.157  0.00  0.00    +0.000 C 
ATOM     13  N   UNL     1      49.720   8.240  20.618  0.00  0.00    +0.000 NA
ATOM     14  H   UNL     1      49.035   8.961  20.840  0.00  0.00    +0.000 HD
ENDBRANCH   1  10
BRANCH   5  15
ATOM     15  C   UNL     1      46.967   3.968  15.950  0.00  0.00    +0.000 C 
BRANCH  15  16
ATOM     16  N   UNL     1      47.011   5.115  15.045  0.00  0.00    +0.000 N 
ATOM     17  C   UNL     1      46.382   4.869  13.811  0.00  0.00    +0.000 A 
ATOM     18  C   UNL     1      46.353   5.878  12.849  0.00  0.00    +0.000 A 
ATOM     19  C   UNL     1      45.762   5.628  11.607  0.00  0.00    +0.000 A 
ATOM     20  C   UNL     1      45.209   4.374  11.343  0.00  0.00    +0.000 A 
ATOM     21  C   UNL     1      45.273   3.438  12.360  0.00  0.00    +0.000 A 
ATOM     22  N   UNL     1      45.829   3.663  13.575  0.00  0.00    +0.000 NA
ATOM     23  H   UNL     1      47.970   5.392  14.862  0.00  0.00    +0.000 HD
BRANCH  20  24
ATOM     24  C   UNL     1      44.612   4.097  10.018  0.00  0.00    +0.000 C 
ATOM     25  N   UNL     1      45.090   4.753   8.915  0.00  0.00    +0.000 N 
ATOM     26  O   UNL     1      43.690   3.297   9.897  0.00  0.00    +0.000 OA
ATOM     27  H   UNL     1      45.842   5.424   8.895  0.00  0.00    +0.000 HD
ATOM     28  H   UNL     1      44.646   4.529   8.037  0.00  0.00    +0.000 HD
ENDBRANCH  20  24
ENDBRANCH  15  16
ENDBRANCH   5  15
TORSDOF 4
ENDMDL
