MODEL 1
REMARK VINA RESULT:    -6.710      0.000      0.000
REMARK INTER + INTRA:         -10.216
REMARK INTER:                  -9.259
REMARK INTRA:                  -0.957
REMARK UNBOUND:                -0.957
REMARK  Name = 
REMARK  9 active torsions:
REMARK  status: ('A' for Active; 'I' for Inactive)
REMARK    1  A    between atoms: C_1  and  O_2
REMARK    2  A    between atoms: O_2  and  C_3
REMARK    3  A    between atoms: C_7  and  C_8
REMARK    4  A    between atoms: C_8  and  C_9
REMARK    5  A    between atoms: C_9  and  C_10
REMARK    6  A    between atoms: C_10  and  C_11
REMARK    7  A    between atoms: C_14  and  C_15
REMARK    8  A    between atoms: C_16  and  C_17
REMARK    9  A    between atoms: C_17  and  N_18
REMARK                            x       y       z     vdW  Elec       q    Type
REMARK                         _______ _______ _______ _____ _____    ______ ____
ROOT
ATOM      1  C   UNL     1      43.414   4.176  12.618  0.00  0.00    +0.000 C 
ENDROOT
BRANCH   1   2
ATOM      2  C   UNL     1      44.701   4.869  12.984  0.00  0.00    +0.000 A 
ATOM      3  C   UNL     1      45.096   6.023  12.321  0.00  0.00    +0.000 A 
ATOM      4  C   UNL     1      46.325   6.586  12.639  0.00  0.00    +0.000 A 
ATOM      5  C   UNL     1      47.138   5.998  13.615  0.00  0.00    +0.000 A 
ATOM      6  C   UNL     1      48.471   6.608  13.931  0.00  0.00    +0.000 C 
ATOM      7  C   UNL     1      46.666   4.838  14.245  0.00  0.00    +0.000 A 
ATOM      8  N   UNL     1      45.466   4.276  13.929  0.00  0.00    +0.000 NA
BRANCH   7   9
ATOM      9  C   UNL     1      47.436   4.137  15.349  0.00  0.00    +0.000 C 
BRANCH   9  10
ATOM     10  N   UNL     1      46.623   3.775  16.515  0.00  0.00    +0.000 NA
ATOM     11  H   UNL     1      45.679   3.572  16.181  0.00  0.00    +0.000 HD
ATOM     12  H   UNL     1      46.539   4.594  17.113  0.00  0.00    +0.000 HD
ENDBRANCH   9  10
ENDBRANCH   7   9
ENDBRANCH   1   2
BRANCH   1  13
ATOM     13  C   UNL     1      43.317   4.019  11.101  0.00  0.00    +0.000 C 
BRANCH  13  14
ATOM     14  C   UNL     1      44.006   2.746  10.612  0.00  0.00    +0.000 C 
BRANCH  14  19
ATOM     15  C   UNL     1      46.418   2.306   7.684  0.00  0.00    +0.000 A 
ATOM     16  C   UNL     1      46.663   3.634   7.332  0.00  0.00    +0.000 A 
ATOM     17  C   UNL     1      46.065   4.670   8.054  0.00  0.00    +0.000 A 
ATOM     18  C   UNL     1      45.219   4.387   9.125  0.00  0.00    +0.000 A 
ATOM     19  C   UNL     1      44.969   3.062   9.494  0.00  0.00    +0.000 A 
ATOM     20  C   UNL     1      45.575   2.028   8.765  0.00  0.00    +0.000 A 
BRANCH  15  22
ATOM     21  C   UNL     1      46.706  -0.054   7.691  0.00  0.00    +0.000 C 
ATOM     22  O   UNL     1      46.926   1.201   7.057  0.00  0.00    +0.000 OA
ENDBRANCH  15  22
ENDBRANCH  14  19
ENDBRANCH  13  14
ENDBRANCH   1  13
TORSDOF 7
ENDMDL
MODEL 2
REMARK VINA RESULT:    -6.560      1.750      2.570
REMARK INTER + INTRA:         -10.009
REMARK INTER:                  -9.154
REMARK INTRA:                  -0.855
REMARK UNBOUND:                -0.957
REMARK  Name = 
REMARK  9 active torsions:
REMARK  status: ('A' for Active; 'I' for Inactive)
REMARK    1  A    between atoms: C_1  and  O_2
REMARK    2  A    between atoms: O_2  and  C_3
REMARK    3  A    between atoms: C_7  and  C_8
REMARK    4  A    between atoms: C_8  and  C_9
REMARK    5  A    between atoms: C_9  and  C_10
REMARK    6  A    between atoms: C_10  and  C_11
REMARK    7  A    between atoms: C_14  and  C_15
REMARK    8  A    between atoms: C_16  and  C_17
REMARK    9  A    between atoms: C_17  and  N_18
REMARK                            x       y       z     vdW  Elec       q    Type
REMARK                         _______ _______ _______ _____ _____    ______ ____
ROOT
ATOM      1  C   UNL     1      43.671   4.641  13.105  0.00  0.00    +0.000 C 
ENDROOT
BRANCH   1   2
ATOM      2  C   UNL     1      44.952   5.429  13.017  0.00  0.00    +0.000 A 
ATOM      3  C   UNL     1      46.166   4.847  13.351  0.00  0.00    +0.000 A 
ATOM      4  C   UNL     1      47.311   5.633  13.326  0.00  0.00    +0.000 A 
ATOM      5  C   UNL     1      47.232   6.982  12.963  0.00  0.00    +0.000 A 
ATOM      6  C   UNL     1      48.476   7.820  12.963  0.00  0.00    +0.000 C 
ATOM      7  C   UNL     1      45.971   7.496  12.633  0.00  0.00    +0.000 A 
ATOM      8  N   UNL     1      44.843   6.732  12.665  0.00  0.00    +0.000 NA
BRANCH   7   9
ATOM      9  C   UNL     1      45.765   8.929  12.181  0.00  0.00    +0.000 C 
BRANCH   9  10
ATOM     10  N   UNL     1      44.589   9.584  12.764  0.00  0.00    +0.000 NA
ATOM     11  H   UNL     1      43.977   8.850  13.127  0.00  0.00    +0.000 HD
ATOM     12  H   UNL     1      44.070  10.036  12.014  0.00  0.00    +0.000 HD
ENDBRANCH   9  10
ENDBRANCH   7   9
ENDBRANCH   1   2
BRANCH   1  13
ATOM     13  C   UNL     1      43.917   3.193  12.681  0.00  0.00    +0.000 C 
BRANCH  13  14
ATOM     14  C   UNL     1      43.217   2.856  11.366  0.00  0.00    +0.000 C 
BRANCH  14  19
ATOM     15  C   UNL     1      45.684   2.072   8.558  0.00  0.00    +0.000 A 
ATOM     16  C   UNL     1      45.823   3.326   7.962  0.00  0.00    +0.000 A 
ATOM     17  C   UNL     1      45.136   4.426   8.480  0.00  0.00    +0.000 A 
ATOM     18  C   UNL     1      44.307   4.282   9.590  0.00  0.00    +0.000 A 
ATOM     19  C   UNL     1      44.161   3.033  10.202  0.00  0.00    +0.000 A 
ATOM     20  C   UNL     1      44.856   1.934   9.677  0.00  0.00    +0.000 A 
BRANCH  15  22
ATOM     21  C   UNL     1      47.344   1.042   7.204  0.00  0.00    +0.000 C 
ATOM     22  O   UNL     1      46.286   0.914   8.147  0.00  0.00    +0.000 OA
ENDBRANCH  15  22
ENDBRANCH  14  19
ENDBRANCH  13  14
ENDBRANCH   1  13
TORSDOF 7
ENDMDL
MODEL 3
REMARK VINA RESULT:    -6.429      1.127      1.418
REMARK INTER + INTRA:          -9.828
REMARK INTER:                  -9.102
REMARK INTRA:                  -0.726
REMARK UNBOUND:                -0.957
REMARK  Name = 
REMARK  9 active torsions:
REMARK  status: ('A' for Active; 'I' for Inactive)
REMARK    1  A    between atoms: C_1  and  O_2
REMARK    2  A    between atoms: O_2  and  C_3
REMARK    3  A    between atoms: C_7  and  C_8
REMARK    4  A    between atoms: C_8  and  C_9
REMARK    5  A    between atoms: C_9  and  C_10
REMARK    6  A    between atoms: C_10  and  C_11
REMARK    7  A    between atoms: C_14  and  C_15
REMARK    8  A    between atoms: C_16  and  C_17
REMARK    9  A    between atoms: C_17  and  N_18
REMARK                            x       y       z     vdW  Elec       q    Type
REMARK                         _______ _______ _______ _____ _____    ______ ____
ROOT
ATOM      1  C   UNL     1      45.541   3.230  12.759  0.00  0.00    +0.000 C 
ENDROOT
BRANCH   1   2
ATOM      2  C   UNL     1      46.352   4.209  13.568  0.00  0.00    +0.000 A 
ATOM      3  C   UNL     1      46.839   5.372  12.989  0.00  0.00    +0.000 A 
ATOM      4  C   UNL     1      47.645   6.209  13.751  0.00  0.00    +0.000 A 
ATOM      5  C   UNL     1      47.947   5.879  15.077  0.00  0.00    +0.000 A 
ATOM      6  C   UNL     1      48.835   6.785  15.878  0.00  0.00    +0.000 C 
ATOM      7  C   UNL     1      47.412   4.691  15.592  0.00  0.00    +0.000 A 
ATOM      8  N   UNL     1      46.630   3.862  14.846  0.00  0.00    +0.000 NA
BRANCH   7   9
ATOM      9  C   UNL     1      47.631   4.251  17.028  0.00  0.00    +0.000 C 
BRANCH   9  10
ATOM     10  N   UNL     1      46.711   3.204  17.486  0.00  0.00    +0.000 NA
ATOM     11  H   UNL     1      46.649   2.504  16.744  0.00  0.00    +0.000 HD
ATOM     12  H   UNL     1      45.781   3.608  17.568  0.00  0.00    +0.000 HD
ENDBRANCH   9  10
ENDBRANCH   7   9
ENDBRANCH   1   2
BRANCH   1  13
ATOM     13  C   UNL     1      44.202   3.855  12.369  0.00  0.00    +0.000 C 
BRANCH  13  14
ATOM     14  C   UNL     1      43.624   3.224  11.103  0.00  0.00    +0.000 C 
BRANCH  14  19
ATOM     15  C   UNL     1      45.990   2.229   8.275  0.00  0.00    +0.000 A 
ATOM     16  C   UNL     1      46.350   3.479   7.770  0.00  0.00    +0.000 A 
ATOM     17  C   UNL     1      45.844   4.642   8.357  0.00  0.00    +0.000 A 
ATOM     18  C   UNL     1      44.977   4.564   9.445  0.00  0.00    +0.000 A 
ATOM     19  C   UNL     1      44.612   3.319   9.966  0.00  0.00    +0.000 A 
ATOM     20  C   UNL     1      45.125   2.157   9.372  0.00  0.00    +0.000 A 
BRANCH  15  22
ATOM     21  C   UNL     1      47.420   1.036   6.798  0.00  0.00    +0.000 C 
ATOM     22  O   UNL     1      46.399   1.017   7.789  0.00  0.00    +0.000 OA
ENDBRANCH  15  22
ENDBRANCH  14  19
ENDBRANCH  13  14
ENDBRANCH   1  13
TORSDOF 7
ENDMDL
MODEL 4
REMARK VINA RESULT:    -6.092      1.662      2.971
REMARK INTER + INTRA:          -9.363
REMARK INTER:                  -8.932
REMARK INTRA:                  -0.431
REMARK UNBOUND:                -0.957
REMARK  Name = 
REMARK  9 active torsions:
REMARK  status: ('A' for Active; 'I' for Inactive)
REMARK    1  A    between atoms: C_1  and  O_2
REMARK    2  A    between atoms: O_2  and  C_3
REMARK    3  A    between atoms: C_7  and  C_8
REMARK    4  A    between atoms: C_8  and  C_9
REMARK    5  A    between atoms: C_9  and  C_10
REMARK    6  A    between atoms: C_10  and  C_11
REMARK    7  A    between atoms: C_14  and  C_15
REMARK    8  A    between atoms: C_16  and  C_17
REMARK    9  A    between atoms: C_17  and  N_18
REMARK                            x       y       z     vdW  Elec       q    Type
REMARK                         _______ _______ _______ _____ _____    ______ ____
ROOT
ATOM      1  C   UNL     1      46.428   4.570  13.242  0.00  0.00    +0.000 C 
ENDROOT
BRANCH   1   2
ATOM      2  C   UNL     1      47.206   5.052  14.438  0.00  0.00    +0.000 A 
ATOM      3  C   UNL     1      47.975   6.206  14.364  0.00  0.00    +0.000 A 
ATOM      4  C   UNL     1      48.735   6.572  15.468  0.00  0.00    +0.000 A 
ATOM      5  C   UNL     1      48.713   5.790  16.629  0.00  0.00    +0.000 A 
ATOM      6  C   UNL     1      49.556   6.190  17.803  0.00  0.00    +0.000 C 
ATOM      7  C   UNL     1      47.907   4.644  16.628  0.00  0.00    +0.000 A 
ATOM      8  N   UNL     1      47.168   4.275  15.545  0.00  0.00    +0.000 NA
BRANCH   7   9
ATOM      9  C   UNL     1      47.766   3.744  17.842  0.00  0.00    +0.000 C 
BRANCH   9  10
ATOM     10  N   UNL     1      46.648   2.797  17.766  0.00  0.00    +0.000 NA
ATOM     11  H   UNL     1      45.863   3.284  17.327  0.00  0.00    +0.000 HD
ATOM     12  H   UNL     1      46.348   2.580  18.714  0.00  0.00    +0.000 HD
ENDBRANCH   9  10
ENDBRANCH   7   9
ENDBRANCH   1   2
BRANCH   1  13
ATOM     13  C   UNL     1      45.243   5.498  12.979  0.00  0.00    +0.000 C 
BRANCH  13  14
ATOM     14  C   UNL     1      45.267   6.070  11.563  0.00  0.00    +0.000 C 
BRANCH  14  19
ATOM     15  C   UNL     1      45.538   3.989   8.372  0.00  0.00    +0.000 A 
ATOM     16  C   UNL     1      44.746   2.887   8.698  0.00  0.00    +0.000 A 
ATOM     17  C   UNL     1      44.109   2.828   9.940  0.00  0.00    +0.000 A 
ATOM     18  C   UNL     1      44.261   3.862  10.861  0.00  0.00    +0.000 A 
ATOM     19  C   UNL     1      45.046   4.975  10.547  0.00  0.00    +0.000 A 
ATOM     20  C   UNL     1      45.681   5.027   9.297  0.00  0.00    +0.000 A 
BRANCH  15  22
ATOM     21  C   UNL     1      47.081   3.106   6.793  0.00  0.00    +0.000 C 
ATOM     22  O   UNL     1      46.225   4.167   7.202  0.00  0.00    +0.000 OA
ENDBRANCH  15  22
ENDBRANCH  14  19
ENDBRANCH  13  14
ENDBRANCH   1  13
TORSDOF 7
ENDMDL
MODEL 5
REMARK VINA RESULT:    -5.795      1.607      2.154
REMARK INTER + INTRA:          -8.953
REMARK INTER:                  -8.114
REMARK INTRA:                  -0.839
REMARK UNBOUND:                -0.957
REMARK  Name = 
REMARK  9 active torsions:
REMARK  status: ('A' for Active; 'I' for Inactive)
REMARK    1  A    between atoms: C_1  and  O_2
REMARK    2  A    between atoms: O_2  and  C_3
REMARK    3  A    between atoms: C_7  and  C_8
REMARK    4  A    between atoms: C_8  and  C_9
REMARK    5  A    between atoms: C_9  and  C_10
REMARK    6  A    between atoms: C_10  and  C_11
REMARK    7  A    between atoms: C_14  and  C_15
REMARK    8  A    between atoms: C_16  and  C_17
REMARK    9  A    between atoms: C_17  and  N_18
REMARK                            x       y       z     vdW  Elec       q    Type
REMARK                         _______ _______ _______ _____ _____    ______ ____
ROOT
ATOM      1  C   UNL     1      46.024   4.330  13.112  0.00  0.00    +0.000 C 
ENDROOT
BRANCH   1   2
ATOM      2  C   UNL     1      46.940   5.524  13.182  0.00  0.00    +0.000 A 
ATOM      3  C   UNL     1      47.088   6.367  12.089  0.00  0.00    +0.000 A 
ATOM      4  C   UNL     1      48.000   7.412  12.172  0.00  0.00    +0.000 A 
ATOM      5  C   UNL     1      48.744   7.606  13.341  0.00  0.00    +0.000 A 
ATOM      6  C   UNL     1      49.738   8.727  13.405  0.00  0.00    +0.000 C 
ATOM      7  C   UNL     1      48.533   6.717  14.404  0.00  0.00    +0.000 A 
ATOM      8  N   UNL     1      47.648   5.685  14.324  0.00  0.00    +0.000 NA
BRANCH   7   9
ATOM      9  C   UNL     1      49.246   6.853  15.736  0.00  0.00    +0.000 C 
BRANCH   9  10
ATOM     10  N   UNL     1      48.415   7.404  16.813  0.00  0.00    +0.000 NA
ATOM     11  H   UNL     1      48.871   7.175  17.699  0.00  0.00    +0.000 HD
ATOM     12  H   UNL     1      47.528   6.906  16.818  0.00  0.00    +0.000 HD
ENDBRANCH   9  10
ENDBRANCH   7   9
ENDBRANCH   1   2
BRANCH   1  13
ATOM     13  C   UNL     1      44.608   4.777  12.749  0.00  0.00    +0.000 C 
BRANCH  13  14
ATOM     14  C   UNL     1      43.896   3.755  11.864  0.00  0.00    +0.000 C 
BRANCH  14  19
ATOM     15  C   UNL     1      45.510   2.208   8.768  0.00  0.00    +0.000 A 
ATOM     16  C   UNL     1      45.803   3.348   8.017  0.00  0.00    +0.000 A 
ATOM     17  C   UNL     1      45.497   4.614   8.520  0.00  0.00    +0.000 A 
ATOM     18  C   UNL     1      44.897   4.751   9.771  0.00  0.00    +0.000 A 
ATOM     19  C   UNL     1      44.603   3.620  10.538  0.00  0.00    +0.000 A 
ATOM     20  C   UNL     1      44.915   2.352  10.025  0.00  0.00    +0.000 A 
BRANCH  15  22
ATOM     21  C   UNL     1      46.901   0.677   7.597  0.00  0.00    +0.000 C 
ATOM     22  O   UNL     1      45.744   0.914   8.390  0.00  0.00    +0.000 OA
ENDBRANCH  15  22
ENDBRANCH  14  19
ENDBRANCH  13  14
ENDBRANCH   1  13
TORSDOF 7
ENDMDL
MODEL 6
REMARK VINA RESULT:    -5.732      1.817      3.933
REMARK INTER + INTRA:          -8.866
REMARK INTER:                  -8.200
REMARK INTRA:                  -0.666
REMARK UNBOUND:                -0.957
REMARK  Name = 
REMARK  9 active torsions:
REMARK  status: ('A' for Active; 'I' for Inactive)
REMARK    1  A    between atoms: C_1  and  O_2
REMARK    2  A    between atoms: O_2  and  C_3
REMARK    3  A    between atoms: C_7  and  C_8
REMARK    4  A    between atoms: C_8  and  C_9
REMARK    5  A    between atoms: C_9  and  C_10
REMARK    6  A    between atoms: C_10  and  C_11
REMARK    7  A    between atoms: C_14  and  C_15
REMARK    8  A    between atoms: C_16  and  C_17
REMARK    9  A    between atoms: C_17  and  N_18
REMARK                            x       y       z     vdW  Elec       q    Type
REMARK                         _______ _______ _______ _____ _____    ______ ____
ROOT
ATOM      1  C   UNL     1      47.634   6.343  13.042  0.00  0.00    +0.000 C 
ENDROOT
BRANCH   1   2
ATOM      2  C   UNL     1      48.020   6.151  14.485  0.00  0.00    +0.000 A 
ATOM      3  C   UNL     1      48.642   7.171  15.192  0.00  0.00    +0.000 A 
ATOM      4  C   UNL     1      49.048   6.925  16.498  0.00  0.00    +0.000 A 
ATOM      5  C   UNL     1      48.824   5.673  17.081  0.00  0.00    +0.000 A 
ATOM      6  C   UNL     1      49.288   5.419  18.485  0.00  0.00    +0.000 C 
ATOM      7  C   UNL     1      48.185   4.697  16.305  0.00  0.00    +0.000 A 
ATOM      8  N   UNL     1      47.794   4.930  15.021  0.00  0.00    +0.000 NA
BRANCH   7   9
ATOM      9  C   UNL     1      47.847   3.319  16.842  0.00  0.00    +0.000 C 
BRANCH   9  10
ATOM     10  N   UNL     1      46.535   3.228  17.493  0.00  0.00    +0.000 NA
ATOM     11  H   UNL     1      45.830   3.175  16.755  0.00  0.00    +0.000 HD
ATOM     12  H   UNL     1      46.361   4.102  17.984  0.00  0.00    +0.000 HD
ENDBRANCH   9  10
ENDBRANCH   7   9
ENDBRANCH   1   2
BRANCH   1  13
ATOM     13  C   UNL     1      46.213   6.897  12.950  0.00  0.00    +0.000 C 
BRANCH  13  14
ATOM     14  C   UNL     1      45.599   6.671  11.569  0.00  0.00    +0.000 C 
BRANCH  14  19
ATOM     15  C   UNL     1      44.161   3.344  10.365  0.00  0.00    +0.000 A 
ATOM     16  C   UNL     1      43.499   2.904  11.511  0.00  0.00    +0.000 A 
ATOM     17  C   UNL     1      43.501   3.691  12.665  0.00  0.00    +0.000 A 
ATOM     18  C   UNL     1      44.163   4.917  12.682  0.00  0.00    +0.000 A 
ATOM     19  C   UNL     1      44.826   5.375  11.540  0.00  0.00    +0.000 A 
ATOM     20  C   UNL     1      44.818   4.579  10.385  0.00  0.00    +0.000 A 
BRANCH  15  22
ATOM     21  C   UNL     1      44.841   3.366   8.087  0.00  0.00    +0.000 C 
ATOM     22  O   UNL     1      44.249   2.669   9.177  0.00  0.00    +0.000 OA
ENDBRANCH  15  22
ENDBRANCH  14  19
ENDBRANCH  13  14
ENDBRANCH   1  13
TORSDOF 7
ENDMDL
MODEL 7
REMARK VINA RESULT:    -5.637      2.072      3.655
REMARK INTER + INTRA:          -8.736
REMARK INTER:                  -8.150
REMARK INTRA:                  -0.585
REMARK UNBOUND:                -0.957
REMARK  Name = 
REMARK  9 active torsions:
REMARK  status: ('A' for Active; 'I' for Inactive)
REMARK    1  A    between atoms: C_1  and  O_2
REMARK    2  A    between atoms: O_2  and  C_3
REMARK    3  A    between atoms: C_7  and  C_8
REMARK    4  A    between atoms: C_8  and  C_9
REMARK    5  A    between atoms: C_9  and  C_10
REMARK    6  A    between atoms: C_10  and  C_11
REMARK    7  A    between atoms: C_14  and  C_15
REMARK    8  A    between atoms: C_16  and  C_17
REMARK    9  A    between atoms: C_17  and  N_18
REMARK                            x       y       z     vdW  Elec       q    Type
REMARK                         _______ _______ _______ _____ _____    ______ ____
ROOT
ATOM      1  C   UNL     1      47.711   6.149  12.913  0.00  0.00    +0.000 C 
ENDROOT
BRANCH   1   2
ATOM      2  C   UNL     1      48.037   6.184  14.383  0.00  0.00    +0.000 A 
ATOM      3  C   UNL     1      48.503   7.349  14.977  0.00  0.00    +0.000 A 
ATOM      4  C   UNL     1      48.862   7.315  16.318  0.00  0.00    +0.000 A 
ATOM      5  C   UNL     1      48.745   6.127  17.049  0.00  0.00    +0.000 A 
ATOM      6  C   UNL     1      49.157   6.105  18.492  0.00  0.00    +0.000 C 
ATOM      7  C   UNL     1      48.261   4.995  16.381  0.00  0.00    +0.000 A 
ATOM      8  N   UNL     1      47.917   5.020  15.063  0.00  0.00    +0.000 NA
BRANCH   7   9
ATOM      9  C   UNL     1      48.048   3.664  17.077  0.00  0.00    +0.000 C 
BRANCH   9  10
ATOM     10  N   UNL     1      46.648   3.371  17.406  0.00  0.00    +0.000 NA
ATOM     11  H   UNL     1      46.113   4.230  17.264  0.00  0.00    +0.000 HD
ATOM     12  H   UNL     1      46.590   3.166  18.401  0.00  0.00    +0.000 HD
ENDBRANCH   9  10
ENDBRANCH   7   9
ENDBRANCH   1   2
BRANCH   1  13
ATOM     13  C   UNL     1      46.197   6.185  12.711  0.00  0.00    +0.000 C 
BRANCH  13  14
ATOM     14  C   UNL     1      45.819   6.634  11.300  0.00  0.00    +0.000 C 
BRANCH  14  19
ATOM     15  C   UNL     1      44.370   3.316  10.082  0.00  0.00    +0.000 A 
ATOM     16  C   UNL     1      44.853   3.274   8.773  0.00  0.00    +0.000 A 
ATOM     17  C   UNL     1      45.662   4.307   8.293  0.00  0.00    +0.000 A 
ATOM     18  C   UNL     1      45.991   5.385   9.112  0.00  0.00    +0.000 A 
ATOM     19  C   UNL     1      45.520   5.439  10.427  0.00  0.00    +0.000 A 
ATOM     20  C   UNL     1      44.709   4.397  10.902  0.00  0.00    +0.000 A 
BRANCH  15  22
ATOM     21  C   UNL     1      43.328   2.529  12.067  0.00  0.00    +0.000 C 
ATOM     22  O   UNL     1      43.562   2.383  10.671  0.00  0.00    +0.000 OA
ENDBRANCH  15  22
ENDBRANCH  14  19
ENDBRANCH  13  14
ENDBRANCH   1  13
TORSDOF 7
ENDMDL
MODEL 8
REMARK VINA RESULT:    -5.531      2.046      4.109
REMARK INTER + INTRA:          -8.589
REMARK INTER:                  -7.621
REMARK INTRA:                  -0.968
REMARK UNBOUND:                -0.957
REMARK  Name = 
REMARK  9 active torsions:
REMARK  status: ('A' for Active; 'I' for Inactive)
REMARK    1  A    between atoms: C_1  and  O_2
REMARK    2  A    between atoms: O_2  and  C_3
REMARK    3  A    between atoms: C_7  and  C_8
REMARK    4  A    between atoms: C_8  and  C_9
REMARK    5  A    between atoms: C_9  and  C_10
REMARK    6  A    between atoms: C_10  and  C_11
REMARK    7  A    between atoms: C_14  and  C_15
REMARK    8  A    between atoms: C_16  and  C_17
REMARK    9  A    between atoms: C_17  and  N_18
REMARK                            x       y       z     vdW  Elec       q    Type
REMARK                         _______ _______ _______ _____ _____    ______ ____
ROOT
ATOM      1  C   UNL     1      47.656   6.610  12.845  0.00  0.00    +0.000 C 
ENDROOT
BRANCH   1   2
ATOM      2  C   UNL     1      47.717   5.746  14.078  0.00  0.00    +0.000 A 
ATOM      3  C   UNL     1      46.966   4.582  14.164  0.00  0.00    +0.000 A 
ATOM      4  C   UNL     1      46.996   3.856  15.348  0.00  0.00    +0.000 A 
ATOM      5  C   UNL     1      47.777   4.295  16.423  0.00  0.00    +0.000 A 
ATOM      6  C   UNL     1      47.781   3.509  17.701  0.00  0.00    +0.000 C 
ATOM      7  C   UNL     1      48.512   5.477  16.257  0.00  0.00    +0.000 A 
ATOM      8  N   UNL     1      48.478   6.197  15.101  0.00  0.00    +0.000 NA
BRANCH   7   9
ATOM      9  C   UNL     1      49.429   6.027  17.334  0.00  0.00    +0.000 C 
BRANCH   9  10
ATOM     10  N   UNL     1      50.837   5.648  17.180  0.00  0.00    +0.000 NA
ATOM     11  H   UNL     1      51.077   5.033  17.961  0.00  0.00    +0.000 HD
ATOM     12  H   UNL     1      51.408   6.482  17.296  0.00  0.00    +0.000 HD
ENDBRANCH   9  10
ENDBRANCH   7   9
ENDBRANCH   1   2
BRANCH   1  13
ATOM     13  C   UNL     1      46.265   7.228  12.707  0.00  0.00    +0.000 C 
BRANCH  13  14
ATOM     14  C   UNL     1      45.601   6.853  11.383  0.00  0.00    +0.000 C 
BRANCH  14  19
ATOM     15  C   UNL     1      43.962   3.464  10.741  0.00  0.00    +0.000 A 
ATOM     16  C   UNL     1      43.227   3.291  11.914  0.00  0.00    +0.000 A 
ATOM     17  C   UNL     1      43.245   4.279  12.902  0.00  0.00    +0.000 A 
ATOM     18  C   UNL     1      43.997   5.439  12.727  0.00  0.00    +0.000 A 
ATOM     19  C   UNL     1      44.734   5.629  11.554  0.00  0.00    +0.000 A 
ATOM     20  C   UNL     1      44.709   4.633  10.567  0.00  0.00    +0.000 A 
BRANCH  15  22
ATOM     21  C   UNL     1      45.275   2.529   8.994  0.00  0.00    +0.000 C 
ATOM     22  O   UNL     1      44.043   2.574   9.704  0.00  0.00    +0.000 OA
ENDBRANCH  15  22
ENDBRANCH  14  19
ENDBRANCH  13  14
ENDBRANCH   1  13
TORSDOF 7
ENDMDL
MODEL 9
REMARK VINA RESULT:    -5.246      3.875      6.181
REMARK INTER + INTRA:          -8.196
REMARK INTER:                  -7.662
REMARK INTRA:                  -0.533
REMARK UNBOUND:                -0.957
REMARK  Name = 
REMARK  9 active torsions:
REMARK  status: ('A' for Active; 'I' for Inactive)
REMARK    1  A    between atoms: C_1  and  O_2
REMARK    2  A    between atoms: O_2  and  C_3
REMARK    3  A    between atoms: C_7  and  C_8
REMARK    4  A    between atoms: C_8  and  C_9
REMARK    5  A    between atoms: C_9  and  C_10
REMARK    6  A    between atoms: C_10  and  C_11
REMARK    7  A    between atoms: C_14  and  C_15
REMARK    8  A    between atoms: C_16  and  C_17
REMARK    9  A    between atoms: C_17  and  N_18
REMARK                            x       y       z     vdW  Elec       q    Type
REMARK                         _______ _______ _______ _____ _____    ______ ____
ROOT
ATOM      1  C   UNL     1      47.492   3.325  16.994  0.00  0.00    +0.000 C 
ENDROOT
BRANCH   1   2
ATOM      2  C   UNL     1      48.936   3.433  17.408  0.00  0.00    +0.000 A 
ATOM      3  C   UNL     1      49.425   4.604  17.969  0.00  0.00    +0.000 A 
ATOM      4  C   UNL     1      50.779   4.685  18.267  0.00  0.00    +0.000 A 
ATOM      5  C   UNL     1      51.623   3.599  18.010  0.00  0.00    +0.000 A 
ATOM      6  C   UNL     1      53.087   3.712  18.320  0.00  0.00    +0.000 C 
ATOM      7  C   UNL     1      51.053   2.448  17.449  0.00  0.00    +0.000 A 
ATOM      8  N   UNL     1      49.728   2.368  17.145  0.00  0.00    +0.000 NA
BRANCH   7   9
ATOM      9  C   UNL     1      51.857   1.192  17.168  0.00  0.00    +0.000 C 
BRANCH   9  10
ATOM     10  N   UNL     1      51.701   0.137  18.175  0.00  0.00    +0.000 NA
ATOM     11  H   UNL     1      50.718  -0.140  18.180  0.00  0.00    +0.000 HD
ATOM     12  H   UNL     1      51.883   0.541  19.092  0.00  0.00    +0.000 HD
ENDBRANCH   9  10
ENDBRANCH   7   9
ENDBRANCH   1   2
BRANCH   1  13
ATOM     13  C   UNL     1      47.157   4.410  15.972  0.00  0.00    +0.000 C 
BRANCH  13  14
ATOM     14  C   UNL     1      47.208   3.883  14.539  0.00  0.00    +0.000 C 
BRANCH  14  19
ATOM     15  C   UNL     1      44.614   5.807  12.500  0.00  0.00    +0.000 A 
ATOM     16  C   UNL     1      45.407   6.797  11.918  0.00  0.00    +0.000 A 
ATOM     17  C   UNL     1      46.780   6.830  12.169  0.00  0.00    +0.000 A 
ATOM     18  C   UNL     1      47.369   5.879  13.001  0.00  0.00    +0.000 A 
ATOM     19  C   UNL     1      46.590   4.877  13.587  0.00  0.00    +0.000 A 
ATOM     20  C   UNL     1      45.211   4.851  13.329  0.00  0.00    +0.000 A 
BRANCH  15  22
ATOM     21  C   UNL     1      42.815   4.616  11.502  0.00  0.00    +0.000 C 
ATOM     22  O   UNL     1      43.261   5.668  12.350  0.00  0.00    +0.000 OA
ENDBRANCH  15  22
ENDBRANCH  14  19
ENDBRANCH  13  14
ENDBRANCH   1  13
TORSDOF 7
ENDMDL
