MODEL 1
REMARK VINA RESULT:    -8.792      0.000      0.000
REMARK INTER + INTRA:         -13.185
REMARK INTER:                 -11.877
REMARK INTRA:                  -1.308
REMARK UNBOUND:                -1.308
REMARK  Name = 
REMARK  6 active torsions:
REMARK  status: ('A' for Active; 'I' for Inactive)
REMARK    1  A    between atoms: C_2  and  C_19
REMARK    2  A    between atoms: N_3  and  C_4
REMARK    3  A    between atoms: C_4  and  C_5
REMARK    4  A    between atoms: C_8  and  C_9
REMARK    5  A    between atoms: C_9  and  C_10
REMARK    6  A    between atoms: C_10  and  C_11
REMARK                            x       y       z     vdW  Elec       q    Type
REMARK                         _______ _______ _______ _____ _____    ______ ____
ROOT
ATOM      1  O   UNL     1      49.219   6.578  13.413  0.00  0.00    +0.000 OA
ATOM      2  C   UNL     1      48.511   6.686  14.408  0.00  0.00    +0.000 C 
ATOM      3  N   UNL     1      47.263   7.259  14.377  0.00  0.00    +0.000 N 
ATOM      4  H   UNL     1      46.816   7.501  15.251  0.00  0.00    +0.000 HD
ENDROOT
BRANCH   2   5
ATOM      5  C   UNL     1      48.927   6.144  15.710  0.00  0.00    +0.000 A 
ATOM      6  C   UNL     1      49.956   6.751  16.416  0.00  0.00    +0.000 A 
ATOM      7  S   UNL     1      50.337   5.965  17.881  0.00  0.00    +0.000 S 
ATOM      8  C   UNL     1      49.102   4.819  17.652  0.00  0.00    +0.000 A 
ATOM      9  N   UNL     1      48.872   3.843  18.571  0.00  0.00    +0.000 NA
ATOM     10  C   UNL     1      47.878   3.070  18.291  0.00  0.00    +0.000 A 
ATOM     11  N   UNL     1      47.096   3.175  17.170  0.00  0.00    +0.000 N 
ATOM     12  C   UNL     1      47.340   4.095  16.177  0.00  0.00    +0.000 A 
ATOM     13  O   UNL     1      46.704   4.075  15.128  0.00  0.00    +0.000 OA
ATOM     14  C   UNL     1      48.424   5.018  16.461  0.00  0.00    +0.000 A 
ATOM     15  H   UNL     1      46.348   2.522  16.995  0.00  0.00    +0.000 HD
ENDBRANCH   2   5
BRANCH   3  16
ATOM     16  C   UNL     1      46.735   7.916  13.210  0.00  0.00    +0.000 C 
BRANCH  16  17
ATOM     17  C   UNL     1      46.047   6.934  12.298  0.00  0.00    +0.000 A 
ATOM     18  C   UNL     1      44.917   6.248  12.748  0.00  0.00    +0.000 A 
ATOM     19  C   UNL     1      44.274   5.323  11.927  0.00  0.00    +0.000 A 
ATOM     20  C   UNL     1      44.730   5.064  10.628  0.00  0.00    +0.000 A 
ATOM     21  C   UNL     1      45.891   5.722  10.195  0.00  0.00    +0.000 A 
ATOM     22  C   UNL     1      46.545   6.646  11.021  0.00  0.00    +0.000 A 
BRANCH  20  23
ATOM     23  C   UNL     1      44.055   4.050   9.724  0.00  0.00    +0.000 C 
BRANCH  23  24
ATOM     24  C   UNL     1      44.762   2.688   9.659  0.00  0.00    +0.000 C 
BRANCH  24  25
ATOM     25  C   UNL     1      45.586   2.485   8.412  0.00  0.00    +0.000 A 
ATOM     26  C   UNL     1      45.708   3.522   7.476  0.00  0.00    +0.000 A 
ATOM     27  C   UNL     1      46.529   3.374   6.358  0.00  0.00    +0.000 A 
ATOM     28  C   UNL     1      47.228   2.185   6.160  0.00  0.00    +0.000 A 
ATOM     29  C   UNL     1      47.095   1.141   7.074  0.00  0.00    +0.000 A 
ATOM     30  C   UNL     1      46.275   1.287   8.193  0.00  0.00    +0.000 A 
ENDBRANCH  24  25
ENDBRANCH  23  24
ENDBRANCH  20  23
ENDBRANCH  16  17
ENDBRANCH   3  16
TORSDOF 6
ENDMDL
MODEL 2
REMARK VINA RESULT:    -8.205      2.020      2.490
REMARK INTER + INTRA:         -12.392
REMARK INTER:                 -11.346
REMARK INTRA:                  -1.046
REMARK UNBOUND:                -1.308
REMARK  Name = 
REMARK  6 active torsions:
REMARK  status: ('A' for Active; 'I' for Inactive)
REMARK    1  A    between atoms: C_2  and  C_19
REMARK    2  A    between atoms: N_3  and  C_4
REMARK    3  A    between atoms: C_4  and  C_5
REMARK    4  A    between atoms: C_8  and  C_9
REMARK    5  A    between atoms: C_9  and  C_10
REMARK    6  A    between atoms: C_10  and  C_11
REMARK                            x       y       z     vdW  Elec       q    Type
REMARK                         _______ _______ _______ _____ _____    ______ ____
ROOT
ATOM      1  O   UNL     1      49.852   6.891  15.318  0.00  0.00    +0.000 OA
ATOM      2  C   UNL     1      48.800   6.361  15.658  0.00  0.00    +0.000 C 
ATOM      3  N   UNL     1      47.731   6.214  14.808  0.00  0.00    +0.000 N 
ATOM      4  H   UNL     1      46.832   5.956  15.195  0.00  0.00    +0.000 HD
ENDROOT
BRANCH   2   5
ATOM      5  C   UNL     1      48.630   5.779  16.997  0.00  0.00    +0.000 A 
ATOM      6  C   UNL     1      48.838   4.422  17.194  0.00  0.00    +0.000 A 
ATOM      7  S   UNL     1      48.552   3.911  18.797  0.00  0.00    +0.000 S 
ATOM      8  C   UNL     1      48.194   5.497  19.296  0.00  0.00    +0.000 A 
ATOM      9  N   UNL     1      47.873   5.768  20.590  0.00  0.00    +0.000 NA
ATOM     10  C   UNL     1      47.668   7.018  20.838  0.00  0.00    +0.000 A 
ATOM     11  N   UNL     1      47.746   8.024  19.909  0.00  0.00    +0.000 N 
ATOM     12  C   UNL     1      47.990   7.787  18.577  0.00  0.00    +0.000 A 
ATOM     13  O   UNL     1      47.920   8.693  17.752  0.00  0.00    +0.000 OA
ATOM     14  C   UNL     1      48.268   6.400  18.250  0.00  0.00    +0.000 A 
ATOM     15  H   UNL     1      47.548   8.980  20.160  0.00  0.00    +0.000 HD
ENDBRANCH   2   5
BRANCH   3  16
ATOM     16  C   UNL     1      47.692   6.799  13.493  0.00  0.00    +0.000 C 
BRANCH  16  17
ATOM     17  C   UNL     1      46.795   6.012  12.575  0.00  0.00    +0.000 A 
ATOM     18  C   UNL     1      46.530   6.491  11.290  0.00  0.00    +0.000 A 
ATOM     19  C   UNL     1      45.690   5.787  10.428  0.00  0.00    +0.000 A 
ATOM     20  C   UNL     1      45.100   4.577  10.817  0.00  0.00    +0.000 A 
ATOM     21  C   UNL     1      45.334   4.120  12.123  0.00  0.00    +0.000 A 
ATOM     22  C   UNL     1      46.171   4.830  12.994  0.00  0.00    +0.000 A 
BRANCH  20  23
ATOM     23  C   UNL     1      44.170   3.803   9.901  0.00  0.00    +0.000 C 
BRANCH  23  24
ATOM     24  C   UNL     1      44.669   2.399   9.530  0.00  0.00    +0.000 C 
BRANCH  24  25
ATOM     25  C   UNL     1      45.627   2.377   8.365  0.00  0.00    +0.000 A 
ATOM     26  C   UNL     1      45.786   3.518   7.567  0.00  0.00    +0.000 A 
ATOM     27  C   UNL     1      46.726   3.536   6.536  0.00  0.00    +0.000 A 
ATOM     28  C   UNL     1      47.508   2.409   6.287  0.00  0.00    +0.000 A 
ATOM     29  C   UNL     1      47.341   1.263   7.062  0.00  0.00    +0.000 A 
ATOM     30  C   UNL     1      46.403   1.243   8.095  0.00  0.00    +0.000 A 
ENDBRANCH  24  25
ENDBRANCH  23  24
ENDBRANCH  20  23
ENDBRANCH  16  17
ENDBRANCH   3  16
TORSDOF 6
ENDMDL
MODEL 3
REMARK VINA RESULT:    -7.971      1.296      1.833
REMARK INTER + INTRA:         -12.075
REMARK INTER:                 -10.751
REMARK INTRA:                  -1.325
REMARK UNBOUND:                -1.308
REMARK  Name = 
REMARK  6 active torsions:
REMARK  status: ('A' for Active; 'I' for Inactive)
REMARK    1  A    between atoms: C_2  and  C_19
REMARK    2  A    between atoms: N_3  and  C_4
REMARK    3  A    between atoms: C_4  and  C_5
REMARK    4  A    between atoms: C_8  and  C_9
REMARK    5  A    between atoms: C_9  and  C_10
REMARK    6  A    between atoms: C_10  and  C_11
REMARK                            x       y       z     vdW  Elec       q    Type
REMARK                         _______ _______ _______ _____ _____    ______ ____
ROOT
ATOM      1  O   UNL     1      50.356   7.351  15.063  0.00  0.00    +0.000 OA
ATOM      2  C   UNL     1      49.306   7.085  15.637  0.00  0.00    +0.000 C 
ATOM      3  N   UNL     1      48.097   7.021  14.988  0.00  0.00    +0.000 N 
ATOM      4  H   UNL     1      47.249   6.998  15.538  0.00  0.00    +0.000 HD
ENDROOT
BRANCH   2   5
ATOM      5  C   UNL     1      49.276   6.749  17.068  0.00  0.00    +0.000 A 
ATOM      6  C   UNL     1      49.581   7.717  18.013  0.00  0.00    +0.000 A 
ATOM      7  S   UNL     1      49.541   7.142  19.619  0.00  0.00    +0.000 S 
ATOM      8  C   UNL     1      49.059   5.593  19.110  0.00  0.00    +0.000 A 
ATOM      9  N   UNL     1      48.830   4.599  20.011  0.00  0.00    +0.000 NA
ATOM     10  C   UNL     1      48.428   3.489  19.490  0.00  0.00    +0.000 A 
ATOM     11  N   UNL     1      48.241   3.276  18.148  0.00  0.00    +0.000 N 
ATOM     12  C   UNL     1      48.535   4.224  17.198  0.00  0.00    +0.000 A 
ATOM     13  O   UNL     1      48.484   3.957  16.002  0.00  0.00    +0.000 OA
ATOM     14  C   UNL     1      48.953   5.508  17.733  0.00  0.00    +0.000 A 
ATOM     15  H   UNL     1      47.950   2.376  17.801  0.00  0.00    +0.000 HD
ENDBRANCH   2   5
BRANCH   3  16
ATOM     16  C   UNL     1      47.929   7.404  13.610  0.00  0.00    +0.000 C 
BRANCH  16  17
ATOM     17  C   UNL     1      47.030   6.438  12.884  0.00  0.00    +0.000 A 
ATOM     18  C   UNL     1      46.624   6.720  11.579  0.00  0.00    +0.000 A 
ATOM     19  C   UNL     1      45.780   5.848  10.893  0.00  0.00    +0.000 A 
ATOM     20  C   UNL     1      45.326   4.661  11.484  0.00  0.00    +0.000 A 
ATOM     21  C   UNL     1      45.700   4.403  12.811  0.00  0.00    +0.000 A 
ATOM     22  C   UNL     1      46.542   5.282  13.506  0.00  0.00    +0.000 A 
BRANCH  20  23
ATOM     23  C   UNL     1      44.393   3.707  10.761  0.00  0.00    +0.000 C 
BRANCH  23  24
ATOM     24  C   UNL     1      44.331   3.911   9.240  0.00  0.00    +0.000 C 
BRANCH  24  25
ATOM     25  C   UNL     1      45.401   3.170   8.479  0.00  0.00    +0.000 A 
ATOM     26  C   UNL     1      45.562   1.789   8.660  0.00  0.00    +0.000 A 
ATOM     27  C   UNL     1      46.495   1.079   7.904  0.00  0.00    +0.000 A 
ATOM     28  C   UNL     1      47.284   1.745   6.968  0.00  0.00    +0.000 A 
ATOM     29  C   UNL     1      47.147   3.121   6.798  0.00  0.00    +0.000 A 
ATOM     30  C   UNL     1      46.213   3.833   7.551  0.00  0.00    +0.000 A 
ENDBRANCH  24  25
ENDBRANCH  23  24
ENDBRANCH  20  23
ENDBRANCH  16  17
ENDBRANCH   3  16
TORSDOF 6
ENDMDL
MODEL 4
REMARK VINA RESULT:    -7.750      2.583      4.523
REMARK INTER + INTRA:         -11.777
REMARK INTER:                 -10.371
REMARK INTRA:                  -1.406
REMARK UNBOUND:                -1.308
REMARK  Name = 
REMARK  6 active torsions:
REMARK  status: ('A' for Active; 'I' for Inactive)
REMARK    1  A    between atoms: C_2  and  C_19
REMARK    2  A    between atoms: N_3  and  C_4
REMARK    3  A    between atoms: C_4  and  C_5
REMARK    4  A    between atoms: C_8  and  C_9
REMARK    5  A    between atoms: C_9  and  C_10
REMARK    6  A    between atoms: C_10  and  C_11
REMARK                            x       y       z     vdW  Elec       q    Type
REMARK                         _______ _______ _______ _____ _____    ______ ____
ROOT
ATOM      1  O   UNL     1      49.837   6.490  15.497  0.00  0.00    +0.000 OA
ATOM      2  C   UNL     1      49.011   7.211  14.947  0.00  0.00    +0.000 C 
ATOM      3  N   UNL     1      47.769   6.766  14.567  0.00  0.00    +0.000 N 
ATOM      4  H   UNL     1      47.214   7.340  13.945  0.00  0.00    +0.000 HD
ENDROOT
BRANCH   2   5
ATOM      5  C   UNL     1      49.272   8.639  14.712  0.00  0.00    +0.000 A 
ATOM      6  C   UNL     1      49.554   9.477  15.781  0.00  0.00    +0.000 A 
ATOM      7  S   UNL     1      49.785  11.106  15.332  0.00  0.00    +0.000 S 
ATOM      8  C   UNL     1      49.572  10.739  13.685  0.00  0.00    +0.000 A 
ATOM      9  N   UNL     1      49.662  11.708  12.734  0.00  0.00    +0.000 NA
ATOM     10  C   UNL     1      49.522  11.281  11.524  0.00  0.00    +0.000 A 
ATOM     11  N   UNL     1      49.293   9.975  11.175  0.00  0.00    +0.000 N 
ATOM     12  C   UNL     1      49.118   8.978  12.104  0.00  0.00    +0.000 A 
ATOM     13  O   UNL     1      48.782   7.849  11.763  0.00  0.00    +0.000 OA
ATOM     14  C   UNL     1      49.304   9.396  13.483  0.00  0.00    +0.000 A 
ATOM     15  H   UNL     1      49.167   9.709  10.211  0.00  0.00    +0.000 HD
ENDBRANCH   2   5
BRANCH   3  16
ATOM     16  C   UNL     1      47.378   5.382  14.642  0.00  0.00    +0.000 C 
BRANCH  16  17
ATOM     17  C   UNL     1      46.559   4.983  13.442  0.00  0.00    +0.000 A 
ATOM     18  C   UNL     1      46.084   5.967  12.573  0.00  0.00    +0.000 A 
ATOM     19  C   UNL     1      45.311   5.623  11.465  0.00  0.00    +0.000 A 
ATOM     20  C   UNL     1      44.999   4.286  11.183  0.00  0.00    +0.000 A 
ATOM     21  C   UNL     1      45.442   3.304  12.083  0.00  0.00    +0.000 A 
ATOM     22  C   UNL     1      46.211   3.648  13.202  0.00  0.00    +0.000 A 
BRANCH  20  23
ATOM     23  C   UNL     1      44.146   3.891   9.993  0.00  0.00    +0.000 C 
BRANCH  23  24
ATOM     24  C   UNL     1      44.436   2.486   9.443  0.00  0.00    +0.000 C 
BRANCH  24  25
ATOM     25  C   UNL     1      45.526   2.450   8.401  0.00  0.00    +0.000 A 
ATOM     26  C   UNL     1      46.254   1.271   8.188  0.00  0.00    +0.000 A 
ATOM     27  C   UNL     1      47.210   1.201   7.175  0.00  0.00    +0.000 A 
ATOM     28  C   UNL     1      47.454   2.313   6.371  0.00  0.00    +0.000 A 
ATOM     29  C   UNL     1      46.750   3.496   6.589  0.00  0.00    +0.000 A 
ATOM     30  C   UNL     1      45.792   3.567   7.601  0.00  0.00    +0.000 A 
ENDBRANCH  24  25
ENDBRANCH  23  24
ENDBRANCH  20  23
ENDBRANCH  16  17
ENDBRANCH   3  16
TORSDOF 6
ENDMDL
MODEL 5
REMARK VINA RESULT:    -7.662      1.464      2.093
REMARK INTER + INTRA:         -11.658
REMARK INTER:                 -10.379
REMARK INTRA:                  -1.279
REMARK UNBOUND:                -1.308
REMARK  Name = 
REMARK  6 active torsions:
REMARK  status: ('A' for Active; 'I' for Inactive)
REMARK    1  A    between atoms: C_2  and  C_19
REMARK    2  A    between atoms: N_3  and  C_4
REMARK    3  A    between atoms: C_4  and  C_5
REMARK    4  A    between atoms: C_8  and  C_9
REMARK    5  A    between atoms: C_9  and  C_10
REMARK    6  A    between atoms: C_10  and  C_11
REMARK                            x       y       z     vdW  Elec       q    Type
REMARK                         _______ _______ _______ _____ _____    ______ ____
ROOT
ATOM      1  O   UNL     1      47.993   9.105  14.861  0.00  0.00    +0.000 OA
ATOM      2  C   UNL     1      48.362   7.942  14.742  0.00  0.00    +0.000 C 
ATOM      3  N   UNL     1      47.727   7.038  13.926  0.00  0.00    +0.000 N 
ATOM      4  H   UNL     1      47.949   6.056  14.021  0.00  0.00    +0.000 HD
ENDROOT
BRANCH   2   5
ATOM      5  C   UNL     1      49.565   7.444  15.425  0.00  0.00    +0.000 A 
ATOM      6  C   UNL     1      50.756   8.148  15.332  0.00  0.00    +0.000 A 
ATOM      7  S   UNL     1      52.057   7.403  16.146  0.00  0.00    +0.000 S 
ATOM      8  C   UNL     1      51.060   6.142  16.699  0.00  0.00    +0.000 A 
ATOM      9  N   UNL     1      51.558   5.148  17.484  0.00  0.00    +0.000 NA
ATOM     10  C   UNL     1      50.682   4.280  17.866  0.00  0.00    +0.000 A 
ATOM     11  N   UNL     1      49.353   4.309  17.529  0.00  0.00    +0.000 N 
ATOM     12  C   UNL     1      48.823   5.248  16.677  0.00  0.00    +0.000 A 
ATOM     13  O   UNL     1      47.661   5.166  16.292  0.00  0.00    +0.000 OA
ATOM     14  C   UNL     1      49.758   6.273  16.249  0.00  0.00    +0.000 A 
ATOM     15  H   UNL     1      48.723   3.586  17.839  0.00  0.00    +0.000 HD
ENDBRANCH   2   5
BRANCH   3  16
ATOM     16  C   UNL     1      46.488   7.330  13.252  0.00  0.00    +0.000 C 
BRANCH  16  17
ATOM     17  C   UNL     1      45.967   6.117  12.527  0.00  0.00    +0.000 A 
ATOM     18  C   UNL     1      45.517   6.241  11.211  0.00  0.00    +0.000 A 
ATOM     19  C   UNL     1      45.015   5.135  10.525  0.00  0.00    +0.000 A 
ATOM     20  C   UNL     1      44.960   3.871  11.127  0.00  0.00    +0.000 A 
ATOM     21  C   UNL     1      45.372   3.760  12.463  0.00  0.00    +0.000 A 
ATOM     22  C   UNL     1      45.868   4.871  13.158  0.00  0.00    +0.000 A 
BRANCH  20  23
ATOM     23  C   UNL     1      44.402   2.659  10.404  0.00  0.00    +0.000 C 
BRANCH  23  24
ATOM     24  C   UNL     1      44.265   2.834   8.885  0.00  0.00    +0.000 C 
BRANCH  24  25
ATOM     25  C   UNL     1      45.541   2.578   8.122  0.00  0.00    +0.000 A 
ATOM     26  C   UNL     1      46.131   1.306   8.147  0.00  0.00    +0.000 A 
ATOM     27  C   UNL     1      47.266   1.037   7.383  0.00  0.00    +0.000 A 
ATOM     28  C   UNL     1      47.829   2.039   6.595  0.00  0.00    +0.000 A 
ATOM     29  C   UNL     1      47.263   3.312   6.581  0.00  0.00    +0.000 A 
ATOM     30  C   UNL     1      46.126   3.584   7.343  0.00  0.00    +0.000 A 
ENDBRANCH  24  25
ENDBRANCH  23  24
ENDBRANCH  20  23
ENDBRANCH  16  17
ENDBRANCH   3  16
TORSDOF 6
ENDMDL
MODEL 6
REMARK VINA RESULT:    -7.407      2.263      3.220
REMARK INTER + INTRA:         -11.313
REMARK INTER:                 -10.272
REMARK INTRA:                  -1.041
REMARK UNBOUND:                -1.308
REMARK  Name = 
REMARK  6 active torsions:
REMARK  status: ('A' for Active; 'I' for Inactive)
REMARK    1  A    between atoms: C_2  and  C_19
REMARK    2  A    between atoms: N_3  and  C_4
REMARK    3  A    between atoms: C_4  and  C_5
REMARK    4  A    between atoms: C_8  and  C_9
REMARK    5  A    between atoms: C_9  and  C_10
REMARK    6  A    between atoms: C_10  and  C_11
REMARK                            x       y       z     vdW  Elec       q    Type
REMARK                         _______ _______ _______ _____ _____    ______ ____
ROOT
ATOM      1  O   UNL     1      47.881   4.939  17.463  0.00  0.00    +0.000 OA
ATOM      2  C   UNL     1      48.332   5.528  16.487  0.00  0.00    +0.000 C 
ATOM      3  N   UNL     1      47.751   5.466  15.244  0.00  0.00    +0.000 N 
ATOM      4  H   UNL     1      48.272   5.802  14.445  0.00  0.00    +0.000 HD
ENDROOT
BRANCH   2   5
ATOM      5  C   UNL     1      49.506   6.407  16.594  0.00  0.00    +0.000 A 
ATOM      6  C   UNL     1      49.374   7.770  16.374  0.00  0.00    +0.000 A 
ATOM      7  S   UNL     1      50.843   8.629  16.495  0.00  0.00    +0.000 S 
ATOM      8  C   UNL     1      51.699   7.217  16.902  0.00  0.00    +0.000 A 
ATOM      9  N   UNL     1      53.035   7.256  17.157  0.00  0.00    +0.000 NA
ATOM     10  C   UNL     1      53.546   6.120  17.494  0.00  0.00    +0.000 A 
ATOM     11  N   UNL     1      52.848   4.945  17.593  0.00  0.00    +0.000 N 
ATOM     12  C   UNL     1      51.516   4.843  17.269  0.00  0.00    +0.000 A 
ATOM     13  O   UNL     1      50.955   3.752  17.240  0.00  0.00    +0.000 OA
ATOM     14  C   UNL     1      50.880   6.101  16.921  0.00  0.00    +0.000 A 
ATOM     15  H   UNL     1      53.312   4.083  17.837  0.00  0.00    +0.000 HD
ENDBRANCH   2   5
BRANCH   3  16
ATOM     16  C   UNL     1      46.651   4.589  14.940  0.00  0.00    +0.000 C 
BRANCH  16  17
ATOM     17  C   UNL     1      46.253   4.700  13.492  0.00  0.00    +0.000 A 
ATOM     18  C   UNL     1      46.603   5.839  12.764  0.00  0.00    +0.000 A 
ATOM     19  C   UNL     1      46.232   5.970  11.427  0.00  0.00    +0.000 A 
ATOM     20  C   UNL     1      45.512   4.963  10.771  0.00  0.00    +0.000 A 
ATOM     21  C   UNL     1      45.124   3.840  11.516  0.00  0.00    +0.000 A 
ATOM     22  C   UNL     1      45.488   3.709  12.863  0.00  0.00    +0.000 A 
BRANCH  20  23
ATOM     23  C   UNL     1      45.083   5.093   9.321  0.00  0.00    +0.000 C 
BRANCH  23  24
ATOM     24  C   UNL     1      44.591   3.784   8.685  0.00  0.00    +0.000 C 
BRANCH  24  25
ATOM     25  C   UNL     1      45.677   2.986   8.009  0.00  0.00    +0.000 A 
ATOM     26  C   UNL     1      45.901   1.652   8.378  0.00  0.00    +0.000 A 
ATOM     27  C   UNL     1      46.849   0.881   7.706  0.00  0.00    +0.000 A 
ATOM     28  C   UNL     1      47.589   1.438   6.666  0.00  0.00    +0.000 A 
ATOM     29  C   UNL     1      47.389   2.770   6.306  0.00  0.00    +0.000 A 
ATOM     30  C   UNL     1      46.440   3.543   6.976  0.00  0.00    +0.000 A 
ENDBRANCH  24  25
ENDBRANCH  23  24
ENDBRANCH  20  23
ENDBRANCH  16  17
ENDBRANCH   3  16
TORSDOF 6
ENDMDL
MODEL 7
REMARK VINA RESULT:    -7.351      2.570      3.373
REMARK INTER + INTRA:         -11.238
REMARK INTER:                 -10.027
REMARK INTRA:                  -1.211
REMARK UNBOUND:                -1.308
REMARK  Name = 
REMARK  6 active torsions:
REMARK  status: ('A' for Active; 'I' for Inactive)
REMARK    1  A    between atoms: C_2  and  C_19
REMARK    2  A    between atoms: N_3  and  C_4
REMARK    3  A    between atoms: C_4  and  C_5
REMARK    4  A    between atoms: C_8  and  C_9
REMARK    5  A    between atoms: C_9  and  C_10
REMARK    6  A    between atoms: C_10  and  C_11
REMARK                            x       y       z     vdW  Elec       q    Type
REMARK                         _______ _______ _______ _____ _____    ______ ____
ROOT
ATOM      1  O   UNL     1      49.674   4.446  16.818  0.00  0.00    +0.000 OA
ATOM      2  C   UNL     1      48.975   5.441  16.660  0.00  0.00    +0.000 C 
ATOM      3  N   UNL     1      47.731   5.394  16.080  0.00  0.00    +0.000 N 
ATOM      4  H   UNL     1      47.293   6.260  15.795  0.00  0.00    +0.000 HD
ENDROOT
BRANCH   2   5
ATOM      5  C   UNL     1      49.400   6.763  17.143  0.00  0.00    +0.000 A 
ATOM      6  C   UNL     1      50.480   7.403  16.554  0.00  0.00    +0.000 A 
ATOM      7  S   UNL     1      50.861   8.904  17.269  0.00  0.00    +0.000 S 
ATOM      8  C   UNL     1      49.559   8.779  18.355  0.00  0.00    +0.000 A 
ATOM      9  N   UNL     1      49.303   9.763  19.259  0.00  0.00    +0.000 NA
ATOM     10  C   UNL     1      48.260   9.557  19.991  0.00  0.00    +0.000 A 
ATOM     11  N   UNL     1      47.452   8.453  19.910  0.00  0.00    +0.000 N 
ATOM     12  C   UNL     1      47.717   7.399  19.068  0.00  0.00    +0.000 A 
ATOM     13  O   UNL     1      47.051   6.370  19.116  0.00  0.00    +0.000 OA
ATOM     14  C   UNL     1      48.858   7.596  18.192  0.00  0.00    +0.000 A 
ATOM     15  H   UNL     1      46.665   8.338  20.529  0.00  0.00    +0.000 HD
ENDBRANCH   2   5
BRANCH   3  16
ATOM     16  C   UNL     1      47.197   4.203  15.473  0.00  0.00    +0.000 C 
BRANCH  16  17
ATOM     17  C   UNL     1      46.681   4.484  14.087  0.00  0.00    +0.000 A 
ATOM     18  C   UNL     1      46.820   5.764  13.544  0.00  0.00    +0.000 A 
ATOM     19  C   UNL     1      46.336   6.051  12.269  0.00  0.00    +0.000 A 
ATOM     20  C   UNL     1      45.712   5.068  11.490  0.00  0.00    +0.000 A 
ATOM     21  C   UNL     1      45.535   3.796  12.055  0.00  0.00    +0.000 A 
ATOM     22  C   UNL     1      46.012   3.506  13.340  0.00  0.00    +0.000 A 
BRANCH  20  23
ATOM     23  C   UNL     1      45.164   5.363  10.106  0.00  0.00    +0.000 C 
BRANCH  23  24
ATOM     24  C   UNL     1      44.507   4.160   9.414  0.00  0.00    +0.000 C 
BRANCH  24  25
ATOM     25  C   UNL     1      45.462   3.328   8.596  0.00  0.00    +0.000 A 
ATOM     26  C   UNL     1      45.529   1.941   8.791  0.00  0.00    +0.000 A 
ATOM     27  C   UNL     1      46.351   1.151   7.988  0.00  0.00    +0.000 A 
ATOM     28  C   UNL     1      47.122   1.741   6.989  0.00  0.00    +0.000 A 
ATOM     29  C   UNL     1      47.079   3.121   6.802  0.00  0.00    +0.000 A 
ATOM     30  C   UNL     1      46.256   3.914   7.603  0.00  0.00    +0.000 A 
ENDBRANCH  24  25
ENDBRANCH  23  24
ENDBRANCH  20  23
ENDBRANCH  16  17
ENDBRANCH   3  16
TORSDOF 6
ENDMDL
MODEL 8
REMARK VINA RESULT:    -7.249      3.148      4.746
REMARK INTER + INTRA:         -11.099
REMARK INTER:                  -9.949
REMARK INTRA:                  -1.151
REMARK UNBOUND:                -1.308
REMARK  Name = 
REMARK  6 active torsions:
REMARK  status: ('A' for Active; 'I' for Inactive)
REMARK    1  A    between atoms: C_2  and  C_19
REMARK    2  A    between atoms: N_3  and  C_4
REMARK    3  A    between atoms: C_4  and  C_5
REMARK    4  A    between atoms: C_8  and  C_9
REMARK    5  A    between atoms: C_9  and  C_10
REMARK    6  A    between atoms: C_10  and  C_11
REMARK                            x       y       z     vdW  Elec       q    Type
REMARK                         _______ _______ _______ _____ _____    ______ ____
ROOT
ATOM      1  O   UNL     1      47.002   8.803  13.623  0.00  0.00    +0.000 OA
ATOM      2  C   UNL     1      48.064   8.305  13.263  0.00  0.00    +0.000 C 
ATOM      3  N   UNL     1      48.306   6.954  13.308  0.00  0.00    +0.000 N 
ATOM      4  H   UNL     1      49.256   6.625  13.193  0.00  0.00    +0.000 HD
ENDROOT
BRANCH   2   5
ATOM      5  C   UNL     1      49.142   9.124  12.691  0.00  0.00    +0.000 A 
ATOM      6  C   UNL     1      48.866  10.014  11.664  0.00  0.00    +0.000 A 
ATOM      7  S   UNL     1      50.240  10.847  11.091  0.00  0.00    +0.000 S 
ATOM      8  C   UNL     1      51.244  10.087  12.234  0.00  0.00    +0.000 A 
ATOM      9  N   UNL     1      52.574  10.371  12.297  0.00  0.00    +0.000 NA
ATOM     10  C   UNL     1      53.206   9.755  13.238  0.00  0.00    +0.000 A 
ATOM     11  N   UNL     1      52.635   8.873  14.119  0.00  0.00    +0.000 N 
ATOM     12  C   UNL     1      51.315   8.498  14.044  0.00  0.00    +0.000 A 
ATOM     13  O   UNL     1      50.869   7.609  14.762  0.00  0.00    +0.000 OA
ATOM     14  C   UNL     1      50.546   9.192  13.026  0.00  0.00    +0.000 A 
ATOM     15  H   UNL     1      53.190   8.404  14.818  0.00  0.00    +0.000 HD
ENDBRANCH   2   5
BRANCH   3  16
ATOM     16  C   UNL     1      47.398   6.017  13.917  0.00  0.00    +0.000 C 
BRANCH  16  17
ATOM     17  C   UNL     1      46.543   5.338  12.881  0.00  0.00    +0.000 A 
ATOM     18  C   UNL     1      46.283   5.982  11.670  0.00  0.00    +0.000 A 
ATOM     19  C   UNL     1      45.481   5.379  10.701  0.00  0.00    +0.000 A 
ATOM     20  C   UNL     1      44.925   4.109  10.906  0.00  0.00    +0.000 A 
ATOM     21  C   UNL     1      45.152   3.484  12.142  0.00  0.00    +0.000 A 
ATOM     22  C   UNL     1      45.951   4.091  13.120  0.00  0.00    +0.000 A 
BRANCH  20  23
ATOM     23  C   UNL     1      44.036   3.442   9.873  0.00  0.00    +0.000 C 
BRANCH  23  24
ATOM     24  C   UNL     1      44.578   2.109   9.337  0.00  0.00    +0.000 C 
BRANCH  24  25
ATOM     25  C   UNL     1      45.636   2.263   8.273  0.00  0.00    +0.000 A 
ATOM     26  C   UNL     1      46.512   1.203   7.996  0.00  0.00    +0.000 A 
ATOM     27  C   UNL     1      47.442   1.304   6.962  0.00  0.00    +0.000 A 
ATOM     28  C   UNL     1      47.514   2.469   6.202  0.00  0.00    +0.000 A 
ATOM     29  C   UNL     1      46.663   3.537   6.484  0.00  0.00    +0.000 A 
ATOM     30  C   UNL     1      45.730   3.437   7.517  0.00  0.00    +0.000 A 
ENDBRANCH  24  25
ENDBRANCH  23  24
ENDBRANCH  20  23
ENDBRANCH  16  17
ENDBRANCH   3  16
TORSDOF 6
ENDMDL
MODEL 9
REMARK VINA RESULT:    -6.838      4.911      7.205
REMARK INTER + INTRA:         -10.545
REMARK INTER:                  -9.338
REMARK INTRA:                  -1.207
REMARK UNBOUND:                -1.308
REMARK  Name = 
REMARK  6 active torsions:
REMARK  status: ('A' for Active; 'I' for Inactive)
REMARK    1  A    between atoms: C_2  and  C_19
REMARK    2  A    between atoms: N_3  and  C_4
REMARK    3  A    between atoms: C_4  and  C_5
REMARK    4  A    between atoms: C_8  and  C_9
REMARK    5  A    between atoms: C_9  and  C_10
REMARK    6  A    between atoms: C_10  and  C_11
REMARK                            x       y       z     vdW  Elec       q    Type
REMARK                         _______ _______ _______ _____ _____    ______ ____
ROOT
ATOM      1  O   UNL     1      44.629   7.685  11.081  0.00  0.00    +0.000 OA
ATOM      2  C   UNL     1      45.057   6.781  11.791  0.00  0.00    +0.000 C 
ATOM      3  N   UNL     1      45.893   7.003  12.858  0.00  0.00    +0.000 N 
ATOM      4  H   UNL     1      46.369   6.214  13.276  0.00  0.00    +0.000 HD
ENDROOT
BRANCH   2   5
ATOM      5  C   UNL     1      44.649   5.383  11.585  0.00  0.00    +0.000 A 
ATOM      6  C   UNL     1      43.907   4.728  12.557  0.00  0.00    +0.000 A 
ATOM      7  S   UNL     1      43.561   3.102  12.174  0.00  0.00    +0.000 S 
ATOM      8  C   UNL     1      44.343   3.233  10.670  0.00  0.00    +0.000 A 
ATOM      9  N   UNL     1      44.398   2.176   9.815  0.00  0.00    +0.000 NA
ATOM     10  C   UNL     1      44.984   2.428   8.692  0.00  0.00    +0.000 A 
ATOM     11  N   UNL     1      45.527   3.639   8.347  0.00  0.00    +0.000 N 
ATOM     12  C   UNL     1      45.563   4.710   9.208  0.00  0.00    +0.000 A 
ATOM     13  O   UNL     1      46.173   5.733   8.918  0.00  0.00    +0.000 OA
ATOM     14  C   UNL     1      44.882   4.493  10.472  0.00  0.00    +0.000 A 
ATOM     15  H   UNL     1      45.995   3.765   7.463  0.00  0.00    +0.000 HD
ENDBRANCH   2   5
BRANCH   3  16
ATOM     16  C   UNL     1      46.460   8.293  13.151  0.00  0.00    +0.000 C 
BRANCH  16  17
ATOM     17  C   UNL     1      47.817   8.446  12.516  0.00  0.00    +0.000 A 
ATOM     18  C   UNL     1      48.228   9.700  12.058  0.00  0.00    +0.000 A 
ATOM     19  C   UNL     1      49.473   9.862  11.453  0.00  0.00    +0.000 A 
ATOM     20  C   UNL     1      50.353   8.782  11.299  0.00  0.00    +0.000 A 
ATOM     21  C   UNL     1      49.919   7.516  11.721  0.00  0.00    +0.000 A 
ATOM     22  C   UNL     1      48.664   7.348  12.321  0.00  0.00    +0.000 A 
BRANCH  20  23
ATOM     23  C   UNL     1      51.705   8.934  10.629  0.00  0.00    +0.000 C 
BRANCH  23  24
ATOM     24  C   UNL     1      52.675   7.771  10.888  0.00  0.00    +0.000 C 
BRANCH  24  25
ATOM     25  C   UNL     1      53.001   6.961   9.658  0.00  0.00    +0.000 A 
ATOM     26  C   UNL     1      53.924   5.908   9.736  0.00  0.00    +0.000 A 
ATOM     27  C   UNL     1      54.175   5.102   8.626  0.00  0.00    +0.000 A 
ATOM     28  C   UNL     1      53.514   5.348   7.424  0.00  0.00    +0.000 A 
ATOM     29  C   UNL     1      52.612   6.406   7.330  0.00  0.00    +0.000 A 
ATOM     30  C   UNL     1      52.358   7.213   8.440  0.00  0.00    +0.000 A 
ENDBRANCH  24  25
ENDBRANCH  23  24
ENDBRANCH  20  23
ENDBRANCH  16  17
ENDBRANCH   3  16
TORSDOF 6
ENDMDL
