MODEL 1
REMARK VINA RESULT:    -8.245      0.000      0.000
REMARK INTER + INTRA:         -14.147
REMARK INTER:                 -12.583
REMARK INTRA:                  -1.564
REMARK UNBOUND:                -1.564
REMARK  Name = 
REMARK  12 active torsions:
REMARK  status: ('A' for Active; 'I' for Inactive)
REMARK    1  A    between atoms: C_1  and  C_2
REMARK    2  A    between atoms: C_2  and  N_3
REMARK    3  A    between atoms: C_5  and  C_6
REMARK    4  A    between atoms: N_8  and  C_9
REMARK    5  A    between atoms: C_9  and  C_10
REMARK    6  A    between atoms: C_13  and  N_14
REMARK    7  A    between atoms: N_14  and  C_15
REMARK    8  A    between atoms: C_15  and  C_16
REMARK    9  A    between atoms: C_15  and  C_17
REMARK   10  A    between atoms: C_17  and  C_18
REMARK   11  A    between atoms: C_27  and  O_28
REMARK   12  A    between atoms: O_28  and  C_29
REMARK                            x       y       z     vdW  Elec       q    Type
REMARK                         _______ _______ _______ _____ _____    ______ ____
ROOT
ATOM      1  C   UNL     1      48.904   6.538  15.116  0.00  0.00    +0.000 C 
ENDROOT
BRANCH   1   2
ATOM      2  C   UNL     1      47.951   6.226  13.988  0.00  0.00    +0.000 A 
ATOM      3  C   UNL     1      47.072   5.136  14.020  0.00  0.00    +0.000 A 
ATOM      4  C   UNL     1      46.124   4.937  13.021  0.00  0.00    +0.000 A 
ATOM      5  C   UNL     1      46.054   5.790  11.926  0.00  0.00    +0.000 A 
ATOM      6  C   UNL     1      47.019   6.799  11.827  0.00  0.00    +0.000 A 
ATOM      7  C   UNL     1      47.940   7.037  12.850  0.00  0.00    +0.000 A 
BRANCH   5   8
ATOM      8  N   UNL     1      45.129   5.625  10.903  0.00  0.00    +0.000 N 
ATOM      9  H   UNL     1      44.398   6.329  10.896  0.00  0.00    +0.000 HD
BRANCH   8  10
ATOM     10  C   UNL     1      44.682   4.288  10.492  0.00  0.00    +0.000 C 
ATOM     11  C   UNL     1      43.303   3.977  11.092  0.00  0.00    +0.000 C 
BRANCH  10  12
ATOM     12  C   UNL     1      44.590   4.228   8.953  0.00  0.00    +0.000 C 
BRANCH  12  13
ATOM     13  C   UNL     1      45.543   3.257   8.294  0.00  0.00    +0.000 A 
ATOM     14  C   UNL     1      45.570   1.905   8.662  0.00  0.00    +0.000 A 
ATOM     15  C   UNL     1      46.418   1.009   8.006  0.00  0.00    +0.000 A 
ATOM     16  C   UNL     1      47.245   1.456   6.978  0.00  0.00    +0.000 A 
ATOM     17  C   UNL     1      47.238   2.801   6.614  0.00  0.00    +0.000 A 
ATOM     18  C   UNL     1      46.393   3.697   7.269  0.00  0.00    +0.000 A 
ENDBRANCH  12  13
ENDBRANCH  10  12
ENDBRANCH   8  10
ENDBRANCH   5   8
ENDBRANCH   1   2
BRANCH   1  21
ATOM     19  C   UNL     1      48.522   6.190  17.619  0.00  0.00    +0.000 C 
ATOM     20  O   UNL     1      47.732   6.395  18.538  0.00  0.00    +0.000 OA
ATOM     21  N   UNL     1      48.198   6.642  16.370  0.00  0.00    +0.000 N 
ATOM     22  H   UNL     1      47.302   7.108  16.351  0.00  0.00    +0.000 HD
BRANCH  19  25
ATOM     23  N   UNL     1      51.935   5.032  18.326  0.00  0.00    +0.000 N 
ATOM     24  C   UNL     1      50.956   5.979  18.365  0.00  0.00    +0.000 A 
ATOM     25  C   UNL     1      49.789   5.476  17.821  0.00  0.00    +0.000 A 
ATOM     26  C   UNL     1      50.078   4.101  17.528  0.00  0.00    +0.000 A 
ATOM     27  C   UNL     1      49.387   3.017  16.979  0.00  0.00    +0.000 A 
ATOM     28  N   UNL     1      50.017   1.831  16.816  0.00  0.00    +0.000 NA
ATOM     29  C   UNL     1      51.306   1.751  17.193  0.00  0.00    +0.000 A 
ATOM     30  N   UNL     1      52.085   2.714  17.710  0.00  0.00    +0.000 NA
ATOM     31  C   UNL     1      51.412   3.866  17.856  0.00  0.00    +0.000 A 
BRANCH  23  33
ATOM     32  C   UNL     1      54.126   5.754  17.484  0.00  0.00    +0.000 C 
ATOM     33  C   UNL     1      53.309   5.314  18.689  0.00  0.00    +0.000 C 
ENDBRANCH  23  33
BRANCH  27  34
ATOM     34  O   UNL     1      48.088   3.176  16.547  0.00  0.00    +0.000 OA
ATOM     35  C   UNL     1      47.113   2.911  17.544  0.00  0.00    +0.000 C 
ENDBRANCH  27  34
ENDBRANCH  19  25
ENDBRANCH   1  21
TORSDOF 9
ENDMDL
MODEL 2
REMARK VINA RESULT:    -7.786      2.558      3.984
REMARK INTER + INTRA:         -13.447
REMARK INTER:                 -11.848
REMARK INTRA:                  -1.599
REMARK UNBOUND:                -1.564
REMARK  Name = 
REMARK  12 active torsions:
REMARK  status: ('A' for Active; 'I' for Inactive)
REMARK    1  A    between atoms: C_1  and  C_2
REMARK    2  A    between atoms: C_2  and  N_3
REMARK    3  A    between atoms: C_5  and  C_6
REMARK    4  A    between atoms: N_8  and  C_9
REMARK    5  A    between atoms: C_9  and  C_10
REMARK    6  A    between atoms: C_13  and  N_14
REMARK    7  A    between atoms: N_14  and  C_15
REMARK    8  A    between atoms: C_15  and  C_16
REMARK    9  A    between atoms: C_15  and  C_17
REMARK   10  A    between atoms: C_17  and  C_18
REMARK   11  A    between atoms: C_27  and  O_28
REMARK   12  A    between atoms: O_28  and  C_29
REMARK                            x       y       z     vdW  Elec       q    Type
REMARK                         _______ _______ _______ _____ _____    ______ ____
ROOT
ATOM      1  C   UNL     1      47.437   8.657  14.288  0.00  0.00    +0.000 C 
ENDROOT
BRANCH   1   2
ATOM      2  C   UNL     1      46.715   7.864  13.226  0.00  0.00    +0.000 A 
ATOM      3  C   UNL     1      47.027   6.530  12.935  0.00  0.00    +0.000 A 
ATOM      4  C   UNL     1      46.271   5.786  12.035  0.00  0.00    +0.000 A 
ATOM      5  C   UNL     1      45.206   6.363  11.352  0.00  0.00    +0.000 A 
ATOM      6  C   UNL     1      44.979   7.731  11.542  0.00  0.00    +0.000 A 
ATOM      7  C   UNL     1      45.700   8.471  12.483  0.00  0.00    +0.000 A 
BRANCH   5   8
ATOM      8  N   UNL     1      44.429   5.660  10.440  0.00  0.00    +0.000 N 
ATOM      9  H   UNL     1      43.439   5.869  10.501  0.00  0.00    +0.000 HD
BRANCH   8  10
ATOM     10  C   UNL     1      44.731   4.263  10.104  0.00  0.00    +0.000 C 
ATOM     11  C   UNL     1      43.798   3.315  10.870  0.00  0.00    +0.000 C 
BRANCH  10  12
ATOM     12  C   UNL     1      44.538   4.047   8.588  0.00  0.00    +0.000 C 
BRANCH  12  13
ATOM     13  C   UNL     1      45.552   3.132   7.940  0.00  0.00    +0.000 A 
ATOM     14  C   UNL     1      46.367   3.580   6.892  0.00  0.00    +0.000 A 
ATOM     15  C   UNL     1      47.337   2.739   6.340  0.00  0.00    +0.000 A 
ATOM     16  C   UNL     1      47.500   1.446   6.830  0.00  0.00    +0.000 A 
ATOM     17  C   UNL     1      46.685   0.984   7.861  0.00  0.00    +0.000 A 
ATOM     18  C   UNL     1      45.715   1.822   8.413  0.00  0.00    +0.000 A 
ENDBRANCH  12  13
ENDBRANCH  10  12
ENDBRANCH   8  10
ENDBRANCH   5   8
ENDBRANCH   1   2
BRANCH   1  21
ATOM     19  C   UNL     1      49.630   7.595  15.060  0.00  0.00    +0.000 C 
ATOM     20  O   UNL     1      50.837   7.540  14.834  0.00  0.00    +0.000 OA
ATOM     21  N   UNL     1      48.853   8.385  14.258  0.00  0.00    +0.000 N 
ATOM     22  H   UNL     1      49.393   8.855  13.544  0.00  0.00    +0.000 HD
BRANCH  19  25
ATOM     23  N   UNL     1      47.971   5.227  17.325  0.00  0.00    +0.000 N 
ATOM     24  C   UNL     1      48.547   5.545  16.132  0.00  0.00    +0.000 A 
ATOM     25  C   UNL     1      49.005   6.849  16.158  0.00  0.00    +0.000 A 
ATOM     26  C   UNL     1      48.765   7.299  17.500  0.00  0.00    +0.000 A 
ATOM     27  C   UNL     1      48.967   8.478  18.223  0.00  0.00    +0.000 A 
ATOM     28  N   UNL     1      48.567   8.553  19.513  0.00  0.00    +0.000 NA
ATOM     29  C   UNL     1      47.977   7.469  20.048  0.00  0.00    +0.000 A 
ATOM     30  N   UNL     1      47.706   6.292  19.462  0.00  0.00    +0.000 NA
ATOM     31  C   UNL     1      48.127   6.268  18.188  0.00  0.00    +0.000 A 
BRANCH  23  33
ATOM     32  C   UNL     1      48.062   2.792  17.026  0.00  0.00    +0.000 C 
ATOM     33  C   UNL     1      47.268   3.979  17.545  0.00  0.00    +0.000 C 
ENDBRANCH  23  33
BRANCH  27  34
ATOM     34  O   UNL     1      49.516   9.580  17.603  0.00  0.00    +0.000 OA
ATOM     35  C   UNL     1      48.565  10.571  17.243  0.00  0.00    +0.000 C 
ENDBRANCH  27  34
ENDBRANCH  19  25
ENDBRANCH   1  21
TORSDOF 9
ENDMDL
MODEL 3
REMARK VINA RESULT:    -7.748      0.996      1.309
REMARK INTER + INTRA:         -13.388
REMARK INTER:                 -11.911
REMARK INTRA:                  -1.477
REMARK UNBOUND:                -1.564
REMARK  Name = 
REMARK  12 active torsions:
REMARK  status: ('A' for Active; 'I' for Inactive)
REMARK    1  A    between atoms: C_1  and  C_2
REMARK    2  A    between atoms: C_2  and  N_3
REMARK    3  A    between atoms: C_5  and  C_6
REMARK    4  A    between atoms: N_8  and  C_9
REMARK    5  A    between atoms: C_9  and  C_10
REMARK    6  A    between atoms: C_13  and  N_14
REMARK    7  A    between atoms: N_14  and  C_15
REMARK    8  A    between atoms: C_15  and  C_16
REMARK    9  A    between atoms: C_15  and  C_17
REMARK   10  A    between atoms: C_17  and  C_18
REMARK   11  A    between atoms: C_27  and  O_28
REMARK   12  A    between atoms: O_28  and  C_29
REMARK                            x       y       z     vdW  Elec       q    Type
REMARK                         _______ _______ _______ _____ _____    ______ ____
ROOT
ATOM      1  C   UNL     1      48.945   6.881  14.269  0.00  0.00    +0.000 C 
ENDROOT
BRANCH   1   2
ATOM      2  C   UNL     1      47.787   6.421  13.418  0.00  0.00    +0.000 A 
ATOM      3  C   UNL     1      47.400   7.083  12.246  0.00  0.00    +0.000 A 
ATOM      4  C   UNL     1      46.404   6.574  11.418  0.00  0.00    +0.000 A 
ATOM      5  C   UNL     1      45.722   5.411  11.756  0.00  0.00    +0.000 A 
ATOM      6  C   UNL     1      46.015   4.824  12.992  0.00  0.00    +0.000 A 
ATOM      7  C   UNL     1      47.048   5.300  13.804  0.00  0.00    +0.000 A 
BRANCH   5   8
ATOM      8  N   UNL     1      44.717   4.872  10.964  0.00  0.00    +0.000 N 
ATOM      9  H   UNL     1      43.823   5.339  11.065  0.00  0.00    +0.000 HD
BRANCH   8  10
ATOM     10  C   UNL     1      44.619   3.423  10.744  0.00  0.00    +0.000 C 
ATOM     11  C   UNL     1      43.505   2.824  11.613  0.00  0.00    +0.000 C 
BRANCH  10  12
ATOM     12  C   UNL     1      44.304   3.151   9.258  0.00  0.00    +0.000 C 
BRANCH  12  13
ATOM     13  C   UNL     1      45.485   2.701   8.427  0.00  0.00    +0.000 A 
ATOM     14  C   UNL     1      45.874   1.355   8.390  0.00  0.00    +0.000 A 
ATOM     15  C   UNL     1      46.933   0.947   7.575  0.00  0.00    +0.000 A 
ATOM     16  C   UNL     1      47.610   1.878   6.791  0.00  0.00    +0.000 A 
ATOM     17  C   UNL     1      47.242   3.221   6.832  0.00  0.00    +0.000 A 
ATOM     18  C   UNL     1      46.186   3.631   7.646  0.00  0.00    +0.000 A 
ENDBRANCH  12  13
ENDBRANCH  10  12
ENDBRANCH   8  10
ENDBRANCH   5   8
ENDBRANCH   1   2
BRANCH   1  21
ATOM     19  C   UNL     1      48.918   7.320  16.786  0.00  0.00    +0.000 C 
ATOM     20  O   UNL     1      48.330   7.927  17.680  0.00  0.00    +0.000 OA
ATOM     21  N   UNL     1      48.476   7.467  15.501  0.00  0.00    +0.000 N 
ATOM     22  H   UNL     1      47.677   8.082  15.438  0.00  0.00    +0.000 HD
BRANCH  19  25
ATOM     23  N   UNL     1      52.163   5.735  17.451  0.00  0.00    +0.000 N 
ATOM     24  C   UNL     1      51.370   6.833  17.310  0.00  0.00    +0.000 A 
ATOM     25  C   UNL     1      50.066   6.448  17.058  0.00  0.00    +0.000 A 
ATOM     26  C   UNL     1      50.078   5.016  17.154  0.00  0.00    +0.000 A 
ATOM     27  C   UNL     1      49.143   3.986  17.020  0.00  0.00    +0.000 A 
ATOM     28  N   UNL     1      49.537   2.698  17.148  0.00  0.00    +0.000 NA
ATOM     29  C   UNL     1      50.838   2.466  17.399  0.00  0.00    +0.000 A 
ATOM     30  N   UNL     1      51.835   3.356  17.529  0.00  0.00    +0.000 NA
ATOM     31  C   UNL     1      51.390   4.615  17.398  0.00  0.00    +0.000 A 
BRANCH  23  33
ATOM     32  C   UNL     1      54.018   6.942  18.514  0.00  0.00    +0.000 C 
ATOM     33  C   UNL     1      53.605   5.822  17.573  0.00  0.00    +0.000 C 
ENDBRANCH  23  33
BRANCH  27  34
ATOM     34  O   UNL     1      47.836   4.280  16.695  0.00  0.00    +0.000 OA
ATOM     35  C   UNL     1      46.999   4.503  17.820  0.00  0.00    +0.000 C 
ENDBRANCH  27  34
ENDBRANCH  19  25
ENDBRANCH   1  21
TORSDOF 9
ENDMDL
MODEL 4
REMARK VINA RESULT:    -7.707      2.585      3.571
REMARK INTER + INTRA:         -13.326
REMARK INTER:                 -11.818
REMARK INTRA:                  -1.508
REMARK UNBOUND:                -1.564
REMARK  Name = 
REMARK  12 active torsions:
REMARK  status: ('A' for Active; 'I' for Inactive)
REMARK    1  A    between atoms: C_1  and  C_2
REMARK    2  A    between atoms: C_2  and  N_3
REMARK    3  A    between atoms: C_5  and  C_6
REMARK    4  A    between atoms: N_8  and  C_9
REMARK    5  A    between atoms: C_9  and  C_10
REMARK    6  A    between atoms: C_13  and  N_14
REMARK    7  A    between atoms: N_14  and  C_15
REMARK    8  A    between atoms: C_15  and  C_16
REMARK    9  A    between atoms: C_15  and  C_17
REMARK   10  A    between atoms: C_17  and  C_18
REMARK   11  A    between atoms: C_27  and  O_28
REMARK   12  A    between atoms: O_28  and  C_29
REMARK                            x       y       z     vdW  Elec       q    Type
REMARK                         _______ _______ _______ _____ _____    ______ ____
ROOT
ATOM      1  C   UNL     1      47.569   8.588  14.100  0.00  0.00    +0.000 C 
ENDROOT
BRANCH   1   2
ATOM      2  C   UNL     1      46.663   7.832  13.159  0.00  0.00    +0.000 A 
ATOM      3  C   UNL     1      45.544   8.416  12.554  0.00  0.00    +0.000 A 
ATOM      4  C   UNL     1      44.793   7.734  11.601  0.00  0.00    +0.000 A 
ATOM      5  C   UNL     1      45.101   6.423  11.257  0.00  0.00    +0.000 A 
ATOM      6  C   UNL     1      46.135   5.794  11.960  0.00  0.00    +0.000 A 
ATOM      7  C   UNL     1      46.926   6.489  12.879  0.00  0.00    +0.000 A 
BRANCH   5   8
ATOM      8  N   UNL     1      44.374   5.703  10.318  0.00  0.00    +0.000 N 
ATOM      9  H   UNL     1      43.392   5.953  10.283  0.00  0.00    +0.000 HD
BRANCH   8  10
ATOM     10  C   UNL     1      44.642   4.278  10.081  0.00  0.00    +0.000 C 
ATOM     11  C   UNL     1      43.682   3.408  10.905  0.00  0.00    +0.000 C 
BRANCH  10  12
ATOM     12  C   UNL     1      44.451   3.964   8.583  0.00  0.00    +0.000 C 
BRANCH  12  13
ATOM     13  C   UNL     1      45.519   3.083   7.975  0.00  0.00    +0.000 A 
ATOM     14  C   UNL     1      46.405   3.579   7.008  0.00  0.00    +0.000 A 
ATOM     15  C   UNL     1      47.421   2.769   6.496  0.00  0.00    +0.000 A 
ATOM     16  C   UNL     1      47.562   1.457   6.945  0.00  0.00    +0.000 A 
ATOM     17  C   UNL     1      46.678   0.949   7.893  0.00  0.00    +0.000 A 
ATOM     18  C   UNL     1      45.661   1.756   8.406  0.00  0.00    +0.000 A 
ENDBRANCH  12  13
ENDBRANCH  10  12
ENDBRANCH   8  10
ENDBRANCH   5   8
ENDBRANCH   1   2
BRANCH   1  21
ATOM     19  C   UNL     1      49.607   7.581  15.268  0.00  0.00    +0.000 C 
ATOM     20  O   UNL     1      50.706   7.067  15.074  0.00  0.00    +0.000 OA
ATOM     21  N   UNL     1      48.864   7.957  14.184  0.00  0.00    +0.000 N 
ATOM     22  H   UNL     1      49.333   7.763  13.311  0.00  0.00    +0.000 HD
BRANCH  19  25
ATOM     23  N   UNL     1      48.552   8.783  18.574  0.00  0.00    +0.000 N 
ATOM     24  C   UNL     1      49.073   8.988  17.332  0.00  0.00    +0.000 A 
ATOM     25  C   UNL     1      49.076   7.804  16.618  0.00  0.00    +0.000 A 
ATOM     26  C   UNL     1      48.418   6.856  17.471  0.00  0.00    +0.000 A 
ATOM     27  C   UNL     1      48.077   5.502  17.404  0.00  0.00    +0.000 A 
ATOM     28  N   UNL     1      47.469   4.908  18.457  0.00  0.00    +0.000 NA
ATOM     29  C   UNL     1      47.221   5.664  19.542  0.00  0.00    +0.000 A 
ATOM     30  N   UNL     1      47.514   6.958  19.742  0.00  0.00    +0.000 NA
ATOM     31  C   UNL     1      48.110   7.500  18.668  0.00  0.00    +0.000 A 
BRANCH  23  33
ATOM     32  C   UNL     1      47.354  10.725  19.481  0.00  0.00    +0.000 C 
ATOM     33  C   UNL     1      48.558   9.805  19.602  0.00  0.00    +0.000 C 
ENDBRANCH  23  33
BRANCH  27  34
ATOM     34  O   UNL     1      48.416   4.761  16.293  0.00  0.00    +0.000 OA
ATOM     35  C   UNL     1      47.320   4.087  15.693  0.00  0.00    +0.000 C 
ENDBRANCH  27  34
ENDBRANCH  19  25
ENDBRANCH   1  21
TORSDOF 9
ENDMDL
MODEL 5
REMARK VINA RESULT:    -6.984      3.263      4.807
REMARK INTER + INTRA:         -12.223
REMARK INTER:                 -10.515
REMARK INTRA:                  -1.708
REMARK UNBOUND:                -1.564
REMARK  Name = 
REMARK  12 active torsions:
REMARK  status: ('A' for Active; 'I' for Inactive)
REMARK    1  A    between atoms: C_1  and  C_2
REMARK    2  A    between atoms: C_2  and  N_3
REMARK    3  A    between atoms: C_5  and  C_6
REMARK    4  A    between atoms: N_8  and  C_9
REMARK    5  A    between atoms: C_9  and  C_10
REMARK    6  A    between atoms: C_13  and  N_14
REMARK    7  A    between atoms: N_14  and  C_15
REMARK    8  A    between atoms: C_15  and  C_16
REMARK    9  A    between atoms: C_15  and  C_17
REMARK   10  A    between atoms: C_17  and  C_18
REMARK   11  A    between atoms: C_27  and  O_28
REMARK   12  A    between atoms: O_28  and  C_29
REMARK                            x       y       z     vdW  Elec       q    Type
REMARK                         _______ _______ _______ _____ _____    ______ ____
ROOT
ATOM      1  C   UNL     1      48.841   6.987  14.484  0.00  0.00    +0.000 C 
ENDROOT
BRANCH   1   2
ATOM      2  C   UNL     1      47.792   6.394  13.575  0.00  0.00    +0.000 A 
ATOM      3  C   UNL     1      46.997   5.303  13.949  0.00  0.00    +0.000 A 
ATOM      4  C   UNL     1      45.959   4.849  13.141  0.00  0.00    +0.000 A 
ATOM      5  C   UNL     1      45.710   5.436  11.906  0.00  0.00    +0.000 A 
ATOM      6  C   UNL     1      46.587   6.436  11.474  0.00  0.00    +0.000 A 
ATOM      7  C   UNL     1      47.599   6.932  12.301  0.00  0.00    +0.000 A 
BRANCH   5   8
ATOM      8  N   UNL     1      44.689   5.010  11.065  0.00  0.00    +0.000 N 
ATOM      9  H   UNL     1      43.770   5.337  11.341  0.00  0.00    +0.000 HD
BRANCH   8  10
ATOM     10  C   UNL     1      44.700   3.663  10.480  0.00  0.00    +0.000 C 
ATOM     11  C   UNL     1      43.572   2.811  11.079  0.00  0.00    +0.000 C 
BRANCH  10  12
ATOM     12  C   UNL     1      44.500   3.765   8.954  0.00  0.00    +0.000 C 
BRANCH  12  13
ATOM     13  C   UNL     1      45.499   2.988   8.126  0.00  0.00    +0.000 A 
ATOM     14  C   UNL     1      46.152   3.578   7.035  0.00  0.00    +0.000 A 
ATOM     15  C   UNL     1      47.112   2.864   6.314  0.00  0.00    +0.000 A 
ATOM     16  C   UNL     1      47.430   1.557   6.677  0.00  0.00    +0.000 A 
ATOM     17  C   UNL     1      46.777   0.956   7.750  0.00  0.00    +0.000 A 
ATOM     18  C   UNL     1      45.816   1.666   8.471  0.00  0.00    +0.000 A 
ENDBRANCH  12  13
ENDBRANCH  10  12
ENDBRANCH   8  10
ENDBRANCH   5   8
ENDBRANCH   1   2
BRANCH   1  21
ATOM     19  C   UNL     1      49.465   9.432  14.081  0.00  0.00    +0.000 C 
ATOM     20  O   UNL     1      49.128  10.592  14.311  0.00  0.00    +0.000 OA
ATOM     21  N   UNL     1      48.691   8.419  14.575  0.00  0.00    +0.000 N 
ATOM     22  H   UNL     1      47.899   8.762  15.099  0.00  0.00    +0.000 HD
BRANCH  19  25
ATOM     23  N   UNL     1      52.072   8.775  11.579  0.00  0.00    +0.000 N 
ATOM     24  C   UNL     1      50.844   9.241  11.939  0.00  0.00    +0.000 A 
ATOM     25  C   UNL     1      50.667   9.108  13.304  0.00  0.00    +0.000 A 
ATOM     26  C   UNL     1      51.924   8.616  13.794  0.00  0.00    +0.000 A 
ATOM     27  C   UNL     1      52.455   8.260  15.036  0.00  0.00    +0.000 A 
ATOM     28  N   UNL     1      53.718   7.783  15.116  0.00  0.00    +0.000 NA
ATOM     29  C   UNL     1      54.416   7.668  13.972  0.00  0.00    +0.000 A 
ATOM     30  N   UNL     1      54.020   7.952  12.721  0.00  0.00    +0.000 NA
ATOM     31  C   UNL     1      52.764   8.425  12.698  0.00  0.00    +0.000 A 
BRANCH  23  33
ATOM     32  C   UNL     1      52.239   7.241   9.669  0.00  0.00    +0.000 C 
ATOM     33  C   UNL     1      52.485   8.645  10.196  0.00  0.00    +0.000 C 
ENDBRANCH  23  33
BRANCH  27  34
ATOM     34  O   UNL     1      51.671   8.336  16.168  0.00  0.00    +0.000 OA
ATOM     35  C   UNL     1      51.689   7.159  16.961  0.00  0.00    +0.000 C 
ENDBRANCH  27  34
ENDBRANCH  19  25
ENDBRANCH   1  21
TORSDOF 9
ENDMDL
MODEL 6
REMARK VINA RESULT:    -6.832      2.460      4.036
REMARK INTER + INTRA:         -11.991
REMARK INTER:                 -10.647
REMARK INTRA:                  -1.344
REMARK UNBOUND:                -1.564
REMARK  Name = 
REMARK  12 active torsions:
REMARK  status: ('A' for Active; 'I' for Inactive)
REMARK    1  A    between atoms: C_1  and  C_2
REMARK    2  A    between atoms: C_2  and  N_3
REMARK    3  A    between atoms: C_5  and  C_6
REMARK    4  A    between atoms: N_8  and  C_9
REMARK    5  A    between atoms: C_9  and  C_10
REMARK    6  A    between atoms: C_13  and  N_14
REMARK    7  A    between atoms: N_14  and  C_15
REMARK    8  A    between atoms: C_15  and  C_16
REMARK    9  A    between atoms: C_15  and  C_17
REMARK   10  A    between atoms: C_17  and  C_18
REMARK   11  A    between atoms: C_27  and  O_28
REMARK   12  A    between atoms: O_28  and  C_29
REMARK                            x       y       z     vdW  Elec       q    Type
REMARK                         _______ _______ _______ _____ _____    ______ ____
ROOT
ATOM      1  C   UNL     1      48.385   5.937  15.493  0.00  0.00    +0.000 C 
ENDROOT
BRANCH   1   2
ATOM      2  C   UNL     1      47.589   5.931  14.211  0.00  0.00    +0.000 A 
ATOM      3  C   UNL     1      47.678   6.956  13.260  0.00  0.00    +0.000 A 
ATOM      4  C   UNL     1      47.024   6.870  12.035  0.00  0.00    +0.000 A 
ATOM      5  C   UNL     1      46.214   5.781  11.735  0.00  0.00    +0.000 A 
ATOM      6  C   UNL     1      46.018   4.824  12.737  0.00  0.00    +0.000 A 
ATOM      7  C   UNL     1      46.712   4.876  13.949  0.00  0.00    +0.000 A 
BRANCH   5   8
ATOM      8  N   UNL     1      45.537   5.658  10.528  0.00  0.00    +0.000 N 
ATOM      9  H   UNL     1      45.104   6.520  10.214  0.00  0.00    +0.000 HD
BRANCH   8  10
ATOM     10  C   UNL     1      44.771   4.447  10.208  0.00  0.00    +0.000 C 
ATOM     11  C   UNL     1      43.336   4.565  10.741  0.00  0.00    +0.000 C 
BRANCH  10  12
ATOM     12  C   UNL     1      44.729   4.258   8.677  0.00  0.00    +0.000 C 
BRANCH  12  13
ATOM     13  C   UNL     1      45.711   3.245   8.132  0.00  0.00    +0.000 A 
ATOM     14  C   UNL     1      45.652   1.899   8.517  0.00  0.00    +0.000 A 
ATOM     15  C   UNL     1      46.531   0.965   7.963  0.00  0.00    +0.000 A 
ATOM     16  C   UNL     1      47.475   1.368   7.021  0.00  0.00    +0.000 A 
ATOM     17  C   UNL     1      47.552   2.706   6.642  0.00  0.00    +0.000 A 
ATOM     18  C   UNL     1      46.676   3.640   7.195  0.00  0.00    +0.000 A 
ENDBRANCH  12  13
ENDBRANCH  10  12
ENDBRANCH   8  10
ENDBRANCH   5   8
ENDBRANCH   1   2
BRANCH   1  21
ATOM     19  C   UNL     1      50.023   7.832  15.997  0.00  0.00    +0.000 C 
ATOM     20  O   UNL     1      51.103   8.321  15.671  0.00  0.00    +0.000 OA
ATOM     21  N   UNL     1      49.593   6.711  15.344  0.00  0.00    +0.000 N 
ATOM     22  H   UNL     1      50.244   6.408  14.633  0.00  0.00    +0.000 HD
BRANCH  19  25
ATOM     23  N   UNL     1      47.896   9.846  18.211  0.00  0.00    +0.000 N 
ATOM     24  C   UNL     1      48.506   9.617  17.015  0.00  0.00    +0.000 A 
ATOM     25  C   UNL     1      49.189   8.416  17.054  0.00  0.00    +0.000 A 
ATOM     26  C   UNL     1      48.876   7.853  18.336  0.00  0.00    +0.000 A 
ATOM     27  C   UNL     1      49.207   6.691  19.039  0.00  0.00    +0.000 A 
ATOM     28  N   UNL     1      48.736   6.505  20.293  0.00  0.00    +0.000 NA
ATOM     29  C   UNL     1      47.959   7.471  20.818  0.00  0.00    +0.000 A 
ATOM     30  N   UNL     1      47.586   8.634  20.263  0.00  0.00    +0.000 NA
ATOM     31  C   UNL     1      48.075   8.766  19.020  0.00  0.00    +0.000 A 
BRANCH  23  33
ATOM     32  C   UNL     1      48.091  12.293  18.157  0.00  0.00    +0.000 C 
ATOM     33  C   UNL     1      47.230  11.096  18.522  0.00  0.00    +0.000 C 
ENDBRANCH  23  33
BRANCH  27  34
ATOM     34  O   UNL     1      50.063   5.767  18.477  0.00  0.00    +0.000 OA
ATOM     35  C   UNL     1      50.553   4.802  19.396  0.00  0.00    +0.000 C 
ENDBRANCH  27  34
ENDBRANCH  19  25
ENDBRANCH   1  21
TORSDOF 9
ENDMDL
MODEL 7
REMARK VINA RESULT:    -6.795      2.205      3.139
REMARK INTER + INTRA:         -11.935
REMARK INTER:                 -10.528
REMARK INTRA:                  -1.407
REMARK UNBOUND:                -1.564
REMARK  Name = 
REMARK  12 active torsions:
REMARK  status: ('A' for Active; 'I' for Inactive)
REMARK    1  A    between atoms: C_1  and  C_2
REMARK    2  A    between atoms: C_2  and  N_3
REMARK    3  A    between atoms: C_5  and  C_6
REMARK    4  A    between atoms: N_8  and  C_9
REMARK    5  A    between atoms: C_9  and  C_10
REMARK    6  A    between atoms: C_13  and  N_14
REMARK    7  A    between atoms: N_14  and  C_15
REMARK    8  A    between atoms: C_15  and  C_16
REMARK    9  A    between atoms: C_15  and  C_17
REMARK   10  A    between atoms: C_17  and  C_18
REMARK   11  A    between atoms: C_27  and  O_28
REMARK   12  A    between atoms: O_28  and  C_29
REMARK                            x       y       z     vdW  Elec       q    Type
REMARK                         _______ _______ _______ _____ _____    ______ ____
ROOT
ATOM      1  C   UNL     1      50.278   8.211  14.459  0.00  0.00    +0.000 C 
ENDROOT
BRANCH   1   2
ATOM      2  C   UNL     1      49.155   7.640  13.629  0.00  0.00    +0.000 A 
ATOM      3  C   UNL     1      48.115   6.882  14.183  0.00  0.00    +0.000 A 
ATOM      4  C   UNL     1      47.031   6.466  13.416  0.00  0.00    +0.000 A 
ATOM      5  C   UNL     1      46.970   6.746  12.057  0.00  0.00    +0.000 A 
ATOM      6  C   UNL     1      48.072   7.385  11.477  0.00  0.00    +0.000 A 
ATOM      7  C   UNL     1      49.140   7.852  12.249  0.00  0.00    +0.000 A 
BRANCH   5   8
ATOM      8  N   UNL     1      45.911   6.344  11.253  0.00  0.00    +0.000 N 
ATOM      9  H   UNL     1      45.288   7.100  10.991  0.00  0.00    +0.000 HD
BRANCH   8  10
ATOM     10  C   UNL     1      45.238   5.057  11.471  0.00  0.00    +0.000 C 
ATOM     11  C   UNL     1      44.251   5.161  12.643  0.00  0.00    +0.000 C 
BRANCH  10  12
ATOM     12  C   UNL     1      44.469   4.658  10.195  0.00  0.00    +0.000 C 
BRANCH  12  13
ATOM     13  C   UNL     1      45.244   3.792   9.227  0.00  0.00    +0.000 A 
ATOM     14  C   UNL     1      45.219   2.394   9.326  0.00  0.00    +0.000 A 
ATOM     15  C   UNL     1      45.896   1.606   8.392  0.00  0.00    +0.000 A 
ATOM     16  C   UNL     1      46.602   2.207   7.352  0.00  0.00    +0.000 A 
ATOM     17  C   UNL     1      46.646   3.596   7.253  0.00  0.00    +0.000 A 
ATOM     18  C   UNL     1      45.972   4.385   8.186  0.00  0.00    +0.000 A 
ENDBRANCH  12  13
ENDBRANCH  10  12
ENDBRANCH   8  10
ENDBRANCH   5   8
ENDBRANCH   1   2
BRANCH   1  21
ATOM     19  C   UNL     1      51.118   6.588  16.246  0.00  0.00    +0.000 C 
ATOM     20  O   UNL     1      51.939   5.702  16.472  0.00  0.00    +0.000 OA
ATOM     21  N   UNL     1      51.101   7.158  15.003  0.00  0.00    +0.000 N 
ATOM     22  H   UNL     1      51.804   6.766  14.392  0.00  0.00    +0.000 HD
BRANCH  19  25
ATOM     23  N   UNL     1      49.189   8.280  18.873  0.00  0.00    +0.000 N 
ATOM     24  C   UNL     1      50.209   8.239  17.971  0.00  0.00    +0.000 A 
ATOM     25  C   UNL     1      50.168   7.051  17.264  0.00  0.00    +0.000 A 
ATOM     26  C   UNL     1      48.978   6.390  17.719  0.00  0.00    +0.000 A 
ATOM     27  C   UNL     1      48.325   5.184  17.449  0.00  0.00    +0.000 A 
ATOM     28  N   UNL     1      47.197   4.864  18.125  0.00  0.00    +0.000 NA
ATOM     29  C   UNL     1      46.752   5.737  19.046  0.00  0.00    +0.000 A 
ATOM     30  N   UNL     1      47.291   6.909  19.413  0.00  0.00    +0.000 NA
ATOM     31  C   UNL     1      48.402   7.182  18.711  0.00  0.00    +0.000 A 
BRANCH  23  33
ATOM     32  C   UNL     1      49.807   8.992  21.140  0.00  0.00    +0.000 C 
ATOM     33  C   UNL     1      49.063   9.334  19.860  0.00  0.00    +0.000 C 
ENDBRANCH  23  33
BRANCH  27  34
ATOM     34  O   UNL     1      48.864   4.296  16.543  0.00  0.00    +0.000 OA
ATOM     35  C   UNL     1      48.201   3.042  16.501  0.00  0.00    +0.000 C 
ENDBRANCH  27  34
ENDBRANCH  19  25
ENDBRANCH   1  21
TORSDOF 9
ENDMDL
MODEL 8
REMARK VINA RESULT:    -6.655      2.719      4.354
REMARK INTER + INTRA:         -11.722
REMARK INTER:                 -10.140
REMARK INTRA:                  -1.582
REMARK UNBOUND:                -1.564
REMARK  Name = 
REMARK  12 active torsions:
REMARK  status: ('A' for Active; 'I' for Inactive)
REMARK    1  A    between atoms: C_1  and  C_2
REMARK    2  A    between atoms: C_2  and  N_3
REMARK    3  A    between atoms: C_5  and  C_6
REMARK    4  A    between atoms: N_8  and  C_9
REMARK    5  A    between atoms: C_9  and  C_10
REMARK    6  A    between atoms: C_13  and  N_14
REMARK    7  A    between atoms: N_14  and  C_15
REMARK    8  A    between atoms: C_15  and  C_16
REMARK    9  A    between atoms: C_15  and  C_17
REMARK   10  A    between atoms: C_17  and  C_18
REMARK   11  A    between atoms: C_27  and  O_28
REMARK   12  A    between atoms: O_28  and  C_29
REMARK                            x       y       z     vdW  Elec       q    Type
REMARK                         _______ _______ _______ _____ _____    ______ ____
ROOT
ATOM      1  C   UNL     1      48.634   6.156  15.180  0.00  0.00    +0.000 C 
ENDROOT
BRANCH   1   2
ATOM      2  C   UNL     1      47.718   6.094  13.983  0.00  0.00    +0.000 A 
ATOM      3  C   UNL     1      47.827   6.978  12.901  0.00  0.00    +0.000 A 
ATOM      4  C   UNL     1      47.048   6.828  11.758  0.00  0.00    +0.000 A 
ATOM      5  C   UNL     1      46.094   5.821  11.674  0.00  0.00    +0.000 A 
ATOM      6  C   UNL     1      45.891   5.023  12.806  0.00  0.00    +0.000 A 
ATOM      7  C   UNL     1      46.705   5.134  13.937  0.00  0.00    +0.000 A 
BRANCH   5   8
ATOM      8  N   UNL     1      45.289   5.639  10.556  0.00  0.00    +0.000 N 
ATOM      9  H   UNL     1      44.549   6.328  10.470  0.00  0.00    +0.000 HD
BRANCH   8  10
ATOM     10  C   UNL     1      44.917   4.294  10.099  0.00  0.00    +0.000 C 
ATOM     11  C   UNL     1      43.542   3.900  10.656  0.00  0.00    +0.000 C 
BRANCH  10  12
ATOM     12  C   UNL     1      44.863   4.274   8.557  0.00  0.00    +0.000 C 
BRANCH  12  13
ATOM     13  C   UNL     1      45.736   3.227   7.902  0.00  0.00    +0.000 A 
ATOM     14  C   UNL     1      46.542   3.542   6.799  0.00  0.00    +0.000 A 
ATOM     15  C   UNL     1      47.383   2.578   6.239  0.00  0.00    +0.000 A 
ATOM     16  C   UNL     1      47.428   1.293   6.775  0.00  0.00    +0.000 A 
ATOM     17  C   UNL     1      46.620   0.965   7.861  0.00  0.00    +0.000 A 
ATOM     18  C   UNL     1      45.778   1.926   8.421  0.00  0.00    +0.000 A 
ENDBRANCH  12  13
ENDBRANCH  10  12
ENDBRANCH   8  10
ENDBRANCH   5   8
ENDBRANCH   1   2
BRANCH   1  21
ATOM     19  C   UNL     1      48.728   8.506  16.178  0.00  0.00    +0.000 C 
ATOM     20  O   UNL     1      48.238   9.239  17.036  0.00  0.00    +0.000 OA
ATOM     21  N   UNL     1      48.252   7.230  16.064  0.00  0.00    +0.000 N 
ATOM     22  H   UNL     1      47.523   7.031  16.735  0.00  0.00    +0.000 HD
BRANCH  19  25
ATOM     23  N   UNL     1      50.899   9.959  13.597  0.00  0.00    +0.000 N 
ATOM     24  C   UNL     1      49.697   9.840  14.227  0.00  0.00    +0.000 A 
ATOM     25  C   UNL     1      49.802   8.957  15.286  0.00  0.00    +0.000 A 
ATOM     26  C   UNL     1      51.193   8.607  15.339  0.00  0.00    +0.000 A 
ATOM     27  C   UNL     1      51.998   7.783  16.130  0.00  0.00    +0.000 A 
ATOM     28  N   UNL     1      53.318   7.665  15.853  0.00  0.00    +0.000 NA
ATOM     29  C   UNL     1      53.800   8.358  14.805  0.00  0.00    +0.000 A 
ATOM     30  N   UNL     1      53.136   9.161  13.960  0.00  0.00    +0.000 NA
ATOM     31  C   UNL     1      51.835   9.247  14.280  0.00  0.00    +0.000 A 
BRANCH  23  33
ATOM     32  C   UNL     1      51.251  12.185  12.621  0.00  0.00    +0.000 C 
ATOM     33  C   UNL     1      51.063  10.699  12.361  0.00  0.00    +0.000 C 
ENDBRANCH  23  33
BRANCH  27  34
ATOM     34  O   UNL     1      51.437   7.044  17.149  0.00  0.00    +0.000 OA
ATOM     35  C   UNL     1      51.652   5.645  17.033  0.00  0.00    +0.000 C 
ENDBRANCH  27  34
ENDBRANCH  19  25
ENDBRANCH   1  21
TORSDOF 9
ENDMDL
MODEL 9
REMARK VINA RESULT:    -6.605      2.644      3.963
REMARK INTER + INTRA:         -11.644
REMARK INTER:                 -10.203
REMARK INTRA:                  -1.441
REMARK UNBOUND:                -1.564
REMARK  Name = 
REMARK  12 active torsions:
REMARK  status: ('A' for Active; 'I' for Inactive)
REMARK    1  A    between atoms: C_1  and  C_2
REMARK    2  A    between atoms: C_2  and  N_3
REMARK    3  A    between atoms: C_5  and  C_6
REMARK    4  A    between atoms: N_8  and  C_9
REMARK    5  A    between atoms: C_9  and  C_10
REMARK    6  A    between atoms: C_13  and  N_14
REMARK    7  A    between atoms: N_14  and  C_15
REMARK    8  A    between atoms: C_15  and  C_16
REMARK    9  A    between atoms: C_15  and  C_17
REMARK   10  A    between atoms: C_17  and  C_18
REMARK   11  A    between atoms: C_27  and  O_28
REMARK   12  A    between atoms: O_28  and  C_29
REMARK                            x       y       z     vdW  Elec       q    Type
REMARK                         _______ _______ _______ _____ _____    ______ ____
ROOT
ATOM      1  C   UNL     1      48.461   6.005  15.351  0.00  0.00    +0.000 C 
ENDROOT
BRANCH   1   2
ATOM      2  C   UNL     1      47.517   5.894  14.179  0.00  0.00    +0.000 A 
ATOM      3  C   UNL     1      47.386   6.901  13.215  0.00  0.00    +0.000 A 
ATOM      4  C   UNL     1      46.597   6.726  12.082  0.00  0.00    +0.000 A 
ATOM      5  C   UNL     1      45.868   5.558  11.897  0.00  0.00    +0.000 A 
ATOM      6  C   UNL     1      45.892   4.608  12.924  0.00  0.00    +0.000 A 
ATOM      7  C   UNL     1      46.722   4.754  14.039  0.00  0.00    +0.000 A 
BRANCH   5   8
ATOM      8  N   UNL     1      45.061   5.344  10.786  0.00  0.00    +0.000 N 
ATOM      9  H   UNL     1      44.223   5.915  10.775  0.00  0.00    +0.000 HD
BRANCH   8  10
ATOM     10  C   UNL     1      44.882   3.998  10.227  0.00  0.00    +0.000 C 
ATOM     11  C   UNL     1      43.595   3.360  10.769  0.00  0.00    +0.000 C 
BRANCH  10  12
ATOM     12  C   UNL     1      44.791   4.090   8.689  0.00  0.00    +0.000 C 
BRANCH  12  13
ATOM     13  C   UNL     1      45.657   3.103   7.939  0.00  0.00    +0.000 A 
ATOM     14  C   UNL     1      46.306   3.464   6.751  0.00  0.00    +0.000 A 
ATOM     15  C   UNL     1      47.145   2.558   6.098  0.00  0.00    +0.000 A 
ATOM     16  C   UNL     1      47.344   1.285   6.628  0.00  0.00    +0.000 A 
ATOM     17  C   UNL     1      46.692   0.909   7.799  0.00  0.00    +0.000 A 
ATOM     18  C   UNL     1      45.852   1.812   8.452  0.00  0.00    +0.000 A 
ENDBRANCH  12  13
ENDBRANCH  10  12
ENDBRANCH   8  10
ENDBRANCH   5   8
ENDBRANCH   1   2
BRANCH   1  21
ATOM     19  C   UNL     1      49.362   8.213  16.270  0.00  0.00    +0.000 C 
ATOM     20  O   UNL     1      49.034   9.274  16.798  0.00  0.00    +0.000 OA
ATOM     21  N   UNL     1      48.382   7.314  15.952  0.00  0.00    +0.000 N 
ATOM     22  H   UNL     1      47.462   7.644  16.206  0.00  0.00    +0.000 HD
BRANCH  19  25
ATOM     23  N   UNL     1      52.879   7.161  16.203  0.00  0.00    +0.000 N 
ATOM     24  C   UNL     1      51.654   7.216  16.795  0.00  0.00    +0.000 A 
ATOM     25  C   UNL     1      50.762   7.886  15.978  0.00  0.00    +0.000 A 
ATOM     26  C   UNL     1      51.496   8.159  14.775  0.00  0.00    +0.000 A 
ATOM     27  C   UNL     1      51.238   8.789  13.554  0.00  0.00    +0.000 A 
ATOM     28  N   UNL     1      52.221   8.896  12.631  0.00  0.00    +0.000 NA
ATOM     29  C   UNL     1      53.426   8.385  12.941  0.00  0.00    +0.000 A 
ATOM     30  N   UNL     1      53.809   7.780  14.076  0.00  0.00    +0.000 NA
ATOM     31  C   UNL     1      52.798   7.695  14.954  0.00  0.00    +0.000 A 
BRANCH  23  33
ATOM     32  C   UNL     1      53.831   5.241  17.402  0.00  0.00    +0.000 C 
ATOM     33  C   UNL     1      54.054   6.652  16.884  0.00  0.00    +0.000 C 
ENDBRANCH  23  33
BRANCH  27  34
ATOM     34  O   UNL     1      50.003   9.354  13.318  0.00  0.00    +0.000 OA
ATOM     35  C   UNL     1      49.955  10.753  13.551  0.00  0.00    +0.000 C 
ENDBRANCH  27  34
ENDBRANCH  19  25
ENDBRANCH   1  21
TORSDOF 9
ENDMDL
