MODEL 1
REMARK VINA RESULT:    -8.377      0.000      0.000
REMARK INTER + INTRA:         -12.622
REMARK INTER:                 -11.805
REMARK INTRA:                  -0.817
REMARK UNBOUND:                -0.817
REMARK  Name = 
REMARK  7 active torsions:
REMARK  status: ('A' for Active; 'I' for Inactive)
REMARK    1  A    between atoms: C_2  and  C_20
REMARK    2  A    between atoms: N_3  and  C_4
REMARK    3  A    between atoms: C_4  and  C_5
REMARK    4  A    between atoms: C_8  and  C_9
REMARK    5  A    between atoms: C_9  and  O_10
REMARK    6  A    between atoms: O_10  and  C_11
REMARK    7  A    between atoms: C_11  and  C_12
REMARK                            x       y       z     vdW  Elec       q    Type
REMARK                         _______ _______ _______ _____ _____    ______ ____
ROOT
ATOM      1  C   UNL     1      47.959   6.464  14.001  0.00  0.00    +0.000 C 
ENDROOT
BRANCH   1   2
ATOM      2  C   UNL     1      46.816   5.948  13.165  0.00  0.00    +0.000 A 
ATOM      3  C   UNL     1      46.583   6.474  11.888  0.00  0.00    +0.000 A 
ATOM      4  C   UNL     1      45.531   5.999  11.103  0.00  0.00    +0.000 A 
ATOM      5  C   UNL     1      44.680   4.992  11.578  0.00  0.00    +0.000 A 
ATOM      6  C   UNL     1      44.891   4.488  12.869  0.00  0.00    +0.000 A 
ATOM      7  C   UNL     1      45.945   4.965  13.657  0.00  0.00    +0.000 A 
BRANCH   5   8
ATOM      8  C   UNL     1      43.559   4.473  10.712  0.00  0.00    +0.000 C 
BRANCH   8   9
ATOM      9  O   UNL     1      44.095   4.075   9.452  0.00  0.00    +0.000 OA
BRANCH   9  10
ATOM     10  C   UNL     1      44.528   2.712   9.472  0.00  0.00    +0.000 C 
BRANCH  10  11
ATOM     11  C   UNL     1      45.555   2.438   8.395  0.00  0.00    +0.000 A 
ATOM     12  C   UNL     1      45.975   3.446   7.528  0.00  0.00    +0.000 A 
ATOM     13  C   UNL     1      46.947   3.158   6.573  0.00  0.00    +0.000 A 
ATOM     14  C   UNL     1      47.483   1.879   6.512  0.00  0.00    +0.000 A 
ATOM     15  C   UNL     1      47.025   0.937   7.417  0.00  0.00    +0.000 A 
ATOM     16  N   UNL     1      46.084   1.187   8.355  0.00  0.00    +0.000 NA
ENDBRANCH  10  11
ENDBRANCH   9  10
ENDBRANCH   8   9
ENDBRANCH   5   8
ENDBRANCH   1   2
BRANCH   1  19
ATOM     17  O   UNL     1      50.094   6.459  15.819  0.00  0.00    +0.000 OA
ATOM     18  C   UNL     1      49.061   5.868  16.121  0.00  0.00    +0.000 C 
ATOM     19  N   UNL     1      47.951   5.859  15.308  0.00  0.00    +0.000 N 
ATOM     20  H   UNL     1      47.107   5.402  15.612  0.00  0.00    +0.000 HD
BRANCH  18  21
ATOM     21  C   UNL     1      48.931   5.086  17.353  0.00  0.00    +0.000 A 
ATOM     22  C   UNL     1      49.258   3.744  17.533  0.00  0.00    +0.000 A 
ATOM     23  N   UNL     1      49.090   3.425  18.855  0.00  0.00    +0.000 N 
ATOM     24  C   UNL     1      48.665   4.523  19.545  0.00  0.00    +0.000 A 
ATOM     25  N   UNL     1      48.469   4.541  20.875  0.00  0.00    +0.000 NA
ATOM     26  C   UNL     1      48.037   5.741  21.323  0.00  0.00    +0.000 A 
ATOM     27  C   UNL     1      47.769   6.850  20.533  0.00  0.00    +0.000 A 
ATOM     28  C   UNL     1      47.993   6.771  19.156  0.00  0.00    +0.000 A 
ATOM     29  C   UNL     1      48.492   5.560  18.638  0.00  0.00    +0.000 A 
ATOM     30  H   UNL     1      49.273   2.532  19.288  0.00  0.00    +0.000 HD
ENDBRANCH  18  21
ENDBRANCH   1  19
TORSDOF 7
ENDMDL
MODEL 2
REMARK VINA RESULT:    -8.139      1.373      2.139
REMARK INTER + INTRA:         -12.286
REMARK INTER:                 -11.253
REMARK INTRA:                  -1.033
REMARK UNBOUND:                -0.817
REMARK  Name = 
REMARK  7 active torsions:
REMARK  status: ('A' for Active; 'I' for Inactive)
REMARK    1  A    between atoms: C_2  and  C_20
REMARK    2  A    between atoms: N_3  and  C_4
REMARK    3  A    between atoms: C_4  and  C_5
REMARK    4  A    between atoms: C_8  and  C_9
REMARK    5  A    between atoms: C_9  and  O_10
REMARK    6  A    between atoms: O_10  and  C_11
REMARK    7  A    between atoms: C_11  and  C_12
REMARK                            x       y       z     vdW  Elec       q    Type
REMARK                         _______ _______ _______ _____ _____    ______ ____
ROOT
ATOM      1  C   UNL     1      47.084   7.868  13.324  0.00  0.00    +0.000 C 
ENDROOT
BRANCH   1   2
ATOM      2  C   UNL     1      46.135   6.850  12.745  0.00  0.00    +0.000 A 
ATOM      3  C   UNL     1      46.248   5.500  13.100  0.00  0.00    +0.000 A 
ATOM      4  C   UNL     1      45.369   4.549  12.574  0.00  0.00    +0.000 A 
ATOM      5  C   UNL     1      44.363   4.924  11.674  0.00  0.00    +0.000 A 
ATOM      6  C   UNL     1      44.270   6.270  11.292  0.00  0.00    +0.000 A 
ATOM      7  C   UNL     1      45.151   7.222  11.818  0.00  0.00    +0.000 A 
BRANCH   5   8
ATOM      8  C   UNL     1      43.408   3.892  11.129  0.00  0.00    +0.000 C 
BRANCH   8   9
ATOM      9  O   UNL     1      43.776   3.583   9.787  0.00  0.00    +0.000 OA
BRANCH   9  10
ATOM     10  C   UNL     1      44.500   2.352   9.710  0.00  0.00    +0.000 C 
BRANCH  10  11
ATOM     11  C   UNL     1      45.483   2.354   8.560  0.00  0.00    +0.000 A 
ATOM     12  C   UNL     1      45.707   3.505   7.807  0.00  0.00    +0.000 A 
ATOM     13  C   UNL     1      46.646   3.471   6.778  0.00  0.00    +0.000 A 
ATOM     14  C   UNL     1      47.344   2.297   6.533  0.00  0.00    +0.000 A 
ATOM     15  C   UNL     1      47.077   1.201   7.335  0.00  0.00    +0.000 A 
ATOM     16  N   UNL     1      46.173   1.203   8.340  0.00  0.00    +0.000 NA
ENDBRANCH  10  11
ENDBRANCH   9  10
ENDBRANCH   8   9
ENDBRANCH   5   8
ENDBRANCH   1   2
BRANCH   1  19
ATOM     17  O   UNL     1      49.651   6.919  13.932  0.00  0.00    +0.000 OA
ATOM     18  C   UNL     1      48.812   6.962  14.826  0.00  0.00    +0.000 C 
ATOM     19  N   UNL     1      47.544   7.456  14.625  0.00  0.00    +0.000 N 
ATOM     20  H   UNL     1      46.898   7.518  15.396  0.00  0.00    +0.000 HD
BRANCH  18  21
ATOM     21  C   UNL     1      49.070   6.455  16.176  0.00  0.00    +0.000 A 
ATOM     22  C   UNL     1      49.754   7.108  17.201  0.00  0.00    +0.000 A 
ATOM     23  N   UNL     1      49.682   6.340  18.334  0.00  0.00    +0.000 N 
ATOM     24  C   UNL     1      48.967   5.205  18.079  0.00  0.00    +0.000 A 
ATOM     25  N   UNL     1      48.674   4.281  19.010  0.00  0.00    +0.000 NA
ATOM     26  C   UNL     1      47.965   3.243  18.511  0.00  0.00    +0.000 A 
ATOM     27  C   UNL     1      47.596   3.081  17.184  0.00  0.00    +0.000 A 
ATOM     28  C   UNL     1      47.929   4.076  16.261  0.00  0.00    +0.000 A 
ATOM     29  C   UNL     1      48.623   5.207  16.733  0.00  0.00    +0.000 A 
ATOM     30  H   UNL     1      50.062   6.566  19.241  0.00  0.00    +0.000 HD
ENDBRANCH  18  21
ENDBRANCH   1  19
TORSDOF 7
ENDMDL
MODEL 3
REMARK VINA RESULT:    -7.855      1.679      2.231
REMARK INTER + INTRA:         -11.886
REMARK INTER:                 -10.968
REMARK INTRA:                  -0.918
REMARK UNBOUND:                -0.817
REMARK  Name = 
REMARK  7 active torsions:
REMARK  status: ('A' for Active; 'I' for Inactive)
REMARK    1  A    between atoms: C_2  and  C_20
REMARK    2  A    between atoms: N_3  and  C_4
REMARK    3  A    between atoms: C_4  and  C_5
REMARK    4  A    between atoms: C_8  and  C_9
REMARK    5  A    between atoms: C_9  and  O_10
REMARK    6  A    between atoms: O_10  and  C_11
REMARK    7  A    between atoms: C_11  and  C_12
REMARK                            x       y       z     vdW  Elec       q    Type
REMARK                         _______ _______ _______ _____ _____    ______ ____
ROOT
ATOM      1  C   UNL     1      48.199   6.724  13.273  0.00  0.00    +0.000 C 
ENDROOT
BRANCH   1   2
ATOM      2  C   UNL     1      47.005   6.006  12.696  0.00  0.00    +0.000 A 
ATOM      3  C   UNL     1      46.550   4.817  13.278  0.00  0.00    +0.000 A 
ATOM      4  C   UNL     1      45.442   4.147  12.755  0.00  0.00    +0.000 A 
ATOM      5  C   UNL     1      44.766   4.645  11.634  0.00  0.00    +0.000 A 
ATOM      6  C   UNL     1      45.241   5.818  11.030  0.00  0.00    +0.000 A 
ATOM      7  C   UNL     1      46.352   6.489  11.553  0.00  0.00    +0.000 A 
BRANCH   5   8
ATOM      8  C   UNL     1      43.557   3.924  11.091  0.00  0.00    +0.000 C 
BRANCH   8   9
ATOM      9  O   UNL     1      43.816   3.537   9.743  0.00  0.00    +0.000 OA
BRANCH   9  10
ATOM     10  C   UNL     1      44.528   2.299   9.678  0.00  0.00    +0.000 C 
BRANCH  10  11
ATOM     11  C   UNL     1      45.497   2.274   8.516  0.00  0.00    +0.000 A 
ATOM     12  C   UNL     1      45.739   3.416   7.756  0.00  0.00    +0.000 A 
ATOM     13  C   UNL     1      46.664   3.356   6.716  0.00  0.00    +0.000 A 
ATOM     14  C   UNL     1      47.331   2.165   6.468  0.00  0.00    +0.000 A 
ATOM     15  C   UNL     1      47.049   1.079   7.277  0.00  0.00    +0.000 A 
ATOM     16  N   UNL     1      46.157   1.106   8.293  0.00  0.00    +0.000 NA
ENDBRANCH  10  11
ENDBRANCH   9  10
ENDBRANCH   8   9
ENDBRANCH   5   8
ENDBRANCH   1   2
BRANCH   1  19
ATOM     17  O   UNL     1      50.220   6.702  15.215  0.00  0.00    +0.000 OA
ATOM     18  C   UNL     1      49.062   6.897  15.572  0.00  0.00    +0.000 C 
ATOM     19  N   UNL     1      48.017   6.969  14.680  0.00  0.00    +0.000 N 
ATOM     20  H   UNL     1      47.088   7.177  15.007  0.00  0.00    +0.000 HD
BRANCH  18  21
ATOM     21  C   UNL     1      48.682   7.030  16.981  0.00  0.00    +0.000 A 
ATOM     22  C   UNL     1      48.694   6.029  17.950  0.00  0.00    +0.000 A 
ATOM     23  N   UNL     1      48.372   6.587  19.160  0.00  0.00    +0.000 N 
ATOM     24  C   UNL     1      48.155   7.926  19.009  0.00  0.00    +0.000 A 
ATOM     25  N   UNL     1      47.880   8.759  20.027  0.00  0.00    +0.000 NA
ATOM     26  C   UNL     1      47.694  10.036  19.622  0.00  0.00    +0.000 A 
ATOM     27  C   UNL     1      47.728  10.480  18.308  0.00  0.00    +0.000 A 
ATOM     28  C   UNL     1      48.020   9.567  17.291  0.00  0.00    +0.000 A 
ATOM     29  C   UNL     1      48.274   8.231  17.659  0.00  0.00    +0.000 A 
ATOM     30  H   UNL     1      48.327   6.114  20.050  0.00  0.00    +0.000 HD
ENDBRANCH  18  21
ENDBRANCH   1  19
TORSDOF 7
ENDMDL
MODEL 4
REMARK VINA RESULT:    -7.466      1.443      2.249
REMARK INTER + INTRA:         -11.338
REMARK INTER:                 -10.532
REMARK INTRA:                  -0.806
REMARK UNBOUND:                -0.817
REMARK  Name = 
REMARK  7 active torsions:
REMARK  status: ('A' for Active; 'I' for Inactive)
REMARK    1  A    between atoms: C_2  and  C_20
REMARK    2  A    between atoms: N_3  and  C_4
REMARK    3  A    between atoms: C_4  and  C_5
REMARK    4  A    between atoms: C_8  and  C_9
REMARK    5  A    between atoms: C_9  and  O_10
REMARK    6  A    between atoms: O_10  and  C_11
REMARK    7  A    between atoms: C_11  and  C_12
REMARK                            x       y       z     vdW  Elec       q    Type
REMARK                         _______ _______ _______ _____ _____    ______ ____
ROOT
ATOM      1  C   UNL     1      48.611   6.569  13.545  0.00  0.00    +0.000 C 
ENDROOT
BRANCH   1   2
ATOM      2  C   UNL     1      47.341   6.081  12.897  0.00  0.00    +0.000 A 
ATOM      3  C   UNL     1      46.678   4.957  13.407  0.00  0.00    +0.000 A 
ATOM      4  C   UNL     1      45.496   4.499  12.818  0.00  0.00    +0.000 A 
ATOM      5  C   UNL     1      44.954   5.148  11.701  0.00  0.00    +0.000 A 
ATOM      6  C   UNL     1      45.635   6.253  11.170  0.00  0.00    +0.000 A 
ATOM      7  C   UNL     1      46.819   6.711  11.759  0.00  0.00    +0.000 A 
BRANCH   5   8
ATOM      8  C   UNL     1      43.667   4.657  11.087  0.00  0.00    +0.000 C 
BRANCH   8   9
ATOM      9  O   UNL     1      43.914   4.281   9.734  0.00  0.00    +0.000 OA
BRANCH   9  10
ATOM     10  C   UNL     1      44.363   2.926   9.638  0.00  0.00    +0.000 C 
BRANCH  10  11
ATOM     11  C   UNL     1      45.432   2.767   8.580  0.00  0.00    +0.000 A 
ATOM     12  C   UNL     1      46.073   1.545   8.383  0.00  0.00    +0.000 A 
ATOM     13  C   UNL     1      47.028   1.435   7.374  0.00  0.00    +0.000 A 
ATOM     14  C   UNL     1      47.311   2.538   6.583  0.00  0.00    +0.000 A 
ATOM     15  C   UNL     1      46.620   3.712   6.829  0.00  0.00    +0.000 A 
ATOM     16  N   UNL     1      45.689   3.850   7.800  0.00  0.00    +0.000 NA
ENDBRANCH  10  11
ENDBRANCH   9  10
ENDBRANCH   8   9
ENDBRANCH   5   8
ENDBRANCH   1   2
BRANCH   1  19
ATOM     17  O   UNL     1      50.150   6.202  15.859  0.00  0.00    +0.000 OA
ATOM     18  C   UNL     1      49.126   6.875  15.933  0.00  0.00    +0.000 C 
ATOM     19  N   UNL     1      48.338   7.142  14.838  0.00  0.00    +0.000 N 
ATOM     20  H   UNL     1      47.531   7.737  14.929  0.00  0.00    +0.000 HD
BRANCH  18  21
ATOM     21  C   UNL     1      48.629   7.419  17.199  0.00  0.00    +0.000 A 
ATOM     22  C   UNL     1      48.152   8.708  17.428  0.00  0.00    +0.000 A 
ATOM     23  N   UNL     1      47.684   8.780  18.714  0.00  0.00    +0.000 N 
ATOM     24  C   UNL     1      47.839   7.573  19.331  0.00  0.00    +0.000 A 
ATOM     25  N   UNL     1      47.420   7.312  20.581  0.00  0.00    +0.000 NA
ATOM     26  C   UNL     1      47.698   6.048  20.973  0.00  0.00    +0.000 A 
ATOM     27  C   UNL     1      48.378   5.101  20.221  0.00  0.00    +0.000 A 
ATOM     28  C   UNL     1      48.789   5.430  18.927  0.00  0.00    +0.000 A 
ATOM     29  C   UNL     1      48.482   6.717  18.445  0.00  0.00    +0.000 A 
ATOM     30  H   UNL     1      47.256   9.580  19.157  0.00  0.00    +0.000 HD
ENDBRANCH  18  21
ENDBRANCH   1  19
TORSDOF 7
ENDMDL
MODEL 5
REMARK VINA RESULT:    -7.444      3.843      6.123
REMARK INTER + INTRA:         -11.307
REMARK INTER:                 -10.318
REMARK INTRA:                  -0.989
REMARK UNBOUND:                -0.817
REMARK  Name = 
REMARK  7 active torsions:
REMARK  status: ('A' for Active; 'I' for Inactive)
REMARK    1  A    between atoms: C_2  and  C_20
REMARK    2  A    between atoms: N_3  and  C_4
REMARK    3  A    between atoms: C_4  and  C_5
REMARK    4  A    between atoms: C_8  and  C_9
REMARK    5  A    between atoms: C_9  and  O_10
REMARK    6  A    between atoms: O_10  and  C_11
REMARK    7  A    between atoms: C_11  and  C_12
REMARK                            x       y       z     vdW  Elec       q    Type
REMARK                         _______ _______ _______ _____ _____    ______ ____
ROOT
ATOM      1  C   UNL     1      47.522   6.644  13.786  0.00  0.00    +0.000 C 
ENDROOT
BRANCH   1   2
ATOM      2  C   UNL     1      46.528   5.696  13.164  0.00  0.00    +0.000 A 
ATOM      3  C   UNL     1      45.497   6.188  12.354  0.00  0.00    +0.000 A 
ATOM      4  C   UNL     1      44.575   5.318  11.768  0.00  0.00    +0.000 A 
ATOM      5  C   UNL     1      44.656   3.936  11.985  0.00  0.00    +0.000 A 
ATOM      6  C   UNL     1      45.667   3.445  12.822  0.00  0.00    +0.000 A 
ATOM      7  C   UNL     1      46.591   4.317  13.410  0.00  0.00    +0.000 A 
BRANCH   5   8
ATOM      8  C   UNL     1      43.666   3.005  11.329  0.00  0.00    +0.000 C 
BRANCH   8   9
ATOM      9  O   UNL     1      43.889   3.010   9.921  0.00  0.00    +0.000 OA
BRANCH   9  10
ATOM     10  C   UNL     1      44.544   1.815   9.487  0.00  0.00    +0.000 C 
BRANCH  10  11
ATOM     11  C   UNL     1      45.602   2.106   8.446  0.00  0.00    +0.000 A 
ATOM     12  C   UNL     1      45.779   3.392   7.940  0.00  0.00    +0.000 A 
ATOM     13  C   UNL     1      46.789   3.621   7.007  0.00  0.00    +0.000 A 
ATOM     14  C   UNL     1      47.601   2.568   6.613  0.00  0.00    +0.000 A 
ATOM     15  C   UNL     1      47.374   1.323   7.173  0.00  0.00    +0.000 A 
ATOM     16  N   UNL     1      46.403   1.070   8.079  0.00  0.00    +0.000 NA
ENDBRANCH  10  11
ENDBRANCH   9  10
ENDBRANCH   8   9
ENDBRANCH   5   8
ENDBRANCH   1   2
BRANCH   1  19
ATOM     17  O   UNL     1      48.710   8.002  11.640  0.00  0.00    +0.000 OA
ATOM     18  C   UNL     1      47.909   8.605  12.348  0.00  0.00    +0.000 C 
ATOM     19  N   UNL     1      47.248   8.002  13.392  0.00  0.00    +0.000 N 
ATOM     20  H   UNL     1      46.563   8.518  13.921  0.00  0.00    +0.000 HD
BRANCH  18  21
ATOM     21  C   UNL     1      47.617  10.029  12.171  0.00  0.00    +0.000 A 
ATOM     22  C   UNL     1      48.533  11.080  12.174  0.00  0.00    +0.000 A 
ATOM     23  N   UNL     1      47.870  12.240  11.870  0.00  0.00    +0.000 N 
ATOM     24  C   UNL     1      46.546  11.976  11.663  0.00  0.00    +0.000 A 
ATOM     25  N   UNL     1      45.648  12.904  11.289  0.00  0.00    +0.000 NA
ATOM     26  C   UNL     1      44.400  12.400  11.159  0.00  0.00    +0.000 A 
ATOM     27  C   UNL     1      44.028  11.088  11.416  0.00  0.00    +0.000 A 
ATOM     28  C   UNL     1      45.007  10.168  11.802  0.00  0.00    +0.000 A 
ATOM     29  C   UNL     1      46.335  10.625  11.904  0.00  0.00    +0.000 A 
ATOM     30  H   UNL     1      48.275  13.159  11.773  0.00  0.00    +0.000 HD
ENDBRANCH  18  21
ENDBRANCH   1  19
TORSDOF 7
ENDMDL
MODEL 6
REMARK VINA RESULT:    -7.313      3.695      6.131
REMARK INTER + INTRA:         -11.122
REMARK INTER:                 -10.309
REMARK INTRA:                  -0.813
REMARK UNBOUND:                -0.817
REMARK  Name = 
REMARK  7 active torsions:
REMARK  status: ('A' for Active; 'I' for Inactive)
REMARK    1  A    between atoms: C_2  and  C_20
REMARK    2  A    between atoms: N_3  and  C_4
REMARK    3  A    between atoms: C_4  and  C_5
REMARK    4  A    between atoms: C_8  and  C_9
REMARK    5  A    between atoms: C_9  and  O_10
REMARK    6  A    between atoms: O_10  and  C_11
REMARK    7  A    between atoms: C_11  and  C_12
REMARK                            x       y       z     vdW  Elec       q    Type
REMARK                         _______ _______ _______ _____ _____    ______ ____
ROOT
ATOM      1  C   UNL     1      47.754   6.762  13.851  0.00  0.00    +0.000 C 
ENDROOT
BRANCH   1   2
ATOM      2  C   UNL     1      46.678   6.015  13.103  0.00  0.00    +0.000 A 
ATOM      3  C   UNL     1      46.466   4.653  13.349  0.00  0.00    +0.000 A 
ATOM      4  C   UNL     1      45.468   3.953  12.666  0.00  0.00    +0.000 A 
ATOM      5  C   UNL     1      44.664   4.596  11.715  0.00  0.00    +0.000 A 
ATOM      6  C   UNL     1      44.898   5.952  11.444  0.00  0.00    +0.000 A 
ATOM      7  C   UNL     1      45.899   6.653  12.128  0.00  0.00    +0.000 A 
BRANCH   5   8
ATOM      8  C   UNL     1      43.577   3.835  11.000  0.00  0.00    +0.000 C 
BRANCH   8   9
ATOM      9  O   UNL     1      43.999   3.571   9.663  0.00  0.00    +0.000 OA
BRANCH   9  10
ATOM     10  C   UNL     1      44.609   2.282   9.549  0.00  0.00    +0.000 C 
BRANCH  10  11
ATOM     11  C   UNL     1      45.611   2.238   8.417  0.00  0.00    +0.000 A 
ATOM     12  C   UNL     1      45.860   3.362   7.632  0.00  0.00    +0.000 A 
ATOM     13  C   UNL     1      46.816   3.286   6.622  0.00  0.00    +0.000 A 
ATOM     14  C   UNL     1      47.505   2.098   6.426  0.00  0.00    +0.000 A 
ATOM     15  C   UNL     1      47.212   1.030   7.256  0.00  0.00    +0.000 A 
ATOM     16  N   UNL     1      46.291   1.074   8.245  0.00  0.00    +0.000 NA
ENDBRANCH  10  11
ENDBRANCH   9  10
ENDBRANCH   8   9
ENDBRANCH   5   8
ENDBRANCH   1   2
BRANCH   1  19
ATOM     17  O   UNL     1      50.372   7.641  14.332  0.00  0.00    +0.000 OA
ATOM     18  C   UNL     1      49.826   7.963  13.282  0.00  0.00    +0.000 C 
ATOM     19  N   UNL     1      48.561   7.538  12.946  0.00  0.00    +0.000 N 
ATOM     20  H   UNL     1      48.166   7.786  12.054  0.00  0.00    +0.000 HD
BRANCH  18  21
ATOM     21  C   UNL     1      50.453   8.862  12.309  0.00  0.00    +0.000 A 
ATOM     22  C   UNL     1      50.476  10.255  12.348  0.00  0.00    +0.000 A 
ATOM     23  N   UNL     1      51.255  10.709  11.315  0.00  0.00    +0.000 N 
ATOM     24  C   UNL     1      51.745   9.651  10.606  0.00  0.00    +0.000 A 
ATOM     25  N   UNL     1      52.591   9.774   9.568  0.00  0.00    +0.000 NA
ATOM     26  C   UNL     1      52.926   8.582   9.023  0.00  0.00    +0.000 A 
ATOM     27  C   UNL     1      52.441   7.346   9.424  0.00  0.00    +0.000 A 
ATOM     28  C   UNL     1      51.563   7.281  10.510  0.00  0.00    +0.000 A 
ATOM     29  C   UNL     1      51.220   8.487  11.151  0.00  0.00    +0.000 A 
ATOM     30  H   UNL     1      51.476  11.670  11.104  0.00  0.00    +0.000 HD
ENDBRANCH  18  21
ENDBRANCH   1  19
TORSDOF 7
ENDMDL
MODEL 7
REMARK VINA RESULT:    -7.285      2.282      8.807
REMARK INTER + INTRA:         -11.083
REMARK INTER:                 -10.140
REMARK INTRA:                  -0.943
REMARK UNBOUND:                -0.817
REMARK  Name = 
REMARK  7 active torsions:
REMARK  status: ('A' for Active; 'I' for Inactive)
REMARK    1  A    between atoms: C_2  and  C_20
REMARK    2  A    between atoms: N_3  and  C_4
REMARK    3  A    between atoms: C_4  and  C_5
REMARK    4  A    between atoms: C_8  and  C_9
REMARK    5  A    between atoms: C_9  and  O_10
REMARK    6  A    between atoms: O_10  and  C_11
REMARK    7  A    between atoms: C_11  and  C_12
REMARK                            x       y       z     vdW  Elec       q    Type
REMARK                         _______ _______ _______ _____ _____    ______ ____
ROOT
ATOM      1  C   UNL     1      45.322   7.852  12.190  0.00  0.00    +0.000 C 
ENDROOT
BRANCH   1   2
ATOM      2  C   UNL     1      46.651   7.842  12.901  0.00  0.00    +0.000 A 
ATOM      3  C   UNL     1      47.561   6.801  12.678  0.00  0.00    +0.000 A 
ATOM      4  C   UNL     1      48.798   6.786  13.327  0.00  0.00    +0.000 A 
ATOM      5  C   UNL     1      49.152   7.806  14.220  0.00  0.00    +0.000 A 
ATOM      6  C   UNL     1      48.228   8.831  14.470  0.00  0.00    +0.000 A 
ATOM      7  C   UNL     1      46.988   8.846  13.820  0.00  0.00    +0.000 A 
BRANCH   5   8
ATOM      8  C   UNL     1      50.499   7.789  14.899  0.00  0.00    +0.000 C 
BRANCH   8   9
ATOM      9  O   UNL     1      50.679   6.527  15.537  0.00  0.00    +0.000 OA
BRANCH   9  10
ATOM     10  C   UNL     1      50.032   6.485  16.812  0.00  0.00    +0.000 C 
BRANCH  10  11
ATOM     11  C   UNL     1      49.276   5.190  17.011  0.00  0.00    +0.000 A 
ATOM     12  C   UNL     1      47.889   5.139  16.887  0.00  0.00    +0.000 A 
ATOM     13  C   UNL     1      47.238   3.918  17.045  0.00  0.00    +0.000 A 
ATOM     14  C   UNL     1      47.984   2.779  17.311  0.00  0.00    +0.000 A 
ATOM     15  C   UNL     1      49.359   2.907  17.404  0.00  0.00    +0.000 A 
ATOM     16  N   UNL     1      50.019   4.077  17.255  0.00  0.00    +0.000 NA
ENDBRANCH  10  11
ENDBRANCH   9  10
ENDBRANCH   8   9
ENDBRANCH   5   8
ENDBRANCH   1   2
BRANCH   1  19
ATOM     17  O   UNL     1      43.722   5.826  13.285  0.00  0.00    +0.000 OA
ATOM     18  C   UNL     1      44.289   5.617  12.217  0.00  0.00    +0.000 C 
ATOM     19  N   UNL     1      45.055   6.571  11.588  0.00  0.00    +0.000 N 
ATOM     20  H   UNL     1      45.466   6.377  10.690  0.00  0.00    +0.000 HD
BRANCH  18  21
ATOM     21  C   UNL     1      44.235   4.321  11.536  0.00  0.00    +0.000 A 
ATOM     22  C   UNL     1      43.610   3.160  11.988  0.00  0.00    +0.000 A 
ATOM     23  N   UNL     1      43.699   2.204  11.010  0.00  0.00    +0.000 N 
ATOM     24  C   UNL     1      44.362   2.709   9.929  0.00  0.00    +0.000 A 
ATOM     25  N   UNL     1      44.554   2.029   8.786  0.00  0.00    +0.000 NA
ATOM     26  C   UNL     1      45.248   2.738   7.866  0.00  0.00    +0.000 A 
ATOM     27  C   UNL     1      45.763   4.013   8.051  0.00  0.00    +0.000 A 
ATOM     28  C   UNL     1      45.530   4.671   9.261  0.00  0.00    +0.000 A 
ATOM     29  C   UNL     1      44.768   4.001  10.239  0.00  0.00    +0.000 A 
ATOM     30  H   UNL     1      43.316   1.271  11.042  0.00  0.00    +0.000 HD
ENDBRANCH  18  21
ENDBRANCH   1  19
TORSDOF 7
ENDMDL
MODEL 8
REMARK VINA RESULT:    -7.227      3.362      5.698
REMARK INTER + INTRA:         -11.002
REMARK INTER:                 -10.000
REMARK INTRA:                  -1.002
REMARK UNBOUND:                -0.817
REMARK  Name = 
REMARK  7 active torsions:
REMARK  status: ('A' for Active; 'I' for Inactive)
REMARK    1  A    between atoms: C_2  and  C_20
REMARK    2  A    between atoms: N_3  and  C_4
REMARK    3  A    between atoms: C_4  and  C_5
REMARK    4  A    between atoms: C_8  and  C_9
REMARK    5  A    between atoms: C_9  and  O_10
REMARK    6  A    between atoms: O_10  and  C_11
REMARK    7  A    between atoms: C_11  and  C_12
REMARK                            x       y       z     vdW  Elec       q    Type
REMARK                         _______ _______ _______ _____ _____    ______ ____
ROOT
ATOM      1  C   UNL     1      47.902   6.142  14.242  0.00  0.00    +0.000 C 
ENDROOT
BRANCH   1   2
ATOM      2  C   UNL     1      46.784   5.769  13.301  0.00  0.00    +0.000 A 
ATOM      3  C   UNL     1      45.873   4.765  13.654  0.00  0.00    +0.000 A 
ATOM      4  C   UNL     1      44.830   4.416  12.792  0.00  0.00    +0.000 A 
ATOM      5  C   UNL     1      44.678   5.055  11.555  0.00  0.00    +0.000 A 
ATOM      6  C   UNL     1      45.609   6.037  11.187  0.00  0.00    +0.000 A 
ATOM      7  C   UNL     1      46.654   6.386  12.049  0.00  0.00    +0.000 A 
BRANCH   5   8
ATOM      8  C   UNL     1      43.535   4.684  10.643  0.00  0.00    +0.000 C 
BRANCH   8   9
ATOM      9  O   UNL     1      44.065   4.245   9.394  0.00  0.00    +0.000 OA
BRANCH   9  10
ATOM     10  C   UNL     1      44.363   2.846   9.411  0.00  0.00    +0.000 C 
BRANCH  10  11
ATOM     11  C   UNL     1      45.439   2.493   8.408  0.00  0.00    +0.000 A 
ATOM     12  C   UNL     1      45.948   3.450   7.533  0.00  0.00    +0.000 A 
ATOM     13  C   UNL     1      46.962   3.089   6.648  0.00  0.00    +0.000 A 
ATOM     14  C   UNL     1      47.448   1.790   6.665  0.00  0.00    +0.000 A 
ATOM     15  C   UNL     1      46.902   0.901   7.574  0.00  0.00    +0.000 A 
ATOM     16  N   UNL     1      45.919   1.221   8.444  0.00  0.00    +0.000 NA
ENDBRANCH  10  11
ENDBRANCH   9  10
ENDBRANCH   8   9
ENDBRANCH   5   8
ENDBRANCH   1   2
BRANCH   1  19
ATOM     17  O   UNL     1      48.238   8.778  15.136  0.00  0.00    +0.000 OA
ATOM     18  C   UNL     1      48.836   8.417  14.127  0.00  0.00    +0.000 C 
ATOM     19  N   UNL     1      48.763   7.130  13.646  0.00  0.00    +0.000 N 
ATOM     20  H   UNL     1      49.306   6.861  12.842  0.00  0.00    +0.000 HD
BRANCH  18  21
ATOM     21  C   UNL     1      49.648   9.332  13.321  0.00  0.00    +0.000 A 
ATOM     22  C   UNL     1      51.033   9.477  13.357  0.00  0.00    +0.000 A 
ATOM     23  N   UNL     1      51.407  10.357  12.375  0.00  0.00    +0.000 N 
ATOM     24  C   UNL     1      50.305  10.788  11.695  0.00  0.00    +0.000 A 
ATOM     25  N   UNL     1      50.354  11.612  10.635  0.00  0.00    +0.000 NA
ATOM     26  C   UNL     1      49.129  11.903  10.141  0.00  0.00    +0.000 A 
ATOM     27  C   UNL     1      47.922  11.460  10.663  0.00  0.00    +0.000 A 
ATOM     28  C   UNL     1      47.934  10.604  11.767  0.00  0.00    +0.000 A 
ATOM     29  C   UNL     1      49.184  10.225  12.293  0.00  0.00    +0.000 A 
ATOM     30  H   UNL     1      52.348  10.639  12.143  0.00  0.00    +0.000 HD
ENDBRANCH  18  21
ENDBRANCH   1  19
TORSDOF 7
ENDMDL
MODEL 9
REMARK VINA RESULT:    -7.054      2.128      8.897
REMARK INTER + INTRA:         -10.758
REMARK INTER:                  -9.393
REMARK INTRA:                  -1.365
REMARK UNBOUND:                -0.817
REMARK  Name = 
REMARK  7 active torsions:
REMARK  status: ('A' for Active; 'I' for Inactive)
REMARK    1  A    between atoms: C_2  and  C_20
REMARK    2  A    between atoms: N_3  and  C_4
REMARK    3  A    between atoms: C_4  and  C_5
REMARK    4  A    between atoms: C_8  and  C_9
REMARK    5  A    between atoms: C_9  and  O_10
REMARK    6  A    between atoms: O_10  and  C_11
REMARK    7  A    between atoms: C_11  and  C_12
REMARK                            x       y       z     vdW  Elec       q    Type
REMARK                         _______ _______ _______ _____ _____    ______ ____
ROOT
ATOM      1  C   UNL     1      47.620   7.980  12.185  0.00  0.00    +0.000 C 
ENDROOT
BRANCH   1   2
ATOM      2  C   UNL     1      48.059   7.972  13.628  0.00  0.00    +0.000 A 
ATOM      3  C   UNL     1      48.703   6.848  14.161  0.00  0.00    +0.000 A 
ATOM      4  C   UNL     1      49.119   6.831  15.494  0.00  0.00    +0.000 A 
ATOM      5  C   UNL     1      48.895   7.934  16.329  0.00  0.00    +0.000 A 
ATOM      6  C   UNL     1      48.221   9.047  15.805  0.00  0.00    +0.000 A 
ATOM      7  C   UNL     1      47.803   9.063  14.470  0.00  0.00    +0.000 A 
BRANCH   5   8
ATOM      8  C   UNL     1      49.369   7.912  17.761  0.00  0.00    +0.000 C 
BRANCH   8   9
ATOM      9  O   UNL     1      48.316   7.423  18.588  0.00  0.00    +0.000 OA
BRANCH   9  10
ATOM     10  C   UNL     1      48.719   6.263  19.322  0.00  0.00    +0.000 C 
BRANCH  10  11
ATOM     11  C   UNL     1      48.545   5.000  18.508  0.00  0.00    +0.000 A 
ATOM     12  C   UNL     1      47.314   4.671  17.945  0.00  0.00    +0.000 A 
ATOM     13  C   UNL     1      47.207   3.515  17.174  0.00  0.00    +0.000 A 
ATOM     14  C   UNL     1      48.330   2.724  16.976  0.00  0.00    +0.000 A 
ATOM     15  C   UNL     1      49.521   3.126  17.555  0.00  0.00    +0.000 A 
ATOM     16  N   UNL     1      49.655   4.242  18.307  0.00  0.00    +0.000 NA
ENDBRANCH  10  11
ENDBRANCH   9  10
ENDBRANCH   8   9
ENDBRANCH   5   8
ENDBRANCH   1   2
BRANCH   1  19
ATOM     17  O   UNL     1      44.933   7.230  12.461  0.00  0.00    +0.000 OA
ATOM     18  C   UNL     1      45.732   6.408  12.024  0.00  0.00    +0.000 C 
ATOM     19  N   UNL     1      47.058   6.707  11.814  0.00  0.00    +0.000 N 
ATOM     20  H   UNL     1      47.673   6.020  11.410  0.00  0.00    +0.000 HD
BRANCH  18  21
ATOM     21  C   UNL     1      45.356   5.025  11.724  0.00  0.00    +0.000 A 
ATOM     22  C   UNL     1      44.951   4.049  12.634  0.00  0.00    +0.000 A 
ATOM     23  N   UNL     1      44.587   2.926  11.939  0.00  0.00    +0.000 N 
ATOM     24  C   UNL     1      44.738   3.141  10.599  0.00  0.00    +0.000 A 
ATOM     25  N   UNL     1      44.404   2.244   9.655  0.00  0.00    +0.000 NA
ATOM     26  C   UNL     1      44.658   2.685   8.402  0.00  0.00    +0.000 A 
ATOM     27  C   UNL     1      45.238   3.903   8.077  0.00  0.00    +0.000 A 
ATOM     28  C   UNL     1      45.563   4.795   9.102  0.00  0.00    +0.000 A 
ATOM     29  C   UNL     1      45.274   4.411  10.426  0.00  0.00    +0.000 A 
ATOM     30  H   UNL     1      44.228   2.066  12.327  0.00  0.00    +0.000 HD
ENDBRANCH  18  21
ENDBRANCH   1  19
TORSDOF 7
ENDMDL
