MODEL 1
REMARK VINA RESULT:    -7.717      0.000      0.000
REMARK INTER + INTRA:         -12.048
REMARK INTER:                 -10.875
REMARK INTRA:                  -1.173
REMARK UNBOUND:                -1.173
REMARK  Name = 
REMARK  7 active torsions:
REMARK  status: ('A' for Active; 'I' for Inactive)
REMARK    1  A    between atoms: C_2  and  C_20
REMARK    2  A    between atoms: N_3  and  C_4
REMARK    3  A    between atoms: C_4  and  C_5
REMARK    4  A    between atoms: C_8  and  O_9
REMARK    5  A    between atoms: O_9  and  C_10
REMARK    6  A    between atoms: C_10  and  C_11
REMARK    7  A    between atoms: C_11  and  C_12
REMARK                            x       y       z     vdW  Elec       q    Type
REMARK                         _______ _______ _______ _____ _____    ______ ____
ROOT
ATOM      1  C   UNL     1      47.890   7.086  13.288  0.00  0.00    +0.000 C 
ENDROOT
BRANCH   1   2
ATOM      2  C   UNL     1      46.919   6.109  12.674  0.00  0.00    +0.000 A 
ATOM      3  C   UNL     1      46.577   4.928  13.347  0.00  0.00    +0.000 A 
ATOM      4  C   UNL     1      45.654   4.029  12.799  0.00  0.00    +0.000 A 
ATOM      5  C   UNL     1      45.063   4.291  11.563  0.00  0.00    +0.000 A 
ATOM      6  C   UNL     1      45.434   5.443  10.866  0.00  0.00    +0.000 A 
ATOM      7  C   UNL     1      46.355   6.345  11.414  0.00  0.00    +0.000 A 
BRANCH   5   8
ATOM      8  O   UNL     1      44.159   3.477  10.929  0.00  0.00    +0.000 OA
BRANCH   8   9
ATOM      9  C   UNL     1      44.335   3.341   9.512  0.00  0.00    +0.000 C 
BRANCH   9  10
ATOM     10  C   UNL     1      45.037   2.016   9.220  0.00  0.00    +0.000 C 
BRANCH  10  11
ATOM     11  C   UNL     1      45.981   2.140   8.056  0.00  0.00    +0.000 A 
ATOM     12  C   UNL     1      46.847   1.104   7.717  0.00  0.00    +0.000 A 
ATOM     13  N   UNL     1      47.712   1.177   6.676  0.00  0.00    +0.000 NA
ATOM     14  C   UNL     1      47.677   2.330   5.974  0.00  0.00    +0.000 A 
ATOM     15  C   UNL     1      46.816   3.364   6.296  0.00  0.00    +0.000 A 
ATOM     16  N   UNL     1      45.953   3.292   7.337  0.00  0.00    +0.000 NA
ENDBRANCH  10  11
ENDBRANCH   9  10
ENDBRANCH   8   9
ENDBRANCH   5   8
ENDBRANCH   1   2
BRANCH   1  19
ATOM     17  O   UNL     1      50.279   7.114  14.727  0.00  0.00    +0.000 OA
ATOM     18  C   UNL     1      49.225   6.992  15.341  0.00  0.00    +0.000 C 
ATOM     19  N   UNL     1      48.007   6.900  14.709  0.00  0.00    +0.000 N 
ATOM     20  H   UNL     1      47.159   7.014  15.253  0.00  0.00    +0.000 HD
BRANCH  18  21
ATOM     21  C   UNL     1      49.191   6.875  16.803  0.00  0.00    +0.000 A 
ATOM     22  C   UNL     1      49.396   7.985  17.606  0.00  0.00    +0.000 A 
ATOM     23  S   UNL     1      49.370   7.627  19.278  0.00  0.00    +0.000 S 
ATOM     24  C   UNL     1      49.029   5.986  18.977  0.00  0.00    +0.000 A 
ATOM     25  N   UNL     1      48.870   5.098  19.997  0.00  0.00    +0.000 NA
ATOM     26  C   UNL     1      48.575   3.899  19.615  0.00  0.00    +0.000 A 
ATOM     27  N   UNL     1      48.422   3.508  18.311  0.00  0.00    +0.000 N 
ATOM     28  C   UNL     1      48.615   4.353  17.250  0.00  0.00    +0.000 A 
ATOM     29  O   UNL     1      48.533   3.954  16.093  0.00  0.00    +0.000 OA
ATOM     30  C   UNL     1      48.942   5.718  17.624  0.00  0.00    +0.000 A 
ATOM     31  H   UNL     1      48.197   2.550  18.078  0.00  0.00    +0.000 HD
ENDBRANCH  18  21
ENDBRANCH   1  19
TORSDOF 7
ENDMDL
MODEL 2
REMARK VINA RESULT:    -7.294      1.957      2.744
REMARK INTER + INTRA:         -11.451
REMARK INTER:                 -10.428
REMARK INTRA:                  -1.023
REMARK UNBOUND:                -1.173
REMARK  Name = 
REMARK  7 active torsions:
REMARK  status: ('A' for Active; 'I' for Inactive)
REMARK    1  A    between atoms: C_2  and  C_20
REMARK    2  A    between atoms: N_3  and  C_4
REMARK    3  A    between atoms: C_4  and  C_5
REMARK    4  A    between atoms: C_8  and  O_9
REMARK    5  A    between atoms: O_9  and  C_10
REMARK    6  A    between atoms: C_10  and  C_11
REMARK    7  A    between atoms: C_11  and  C_12
REMARK                            x       y       z     vdW  Elec       q    Type
REMARK                         _______ _______ _______ _____ _____    ______ ____
ROOT
ATOM      1  C   UNL     1      48.429   6.556  14.154  0.00  0.00    +0.000 C 
ENDROOT
BRANCH   1   2
ATOM      2  C   UNL     1      47.309   5.937  13.356  0.00  0.00    +0.000 A 
ATOM      3  C   UNL     1      46.603   4.836  13.859  0.00  0.00    +0.000 A 
ATOM      4  C   UNL     1      45.542   4.272  13.138  0.00  0.00    +0.000 A 
ATOM      5  C   UNL     1      45.175   4.795  11.899  0.00  0.00    +0.000 A 
ATOM      6  C   UNL     1      45.905   5.863  11.372  0.00  0.00    +0.000 A 
ATOM      7  C   UNL     1      46.964   6.430  12.092  0.00  0.00    +0.000 A 
BRANCH   5   8
ATOM      8  O   UNL     1      44.165   4.315  11.104  0.00  0.00    +0.000 OA
BRANCH   8   9
ATOM      9  C   UNL     1      44.464   4.230   9.705  0.00  0.00    +0.000 C 
BRANCH   9  10
ATOM     10  C   UNL     1      44.427   2.763   9.275  0.00  0.00    +0.000 C 
BRANCH  10  11
ATOM     11  C   UNL     1      45.590   2.424   8.384  0.00  0.00    +0.000 A 
ATOM     12  C   UNL     1      46.222   3.402   7.620  0.00  0.00    +0.000 A 
ATOM     13  N   UNL     1      47.272   3.137   6.805  0.00  0.00    +0.000 NA
ATOM     14  C   UNL     1      47.678   1.849   6.785  0.00  0.00    +0.000 A 
ATOM     15  C   UNL     1      47.065   0.870   7.545  0.00  0.00    +0.000 A 
ATOM     16  N   UNL     1      46.014   1.134   8.358  0.00  0.00    +0.000 NA
ENDBRANCH  10  11
ENDBRANCH   9  10
ENDBRANCH   8   9
ENDBRANCH   5   8
ENDBRANCH   1   2
BRANCH   1  19
ATOM     17  O   UNL     1      49.861   5.525  16.315  0.00  0.00    +0.000 OA
ATOM     18  C   UNL     1      48.877   6.221  16.541  0.00  0.00    +0.000 C 
ATOM     19  N   UNL     1      48.074   6.714  15.539  0.00  0.00    +0.000 N 
ATOM     20  H   UNL     1      47.409   7.448  15.756  0.00  0.00    +0.000 HD
BRANCH  18  21
ATOM     21  C   UNL     1      48.447   6.531  17.908  0.00  0.00    +0.000 A 
ATOM     22  C   UNL     1      48.387   5.538  18.873  0.00  0.00    +0.000 A 
ATOM     23  S   UNL     1      47.811   6.094  20.383  0.00  0.00    +0.000 S 
ATOM     24  C   UNL     1      47.676   7.690  19.807  0.00  0.00    +0.000 A 
ATOM     25  N   UNL     1      47.238   8.699  20.610  0.00  0.00    +0.000 NA
ATOM     26  C   UNL     1      47.229   9.861  20.047  0.00  0.00    +0.000 A 
ATOM     27  N   UNL     1      47.619  10.108  18.756  0.00  0.00    +0.000 N 
ATOM     28  C   UNL     1      48.025   9.123  17.896  0.00  0.00    +0.000 A 
ATOM     29  O   UNL     1      48.305   9.370  16.728  0.00  0.00    +0.000 OA
ATOM     30  C   UNL     1      48.061   7.794  18.484  0.00  0.00    +0.000 A 
ATOM     31  H   UNL     1      47.580  11.043  18.371  0.00  0.00    +0.000 HD
ENDBRANCH  18  21
ENDBRANCH   1  19
TORSDOF 7
ENDMDL
MODEL 3
REMARK VINA RESULT:    -6.989      2.907      8.723
REMARK INTER + INTRA:         -11.022
REMARK INTER:                  -9.607
REMARK INTRA:                  -1.415
REMARK UNBOUND:                -1.173
REMARK  Name = 
REMARK  7 active torsions:
REMARK  status: ('A' for Active; 'I' for Inactive)
REMARK    1  A    between atoms: C_2  and  C_20
REMARK    2  A    between atoms: N_3  and  C_4
REMARK    3  A    between atoms: C_4  and  C_5
REMARK    4  A    between atoms: C_8  and  O_9
REMARK    5  A    between atoms: O_9  and  C_10
REMARK    6  A    between atoms: C_10  and  C_11
REMARK    7  A    between atoms: C_11  and  C_12
REMARK                            x       y       z     vdW  Elec       q    Type
REMARK                         _______ _______ _______ _____ _____    ______ ____
ROOT
ATOM      1  C   UNL     1      47.654   7.754  11.871  0.00  0.00    +0.000 C 
ENDROOT
BRANCH   1   2
ATOM      2  C   UNL     1      48.246   7.928  13.247  0.00  0.00    +0.000 A 
ATOM      3  C   UNL     1      47.651   8.799  14.171  0.00  0.00    +0.000 A 
ATOM      4  C   UNL     1      48.176   8.945  15.461  0.00  0.00    +0.000 A 
ATOM      5  C   UNL     1      49.310   8.230  15.847  0.00  0.00    +0.000 A 
ATOM      6  C   UNL     1      49.934   7.397  14.916  0.00  0.00    +0.000 A 
ATOM      7  C   UNL     1      49.409   7.246  13.626  0.00  0.00    +0.000 A 
BRANCH   5   8
ATOM      8  O   UNL     1      49.915   8.307  17.076  0.00  0.00    +0.000 OA
BRANCH   8   9
ATOM      9  C   UNL     1      50.147   7.053  17.731  0.00  0.00    +0.000 C 
BRANCH   9  10
ATOM     10  C   UNL     1      48.840   6.566  18.355  0.00  0.00    +0.000 C 
BRANCH  10  11
ATOM     11  C   UNL     1      48.507   5.168  17.910  0.00  0.00    +0.000 A 
ATOM     12  C   UNL     1      47.186   4.754  17.764  0.00  0.00    +0.000 A 
ATOM     13  N   UNL     1      46.845   3.504  17.366  0.00  0.00    +0.000 NA
ATOM     14  C   UNL     1      47.881   2.676  17.109  0.00  0.00    +0.000 A 
ATOM     15  C   UNL     1      49.197   3.077  17.243  0.00  0.00    +0.000 A 
ATOM     16  N   UNL     1      49.538   4.325  17.643  0.00  0.00    +0.000 NA
ENDBRANCH  10  11
ENDBRANCH   9  10
ENDBRANCH   8   9
ENDBRANCH   5   8
ENDBRANCH   1   2
BRANCH   1  19
ATOM     17  O   UNL     1      44.874   7.543  11.966  0.00  0.00    +0.000 OA
ATOM     18  C   UNL     1      45.533   6.531  11.757  0.00  0.00    +0.000 C 
ATOM     19  N   UNL     1      46.908   6.529  11.761  0.00  0.00    +0.000 N 
ATOM     20  H   UNL     1      47.402   5.730  11.379  0.00  0.00    +0.000 HD
BRANCH  18  21
ATOM     21  C   UNL     1      44.899   5.225  11.546  0.00  0.00    +0.000 A 
ATOM     22  C   UNL     1      44.118   4.650  12.537  0.00  0.00    +0.000 A 
ATOM     23  S   UNL     1      43.516   3.107  12.115  0.00  0.00    +0.000 S 
ATOM     24  C   UNL     1      44.236   3.186  10.574  0.00  0.00    +0.000 A 
ATOM     25  N   UNL     1      44.104   2.170   9.678  0.00  0.00    +0.000 NA
ATOM     26  C   UNL     1      44.670   2.390   8.538  0.00  0.00    +0.000 A 
ATOM     27  N   UNL     1      45.353   3.533   8.210  0.00  0.00    +0.000 N 
ATOM     28  C   UNL     1      45.551   4.563   9.091  0.00  0.00    +0.000 A 
ATOM     29  O   UNL     1      46.222   5.542   8.787  0.00  0.00    +0.000 OA
ATOM     30  C   UNL     1      44.927   4.369  10.389  0.00  0.00    +0.000 A 
ATOM     31  H   UNL     1      45.781   3.641   7.300  0.00  0.00    +0.000 HD
ENDBRANCH  18  21
ENDBRANCH   1  19
TORSDOF 7
ENDMDL
MODEL 4
REMARK VINA RESULT:    -6.906      1.928      3.106
REMARK INTER + INTRA:         -10.905
REMARK INTER:                  -9.781
REMARK INTRA:                  -1.125
REMARK UNBOUND:                -1.173
REMARK  Name = 
REMARK  7 active torsions:
REMARK  status: ('A' for Active; 'I' for Inactive)
REMARK    1  A    between atoms: C_2  and  C_20
REMARK    2  A    between atoms: N_3  and  C_4
REMARK    3  A    between atoms: C_4  and  C_5
REMARK    4  A    between atoms: C_8  and  O_9
REMARK    5  A    between atoms: O_9  and  C_10
REMARK    6  A    between atoms: C_10  and  C_11
REMARK    7  A    between atoms: C_11  and  C_12
REMARK                            x       y       z     vdW  Elec       q    Type
REMARK                         _______ _______ _______ _____ _____    ______ ____
ROOT
ATOM      1  C   UNL     1      47.905   4.706  14.771  0.00  0.00    +0.000 C 
ENDROOT
BRANCH   1   2
ATOM      2  C   UNL     1      46.834   4.837  13.717  0.00  0.00    +0.000 A 
ATOM      3  C   UNL     1      46.487   6.096  13.209  0.00  0.00    +0.000 A 
ATOM      4  C   UNL     1      45.514   6.225  12.209  0.00  0.00    +0.000 A 
ATOM      5  C   UNL     1      44.865   5.098  11.707  0.00  0.00    +0.000 A 
ATOM      6  C   UNL     1      45.173   3.845  12.243  0.00  0.00    +0.000 A 
ATOM      7  C   UNL     1      46.148   3.713  13.240  0.00  0.00    +0.000 A 
BRANCH   5   8
ATOM      8  O   UNL     1      43.891   5.109  10.742  0.00  0.00    +0.000 OA
BRANCH   8   9
ATOM      9  C   UNL     1      44.032   4.127   9.707  0.00  0.00    +0.000 C 
BRANCH   9  10
ATOM     10  C   UNL     1      45.204   4.516   8.806  0.00  0.00    +0.000 C 
BRANCH  10  11
ATOM     11  C   UNL     1      45.896   3.302   8.251  0.00  0.00    +0.000 A 
ATOM     12  C   UNL     1      45.591   2.025   8.714  0.00  0.00    +0.000 A 
ATOM     13  N   UNL     1      46.192   0.906   8.241  0.00  0.00    +0.000 NA
ATOM     14  C   UNL     1      47.113   1.109   7.274  0.00  0.00    +0.000 A 
ATOM     15  C   UNL     1      47.419   2.371   6.800  0.00  0.00    +0.000 A 
ATOM     16  N   UNL     1      46.820   3.489   7.274  0.00  0.00    +0.000 NA
ENDBRANCH  10  11
ENDBRANCH   9  10
ENDBRANCH   8   9
ENDBRANCH   5   8
ENDBRANCH   1   2
BRANCH   1  19
ATOM     17  O   UNL     1      49.669   5.117  16.892  0.00  0.00    +0.000 OA
ATOM     18  C   UNL     1      48.653   5.800  16.833  0.00  0.00    +0.000 C 
ATOM     19  N   UNL     1      47.695   5.620  15.862  0.00  0.00    +0.000 N 
ATOM     20  H   UNL     1      46.989   6.333  15.727  0.00  0.00    +0.000 HD
BRANCH  18  21
ATOM     21  C   UNL     1      48.351   6.827  17.836  0.00  0.00    +0.000 A 
ATOM     22  C   UNL     1      48.216   6.490  19.174  0.00  0.00    +0.000 A 
ATOM     23  S   UNL     1      47.812   7.818  20.170  0.00  0.00    +0.000 S 
ATOM     24  C   UNL     1      47.860   8.894  18.851  0.00  0.00    +0.000 A 
ATOM     25  N   UNL     1      47.611  10.222  19.011  0.00  0.00    +0.000 NA
ATOM     26  C   UNL     1      47.725  10.918  17.928  0.00  0.00    +0.000 A 
ATOM     27  N   UNL     1      48.066  10.409  16.702  0.00  0.00    +0.000 N 
ATOM     28  C   UNL     1      48.283   9.074  16.481  0.00  0.00    +0.000 A 
ATOM     29  O   UNL     1      48.523   8.644  15.359  0.00  0.00    +0.000 OA
ATOM     30  C   UNL     1      48.175   8.246  17.671  0.00  0.00    +0.000 A 
ATOM     31  H   UNL     1      48.131  11.007  15.889  0.00  0.00    +0.000 HD
ENDBRANCH  18  21
ENDBRANCH   1  19
TORSDOF 7
ENDMDL
MODEL 5
REMARK VINA RESULT:    -6.872      1.733      3.217
REMARK INTER + INTRA:         -10.857
REMARK INTER:                  -9.693
REMARK INTRA:                  -1.165
REMARK UNBOUND:                -1.173
REMARK  Name = 
REMARK  7 active torsions:
REMARK  status: ('A' for Active; 'I' for Inactive)
REMARK    1  A    between atoms: C_2  and  C_20
REMARK    2  A    between atoms: N_3  and  C_4
REMARK    3  A    between atoms: C_4  and  C_5
REMARK    4  A    between atoms: C_8  and  O_9
REMARK    5  A    between atoms: O_9  and  C_10
REMARK    6  A    between atoms: C_10  and  C_11
REMARK    7  A    between atoms: C_11  and  C_12
REMARK                            x       y       z     vdW  Elec       q    Type
REMARK                         _______ _______ _______ _____ _____    ______ ____
ROOT
ATOM      1  C   UNL     1      47.294   4.218  15.370  0.00  0.00    +0.000 C 
ENDROOT
BRANCH   1   2
ATOM      2  C   UNL     1      46.546   4.416  14.076  0.00  0.00    +0.000 A 
ATOM      3  C   UNL     1      46.166   3.313  13.300  0.00  0.00    +0.000 A 
ATOM      4  C   UNL     1      45.445   3.484  12.111  0.00  0.00    +0.000 A 
ATOM      5  C   UNL     1      45.100   4.763  11.673  0.00  0.00    +0.000 A 
ATOM      6  C   UNL     1      45.517   5.868  12.418  0.00  0.00    +0.000 A 
ATOM      7  C   UNL     1      46.235   5.699  13.609  0.00  0.00    +0.000 A 
BRANCH   5   8
ATOM      8  O   UNL     1      44.411   5.047  10.522  0.00  0.00    +0.000 OA
BRANCH   8   9
ATOM      9  C   UNL     1      44.189   3.937   9.642  0.00  0.00    +0.000 C 
BRANCH   9  10
ATOM     10  C   UNL     1      44.885   4.209   8.309  0.00  0.00    +0.000 C 
BRANCH  10  11
ATOM     11  C   UNL     1      45.804   3.081   7.930  0.00  0.00    +0.000 A 
ATOM     12  C   UNL     1      45.611   1.796   8.430  0.00  0.00    +0.000 A 
ATOM     13  N   UNL     1      46.417   0.752   8.114  0.00  0.00    +0.000 NA
ATOM     14  C   UNL     1      47.429   1.039   7.267  0.00  0.00    +0.000 A 
ATOM     15  C   UNL     1      47.627   2.309   6.758  0.00  0.00    +0.000 A 
ATOM     16  N   UNL     1      46.823   3.352   7.075  0.00  0.00    +0.000 NA
ENDBRANCH  10  11
ENDBRANCH   9  10
ENDBRANCH   8   9
ENDBRANCH   5   8
ENDBRANCH   1   2
BRANCH   1  19
ATOM     17  O   UNL     1      49.536   4.399  17.020  0.00  0.00    +0.000 OA
ATOM     18  C   UNL     1      49.031   5.434  16.600  0.00  0.00    +0.000 C 
ATOM     19  N   UNL     1      47.887   5.443  15.838  0.00  0.00    +0.000 N 
ATOM     20  H   UNL     1      47.630   6.289  15.342  0.00  0.00    +0.000 HD
BRANCH  18  21
ATOM     21  C   UNL     1      49.581   6.753  16.932  0.00  0.00    +0.000 A 
ATOM     22  C   UNL     1      49.778   7.125  18.253  0.00  0.00    +0.000 A 
ATOM     23  S   UNL     1      50.375   8.717  18.427  0.00  0.00    +0.000 S 
ATOM     24  C   UNL     1      50.439   8.937  16.739  0.00  0.00    +0.000 A 
ATOM     25  N   UNL     1      50.878  10.104  16.193  0.00  0.00    +0.000 NA
ATOM     26  C   UNL     1      50.910  10.108  14.902  0.00  0.00    +0.000 A 
ATOM     27  N   UNL     1      50.547   9.052  14.107  0.00  0.00    +0.000 N 
ATOM     28  C   UNL     1      50.058   7.874  14.606  0.00  0.00    +0.000 A 
ATOM     29  O   UNL     1      49.681   6.974  13.865  0.00  0.00    +0.000 OA
ATOM     30  C   UNL     1      50.008   7.814  16.057  0.00  0.00    +0.000 A 
ATOM     31  H   UNL     1      50.587   9.122  13.098  0.00  0.00    +0.000 HD
ENDBRANCH  18  21
ENDBRANCH   1  19
TORSDOF 7
ENDMDL
MODEL 6
REMARK VINA RESULT:    -6.851      1.627      1.971
REMARK INTER + INTRA:         -10.828
REMARK INTER:                  -9.889
REMARK INTRA:                  -0.938
REMARK UNBOUND:                -1.173
REMARK  Name = 
REMARK  7 active torsions:
REMARK  status: ('A' for Active; 'I' for Inactive)
REMARK    1  A    between atoms: C_2  and  C_20
REMARK    2  A    between atoms: N_3  and  C_4
REMARK    3  A    between atoms: C_4  and  C_5
REMARK    4  A    between atoms: C_8  and  O_9
REMARK    5  A    between atoms: O_9  and  C_10
REMARK    6  A    between atoms: C_10  and  C_11
REMARK    7  A    between atoms: C_11  and  C_12
REMARK                            x       y       z     vdW  Elec       q    Type
REMARK                         _______ _______ _______ _____ _____    ______ ____
ROOT
ATOM      1  C   UNL     1      46.681   8.893  12.835  0.00  0.00    +0.000 C 
ENDROOT
BRANCH   1   2
ATOM      2  C   UNL     1      45.985   7.635  12.379  0.00  0.00    +0.000 A 
ATOM      3  C   UNL     1      46.616   6.389  12.503  0.00  0.00    +0.000 A 
ATOM      4  C   UNL     1      45.967   5.212  12.109  0.00  0.00    +0.000 A 
ATOM      5  C   UNL     1      44.678   5.261  11.577  0.00  0.00    +0.000 A 
ATOM      6  C   UNL     1      44.063   6.503  11.409  0.00  0.00    +0.000 A 
ATOM      7  C   UNL     1      44.709   7.682  11.804  0.00  0.00    +0.000 A 
BRANCH   5   8
ATOM      8  O   UNL     1      43.956   4.176  11.148  0.00  0.00    +0.000 OA
BRANCH   8   9
ATOM      9  C   UNL     1      44.728   3.078  10.645  0.00  0.00    +0.000 C 
BRANCH   9  10
ATOM     10  C   UNL     1      44.355   2.834   9.183  0.00  0.00    +0.000 C 
BRANCH  10  11
ATOM     11  C   UNL     1      45.556   2.441   8.369  0.00  0.00    +0.000 A 
ATOM     12  C   UNL     1      46.275   3.387   7.643  0.00  0.00    +0.000 A 
ATOM     13  N   UNL     1      47.362   3.074   6.897  0.00  0.00    +0.000 NA
ATOM     14  C   UNL     1      47.715   1.770   6.907  0.00  0.00    +0.000 A 
ATOM     15  C   UNL     1      47.014   0.822   7.630  0.00  0.00    +0.000 A 
ATOM     16  N   UNL     1      45.927   1.134   8.374  0.00  0.00    +0.000 NA
ENDBRANCH  10  11
ENDBRANCH   9  10
ENDBRANCH   8   9
ENDBRANCH   5   8
ENDBRANCH   1   2
BRANCH   1  19
ATOM     17  O   UNL     1      49.220   8.496  13.919  0.00  0.00    +0.000 OA
ATOM     18  C   UNL     1      48.284   8.714  14.680  0.00  0.00    +0.000 C 
ATOM     19  N   UNL     1      46.989   8.854  14.239  0.00  0.00    +0.000 N 
ATOM     20  H   UNL     1      46.292   9.238  14.868  0.00  0.00    +0.000 HD
BRANCH  18  21
ATOM     21  C   UNL     1      48.469   8.782  16.134  0.00  0.00    +0.000 A 
ATOM     22  C   UNL     1      48.386   9.994  16.801  0.00  0.00    +0.000 A 
ATOM     23  S   UNL     1      48.685   9.866  18.479  0.00  0.00    +0.000 S 
ATOM     24  C   UNL     1      48.881   8.178  18.372  0.00  0.00    +0.000 A 
ATOM     25  N   UNL     1      49.154   7.426  19.473  0.00  0.00    +0.000 NA
ATOM     26  C   UNL     1      49.234   6.157  19.243  0.00  0.00    +0.000 A 
ATOM     27  N   UNL     1      49.063   5.572  18.016  0.00  0.00    +0.000 N 
ATOM     28  C   UNL     1      48.831   6.288  16.872  0.00  0.00    +0.000 A 
ATOM     29  O   UNL     1      48.748   5.738  15.779  0.00  0.00    +0.000 OA
ATOM     30  C   UNL     1      48.724   7.723  17.076  0.00  0.00    +0.000 A 
ATOM     31  H   UNL     1      49.146   4.570  17.901  0.00  0.00    +0.000 HD
ENDBRANCH  18  21
ENDBRANCH   1  19
TORSDOF 7
ENDMDL
MODEL 7
REMARK VINA RESULT:    -6.823      1.862      2.555
REMARK INTER + INTRA:         -10.789
REMARK INTER:                  -9.751
REMARK INTRA:                  -1.038
REMARK UNBOUND:                -1.173
REMARK  Name = 
REMARK  7 active torsions:
REMARK  status: ('A' for Active; 'I' for Inactive)
REMARK    1  A    between atoms: C_2  and  C_20
REMARK    2  A    between atoms: N_3  and  C_4
REMARK    3  A    between atoms: C_4  and  C_5
REMARK    4  A    between atoms: C_8  and  O_9
REMARK    5  A    between atoms: O_9  and  C_10
REMARK    6  A    between atoms: C_10  and  C_11
REMARK    7  A    between atoms: C_11  and  C_12
REMARK                            x       y       z     vdW  Elec       q    Type
REMARK                         _______ _______ _______ _____ _____    ______ ____
ROOT
ATOM      1  C   UNL     1      47.501   4.250  15.295  0.00  0.00    +0.000 C 
ENDROOT
BRANCH   1   2
ATOM      2  C   UNL     1      46.702   4.534  14.048  0.00  0.00    +0.000 A 
ATOM      3  C   UNL     1      46.457   5.854  13.647  0.00  0.00    +0.000 A 
ATOM      4  C   UNL     1      45.741   6.128  12.475  0.00  0.00    +0.000 A 
ATOM      5  C   UNL     1      45.249   5.087  11.689  0.00  0.00    +0.000 A 
ATOM      6  C   UNL     1      45.450   3.770  12.108  0.00  0.00    +0.000 A 
ATOM      7  C   UNL     1      46.169   3.493  13.278  0.00  0.00    +0.000 A 
BRANCH   5   8
ATOM      8  O   UNL     1      44.526   5.240  10.533  0.00  0.00    +0.000 OA
BRANCH   8   9
ATOM      9  C   UNL     1      44.298   4.041   9.781  0.00  0.00    +0.000 C 
BRANCH   9  10
ATOM     10  C   UNL     1      44.833   4.232   8.362  0.00  0.00    +0.000 C 
BRANCH  10  11
ATOM     11  C   UNL     1      45.672   3.061   7.930  0.00  0.00    +0.000 A 
ATOM     12  C   UNL     1      45.587   1.834   8.582  0.00  0.00    +0.000 A 
ATOM     13  N   UNL     1      46.326   0.756   8.224  0.00  0.00    +0.000 NA
ATOM     14  C   UNL     1      47.157   0.946   7.176  0.00  0.00    +0.000 A 
ATOM     15  C   UNL     1      47.246   2.157   6.516  0.00  0.00    +0.000 A 
ATOM     16  N   UNL     1      46.509   3.236   6.875  0.00  0.00    +0.000 NA
ENDBRANCH  10  11
ENDBRANCH   9  10
ENDBRANCH   8   9
ENDBRANCH   5   8
ENDBRANCH   1   2
BRANCH   1  19
ATOM     17  O   UNL     1      49.849   4.892  16.656  0.00  0.00    +0.000 OA
ATOM     18  C   UNL     1      48.927   5.699  16.664  0.00  0.00    +0.000 C 
ATOM     19  N   UNL     1      47.710   5.438  16.078  0.00  0.00    +0.000 N 
ATOM     20  H   UNL     1      47.062   6.202  15.926  0.00  0.00    +0.000 HD
BRANCH  18  21
ATOM     21  C   UNL     1      49.033   6.988  17.357  0.00  0.00    +0.000 A 
ATOM     22  C   UNL     1      49.732   8.040  16.787  0.00  0.00    +0.000 A 
ATOM     23  S   UNL     1      49.783   9.434  17.776  0.00  0.00    +0.000 S 
ATOM     24  C   UNL     1      48.824   8.689  18.970  0.00  0.00    +0.000 A 
ATOM     25  N   UNL     1      48.475   9.347  20.110  0.00  0.00    +0.000 NA
ATOM     26  C   UNL     1      47.712   8.670  20.902  0.00  0.00    +0.000 A 
ATOM     27  N   UNL     1      47.265   7.397  20.659  0.00  0.00    +0.000 N 
ATOM     28  C   UNL     1      47.623   6.678  19.550  0.00  0.00    +0.000 A 
ATOM     29  O   UNL     1      47.258   5.518  19.395  0.00  0.00    +0.000 OA
ATOM     30  C   UNL     1      48.477   7.398  18.620  0.00  0.00    +0.000 A 
ATOM     31  H   UNL     1      46.674   6.917  21.325  0.00  0.00    +0.000 HD
ENDBRANCH  18  21
ENDBRANCH   1  19
TORSDOF 7
ENDMDL
MODEL 8
REMARK VINA RESULT:    -6.764      4.955      9.564
REMARK INTER + INTRA:         -10.705
REMARK INTER:                  -9.904
REMARK INTRA:                  -0.801
REMARK UNBOUND:                -1.173
REMARK  Name = 
REMARK  7 active torsions:
REMARK  status: ('A' for Active; 'I' for Inactive)
REMARK    1  A    between atoms: C_2  and  C_20
REMARK    2  A    between atoms: N_3  and  C_4
REMARK    3  A    between atoms: C_4  and  C_5
REMARK    4  A    between atoms: C_8  and  O_9
REMARK    5  A    between atoms: O_9  and  C_10
REMARK    6  A    between atoms: C_10  and  C_11
REMARK    7  A    between atoms: C_11  and  C_12
REMARK                            x       y       z     vdW  Elec       q    Type
REMARK                         _______ _______ _______ _____ _____    ______ ____
ROOT
ATOM      1  C   UNL     1      47.275   3.564  16.961  0.00  0.00    +0.000 C 
ENDROOT
BRANCH   1   2
ATOM      2  C   UNL     1      48.752   3.356  17.182  0.00  0.00    +0.000 A 
ATOM      3  C   UNL     1      49.568   4.423  17.583  0.00  0.00    +0.000 A 
ATOM      4  C   UNL     1      50.935   4.234  17.818  0.00  0.00    +0.000 A 
ATOM      5  C   UNL     1      51.513   2.976  17.648  0.00  0.00    +0.000 A 
ATOM      6  C   UNL     1      50.715   1.919  17.205  0.00  0.00    +0.000 A 
ATOM      7  C   UNL     1      49.346   2.105  16.971  0.00  0.00    +0.000 A 
BRANCH   5   8
ATOM      8  O   UNL     1      52.839   2.681  17.837  0.00  0.00    +0.000 OA
BRANCH   8   9
ATOM      9  C   UNL     1      53.227   1.338  17.520  0.00  0.00    +0.000 C 
BRANCH   9  10
ATOM     10  C   UNL     1      54.323   0.892  18.488  0.00  0.00    +0.000 C 
BRANCH  10  11
ATOM     11  C   UNL     1      54.466  -0.604  18.502  0.00  0.00    +0.000 A 
ATOM     12  C   UNL     1      54.835  -1.304  17.357  0.00  0.00    +0.000 A 
ATOM     13  N   UNL     1      54.974  -2.652  17.328  0.00  0.00    +0.000 NA
ATOM     14  C   UNL     1      54.736  -3.283  18.498  0.00  0.00    +0.000 A 
ATOM     15  C   UNL     1      54.376  -2.599  19.645  0.00  0.00    +0.000 A 
ATOM     16  N   UNL     1      54.235  -1.252  19.673  0.00  0.00    +0.000 NA
ENDBRANCH  10  11
ENDBRANCH   9  10
ENDBRANCH   8   9
ENDBRANCH   5   8
ENDBRANCH   1   2
BRANCH   1  19
ATOM     17  O   UNL     1      47.279   3.112  14.209  0.00  0.00    +0.000 OA
ATOM     18  C   UNL     1      46.982   4.228  14.620  0.00  0.00    +0.000 C 
ATOM     19  N   UNL     1      47.019   4.559  15.955  0.00  0.00    +0.000 N 
ATOM     20  H   UNL     1      46.569   5.413  16.264  0.00  0.00    +0.000 HD
BRANCH  18  21
ATOM     21  C   UNL     1      46.621   5.318  13.707  0.00  0.00    +0.000 A 
ATOM     22  C   UNL     1      47.512   6.347  13.447  0.00  0.00    +0.000 A 
ATOM     23  S   UNL     1      46.881   7.543  12.402  0.00  0.00    +0.000 S 
ATOM     24  C   UNL     1      45.417   6.692  12.223  0.00  0.00    +0.000 A 
ATOM     25  N   UNL     1      44.413   7.168  11.435  0.00  0.00    +0.000 NA
ATOM     26  C   UNL     1      43.381   6.393  11.364  0.00  0.00    +0.000 A 
ATOM     27  N   UNL     1      43.261   5.188  12.006  0.00  0.00    +0.000 N 
ATOM     28  C   UNL     1      44.223   4.688  12.843  0.00  0.00    +0.000 A 
ATOM     29  O   UNL     1      44.056   3.638  13.452  0.00  0.00    +0.000 OA
ATOM     30  C   UNL     1      45.411   5.518  12.953  0.00  0.00    +0.000 A 
ATOM     31  H   UNL     1      42.421   4.632  11.915  0.00  0.00    +0.000 HD
ENDBRANCH  18  21
ENDBRANCH   1  19
TORSDOF 7
ENDMDL
MODEL 9
REMARK VINA RESULT:    -6.764      3.189      4.327
REMARK INTER + INTRA:         -10.704
REMARK INTER:                  -9.600
REMARK INTRA:                  -1.105
REMARK UNBOUND:                -1.173
REMARK  Name = 
REMARK  7 active torsions:
REMARK  status: ('A' for Active; 'I' for Inactive)
REMARK    1  A    between atoms: C_2  and  C_20
REMARK    2  A    between atoms: N_3  and  C_4
REMARK    3  A    between atoms: C_4  and  C_5
REMARK    4  A    between atoms: C_8  and  O_9
REMARK    5  A    between atoms: O_9  and  C_10
REMARK    6  A    between atoms: C_10  and  C_11
REMARK    7  A    between atoms: C_11  and  C_12
REMARK                            x       y       z     vdW  Elec       q    Type
REMARK                         _______ _______ _______ _____ _____    ______ ____
ROOT
ATOM      1  C   UNL     1      49.183   6.186  17.670  0.00  0.00    +0.000 C 
ENDROOT
BRANCH   1   2
ATOM      2  C   UNL     1      48.452   5.791  16.412  0.00  0.00    +0.000 A 
ATOM      3  C   UNL     1      48.532   6.591  15.263  0.00  0.00    +0.000 A 
ATOM      4  C   UNL     1      47.880   6.218  14.081  0.00  0.00    +0.000 A 
ATOM      5  C   UNL     1      47.130   5.044  14.029  0.00  0.00    +0.000 A 
ATOM      6  C   UNL     1      47.009   4.266  15.183  0.00  0.00    +0.000 A 
ATOM      7  C   UNL     1      47.662   4.635  16.366  0.00  0.00    +0.000 A 
BRANCH   5   8
ATOM      8  O   UNL     1      46.442   4.591  12.932  0.00  0.00    +0.000 OA
BRANCH   8   9
ATOM      9  C   UNL     1      45.410   5.458  12.445  0.00  0.00    +0.000 C 
BRANCH   9  10
ATOM     10  C   UNL     1      44.325   4.617  11.775  0.00  0.00    +0.000 C 
BRANCH  10  11
ATOM     11  C   UNL     1      44.732   4.199  10.389  0.00  0.00    +0.000 A 
ATOM     12  C   UNL     1      45.429   5.065   9.551  0.00  0.00    +0.000 A 
ATOM     13  N   UNL     1      45.814   4.728   8.296  0.00  0.00    +0.000 NA
ATOM     14  C   UNL     1      45.481   3.478   7.905  0.00  0.00    +0.000 A 
ATOM     15  C   UNL     1      44.795   2.606   8.730  0.00  0.00    +0.000 A 
ATOM     16  N   UNL     1      44.409   2.944   9.984  0.00  0.00    +0.000 NA
ENDBRANCH  10  11
ENDBRANCH   9  10
ENDBRANCH   8   9
ENDBRANCH   5   8
ENDBRANCH   1   2
BRANCH   1  19
ATOM     17  O   UNL     1      51.769   6.050  16.634  0.00  0.00    +0.000 OA
ATOM     18  C   UNL     1      51.449   5.263  17.517  0.00  0.00    +0.000 C 
ATOM     19  N   UNL     1      50.176   5.213  18.038  0.00  0.00    +0.000 N 
ATOM     20  H   UNL     1      50.015   4.703  18.899  0.00  0.00    +0.000 HD
BRANCH  18  21
ATOM     21  C   UNL     1      52.388   4.268  18.046  0.00  0.00    +0.000 A 
ATOM     22  C   UNL     1      53.497   4.662  18.779  0.00  0.00    +0.000 A 
ATOM     23  S   UNL     1      54.493   3.358  19.256  0.00  0.00    +0.000 S 
ATOM     24  C   UNL     1      53.443   2.223  18.544  0.00  0.00    +0.000 A 
ATOM     25  N   UNL     1      53.703   0.887  18.594  0.00  0.00    +0.000 NA
ATOM     26  C   UNL     1      52.796   0.148  18.047  0.00  0.00    +0.000 A 
ATOM     27  N   UNL     1      51.653   0.620  17.457  0.00  0.00    +0.000 N 
ATOM     28  C   UNL     1      51.367   1.954  17.342  0.00  0.00    +0.000 A 
ATOM     29  O   UNL     1      50.367   2.344  16.750  0.00  0.00    +0.000 OA
ATOM     30  C   UNL     1      52.354   2.832  17.949  0.00  0.00    +0.000 A 
ATOM     31  H   UNL     1      50.984  -0.013  17.038  0.00  0.00    +0.000 HD
ENDBRANCH  18  21
ENDBRANCH   1  19
TORSDOF 7
ENDMDL
