MODEL 1
REMARK VINA RESULT:    -7.787      0.000      0.000
REMARK INTER + INTRA:         -11.094
REMARK INTER:                 -10.519
REMARK INTRA:                  -0.575
REMARK UNBOUND:                -0.575
REMARK  Name = 
REMARK  6 active torsions:
REMARK  status: ('A' for Active; 'I' for Inactive)
REMARK    1  A    between atoms: C_2  and  C_4
REMARK    2  A    between atoms: C_8  and  O_9
REMARK    3  A    between atoms: O_9  and  C_10
REMARK    4  A    between atoms: C_10  and  C_11
REMARK    5  A    between atoms: C_11  and  C_12
REMARK    6  A    between atoms: C_16  and  C_17
REMARK                            x       y       z     vdW  Elec       q    Type
REMARK                         _______ _______ _______ _____ _____    ______ ____
ROOT
ATOM      1  C   UNL     1      46.031   6.911  12.036  0.00  0.00    +0.000 C 
ENDROOT
BRANCH   1   2
ATOM      2  O   UNL     1      46.585   5.675  12.486  0.00  0.00    +0.000 OA
BRANCH   2   7
ATOM      3  C   UNL     1      47.667   4.546  15.763  0.00  0.00    +0.000 A 
ATOM      4  C   UNL     1      48.480   5.599  16.200  0.00  0.00    +0.000 A 
ATOM      5  C   UNL     1      48.675   6.710  15.384  0.00  0.00    +0.000 A 
ATOM      6  C   UNL     1      48.058   6.772  14.131  0.00  0.00    +0.000 A 
ATOM      7  C   UNL     1      47.237   5.730  13.693  0.00  0.00    +0.000 A 
ATOM      8  C   UNL     1      47.033   4.623  14.518  0.00  0.00    +0.000 A 
BRANCH   3  10
ATOM      9  N   UNL     1      48.537   2.478  16.710  0.00  0.00    +0.000 N 
ATOM     10  C   UNL     1      47.502   3.369  16.654  0.00  0.00    +0.000 C 
ATOM     11  O   UNL     1      46.504   3.220  17.348  0.00  0.00    +0.000 OA
ATOM     12  H   UNL     1      48.462   1.748  17.404  0.00  0.00    +0.000 HD
ATOM     13  H   UNL     1      49.457   2.695  16.354  0.00  0.00    +0.000 HD
ENDBRANCH   3  10
ENDBRANCH   2   7
ENDBRANCH   1   2
BRANCH   1  14
ATOM     14  C   UNL     1      44.672   6.672  11.380  0.00  0.00    +0.000 C 
BRANCH  14  15
ATOM     15  C   UNL     1      44.546   5.209  11.031  0.00  0.00    +0.000 A 
ATOM     16  C   UNL     1      43.565   4.428  11.651  0.00  0.00    +0.000 A 
ATOM     17  C   UNL     1      43.360   3.116  11.243  0.00  0.00    +0.000 A 
ATOM     18  C   UNL     1      44.118   2.581  10.200  0.00  0.00    +0.000 A 
ATOM     19  C   UNL     1      45.092   3.344   9.528  0.00  0.00    +0.000 A 
ATOM     20  C   UNL     1      45.308   4.657   9.984  0.00  0.00    +0.000 A 
BRANCH  19  21
ATOM     21  C   UNL     1      45.801   2.797   8.348  0.00  0.00    +0.000 A 
ATOM     22  C   UNL     1      46.209   1.454   8.317  0.00  0.00    +0.000 A 
ATOM     23  C   UNL     1      46.868   0.960   7.202  0.00  0.00    +0.000 A 
ATOM     24  N   UNL     1      47.143   1.698   6.109  0.00  0.00    +0.000 NA
ATOM     25  C   UNL     1      46.740   2.983   6.139  0.00  0.00    +0.000 A 
ATOM     26  C   UNL     1      46.080   3.569   7.213  0.00  0.00    +0.000 A 
ENDBRANCH  19  21
ENDBRANCH  14  15
ENDBRANCH   1  14
TORSDOF 6
ENDMDL
MODEL 2
REMARK VINA RESULT:    -7.671      3.237      7.429
REMARK INTER + INTRA:         -10.937
REMARK INTER:                  -9.993
REMARK INTRA:                  -0.944
REMARK UNBOUND:                -0.575
REMARK  Name = 
REMARK  6 active torsions:
REMARK  status: ('A' for Active; 'I' for Inactive)
REMARK    1  A    between atoms: C_2  and  C_4
REMARK    2  A    between atoms: C_8  and  O_9
REMARK    3  A    between atoms: O_9  and  C_10
REMARK    4  A    between atoms: C_10  and  C_11
REMARK    5  A    between atoms: C_11  and  C_12
REMARK    6  A    between atoms: C_16  and  C_17
REMARK                            x       y       z     vdW  Elec       q    Type
REMARK                         _______ _______ _______ _____ _____    ______ ____
ROOT
ATOM      1  C   UNL     1      43.666   4.773  10.645  0.00  0.00    +0.000 C 
ENDROOT
BRANCH   1   2
ATOM      2  O   UNL     1      44.259   4.837   9.349  0.00  0.00    +0.000 OA
BRANCH   2   7
ATOM      3  C   UNL     1      46.383   2.710   7.311  0.00  0.00    +0.000 A 
ATOM      4  C   UNL     1      46.158   1.438   7.851  0.00  0.00    +0.000 A 
ATOM      5  C   UNL     1      45.281   1.285   8.922  0.00  0.00    +0.000 A 
ATOM      6  C   UNL     1      44.626   2.400   9.453  0.00  0.00    +0.000 A 
ATOM      7  C   UNL     1      44.838   3.671   8.911  0.00  0.00    +0.000 A 
ATOM      8  C   UNL     1      45.708   3.820   7.831  0.00  0.00    +0.000 A 
BRANCH   3  10
ATOM      9  N   UNL     1      48.669   2.678   6.473  0.00  0.00    +0.000 N 
ATOM     10  C   UNL     1      47.343   2.835   6.184  0.00  0.00    +0.000 C 
ATOM     11  O   UNL     1      46.966   3.022   5.034  0.00  0.00    +0.000 OA
ATOM     12  H   UNL     1      49.299   2.649   5.683  0.00  0.00    +0.000 HD
ATOM     13  H   UNL     1      48.990   2.281   7.344  0.00  0.00    +0.000 HD
ENDBRANCH   3  10
ENDBRANCH   2   7
ENDBRANCH   1   2
BRANCH   1  14
ATOM     14  C   UNL     1      43.851   6.103  11.375  0.00  0.00    +0.000 C 
BRANCH  14  15
ATOM     15  C   UNL     1      45.186   6.094  12.081  0.00  0.00    +0.000 A 
ATOM     16  C   UNL     1      45.531   5.015  12.901  0.00  0.00    +0.000 A 
ATOM     17  C   UNL     1      46.805   4.939  13.450  0.00  0.00    +0.000 A 
ATOM     18  C   UNL     1      47.748   5.929  13.169  0.00  0.00    +0.000 A 
ATOM     19  C   UNL     1      47.451   7.013  12.322  0.00  0.00    +0.000 A 
ATOM     20  C   UNL     1      46.144   7.089  11.809  0.00  0.00    +0.000 A 
BRANCH  19  21
ATOM     21  C   UNL     1      48.499   7.987  11.942  0.00  0.00    +0.000 A 
ATOM     22  C   UNL     1      49.819   7.566  11.713  0.00  0.00    +0.000 A 
ATOM     23  C   UNL     1      50.786   8.492  11.354  0.00  0.00    +0.000 A 
ATOM     24  N   UNL     1      50.538   9.806  11.192  0.00  0.00    +0.000 NA
ATOM     25  C   UNL     1      49.268  10.205  11.401  0.00  0.00    +0.000 A 
ATOM     26  C   UNL     1      48.234   9.352  11.771  0.00  0.00    +0.000 A 
ENDBRANCH  19  21
ENDBRANCH  14  15
ENDBRANCH   1  14
TORSDOF 6
ENDMDL
MODEL 3
REMARK VINA RESULT:    -7.326      2.563      3.913
REMARK INTER + INTRA:         -10.471
REMARK INTER:                  -9.325
REMARK INTRA:                  -1.146
REMARK UNBOUND:                -0.575
REMARK  Name = 
REMARK  6 active torsions:
REMARK  status: ('A' for Active; 'I' for Inactive)
REMARK    1  A    between atoms: C_2  and  C_4
REMARK    2  A    between atoms: C_8  and  O_9
REMARK    3  A    between atoms: O_9  and  C_10
REMARK    4  A    between atoms: C_10  and  C_11
REMARK    5  A    between atoms: C_11  and  C_12
REMARK    6  A    between atoms: C_16  and  C_17
REMARK                            x       y       z     vdW  Elec       q    Type
REMARK                         _______ _______ _______ _____ _____    ______ ____
ROOT
ATOM      1  C   UNL     1      45.910   3.398  13.247  0.00  0.00    +0.000 C 
ENDROOT
BRANCH   1   2
ATOM      2  O   UNL     1      45.966   4.582  14.041  0.00  0.00    +0.000 OA
BRANCH   2   7
ATOM      3  C   UNL     1      45.957   7.728  12.227  0.00  0.00    +0.000 A 
ATOM      4  C   UNL     1      47.321   8.016  12.100  0.00  0.00    +0.000 A 
ATOM      5  C   UNL     1      48.267   7.144  12.635  0.00  0.00    +0.000 A 
ATOM      6  C   UNL     1      47.852   5.983  13.294  0.00  0.00    +0.000 A 
ATOM      7  C   UNL     1      46.493   5.684  13.414  0.00  0.00    +0.000 A 
ATOM      8  C   UNL     1      45.547   6.553  12.867  0.00  0.00    +0.000 A 
BRANCH   3  10
ATOM      9  N   UNL     1      43.782   8.191  11.236  0.00  0.00    +0.000 N 
ATOM     10  C   UNL     1      44.979   8.693  11.663  0.00  0.00    +0.000 C 
ATOM     11  O   UNL     1      45.209   9.895  11.624  0.00  0.00    +0.000 OA
ATOM     12  H   UNL     1      43.083   8.870  10.965  0.00  0.00    +0.000 HD
ATOM     13  H   UNL     1      43.465   7.264  11.481  0.00  0.00    +0.000 HD
ENDBRANCH   3  10
ENDBRANCH   2   7
ENDBRANCH   1   2
BRANCH   1  14
ATOM     14  C   UNL     1      44.477   3.139  12.786  0.00  0.00    +0.000 C 
BRANCH  14  15
ATOM     15  C   UNL     1      44.367   3.466  11.316  0.00  0.00    +0.000 A 
ATOM     16  C   UNL     1      43.602   4.561  10.902  0.00  0.00    +0.000 A 
ATOM     17  C   UNL     1      43.600   4.944   9.567  0.00  0.00    +0.000 A 
ATOM     18  C   UNL     1      44.377   4.247   8.639  0.00  0.00    +0.000 A 
ATOM     19  C   UNL     1      45.185   3.160   9.020  0.00  0.00    +0.000 A 
ATOM     20  C   UNL     1      45.142   2.768  10.370  0.00  0.00    +0.000 A 
BRANCH  19  21
ATOM     21  C   UNL     1      46.092   2.511   8.045  0.00  0.00    +0.000 A 
ATOM     22  C   UNL     1      46.784   3.276   7.092  0.00  0.00    +0.000 A 
ATOM     23  C   UNL     1      47.630   2.650   6.190  0.00  0.00    +0.000 A 
ATOM     24  N   UNL     1      47.852   1.322   6.171  0.00  0.00    +0.000 NA
ATOM     25  C   UNL     1      47.195   0.593   7.094  0.00  0.00    +0.000 A 
ATOM     26  C   UNL     1      46.321   1.129   8.034  0.00  0.00    +0.000 A 
ENDBRANCH  19  21
ENDBRANCH  14  15
ENDBRANCH   1  14
TORSDOF 6
ENDMDL
MODEL 4
REMARK VINA RESULT:    -7.182      2.164      8.235
REMARK INTER + INTRA:         -10.277
REMARK INTER:                  -9.600
REMARK INTRA:                  -0.677
REMARK UNBOUND:                -0.575
REMARK  Name = 
REMARK  6 active torsions:
REMARK  status: ('A' for Active; 'I' for Inactive)
REMARK    1  A    between atoms: C_2  and  C_4
REMARK    2  A    between atoms: C_8  and  O_9
REMARK    3  A    between atoms: O_9  and  C_10
REMARK    4  A    between atoms: C_10  and  C_11
REMARK    5  A    between atoms: C_11  and  C_12
REMARK    6  A    between atoms: C_16  and  C_17
REMARK                            x       y       z     vdW  Elec       q    Type
REMARK                         _______ _______ _______ _____ _____    ______ ____
ROOT
ATOM      1  C   UNL     1      45.077   5.137  10.995  0.00  0.00    +0.000 C 
ENDROOT
BRANCH   1   2
ATOM      2  O   UNL     1      44.893   5.022   9.585  0.00  0.00    +0.000 OA
BRANCH   2   7
ATOM      3  C   UNL     1      46.558   2.741   7.301  0.00  0.00    +0.000 A 
ATOM      4  C   UNL     1      46.157   1.485   7.771  0.00  0.00    +0.000 A 
ATOM      5  C   UNL     1      45.315   1.394   8.877  0.00  0.00    +0.000 A 
ATOM      6  C   UNL     1      44.871   2.557   9.513  0.00  0.00    +0.000 A 
ATOM      7  C   UNL     1      45.259   3.814   9.043  0.00  0.00    +0.000 A 
ATOM      8  C   UNL     1      46.093   3.903   7.927  0.00  0.00    +0.000 A 
BRANCH   3  10
ATOM      9  N   UNL     1      48.807   2.620   6.378  0.00  0.00    +0.000 N 
ATOM     10  C   UNL     1      47.474   2.795   6.133  0.00  0.00    +0.000 C 
ATOM     11  O   UNL     1      47.056   2.940   4.992  0.00  0.00    +0.000 OA
ATOM     12  H   UNL     1      49.404   2.542   5.566  0.00  0.00    +0.000 HD
ATOM     13  H   UNL     1      49.154   2.253   7.252  0.00  0.00    +0.000 HD
ENDBRANCH   3  10
ENDBRANCH   2   7
ENDBRANCH   1   2
BRANCH   1  14
ATOM     14  C   UNL     1      45.399   6.583  11.368  0.00  0.00    +0.000 C 
BRANCH  14  15
ATOM     15  C   UNL     1      46.722   6.620  12.094  0.00  0.00    +0.000 A 
ATOM     16  C   UNL     1      47.789   7.349  11.558  0.00  0.00    +0.000 A 
ATOM     17  C   UNL     1      48.967   7.492  12.282  0.00  0.00    +0.000 A 
ATOM     18  C   UNL     1      49.080   6.925  13.553  0.00  0.00    +0.000 A 
ATOM     19  C   UNL     1      48.019   6.212  14.141  0.00  0.00    +0.000 A 
ATOM     20  C   UNL     1      46.851   6.048  13.374  0.00  0.00    +0.000 A 
BRANCH  19  21
ATOM     21  C   UNL     1      48.116   5.721  15.534  0.00  0.00    +0.000 A 
ATOM     22  C   UNL     1      48.779   6.476  16.515  0.00  0.00    +0.000 A 
ATOM     23  C   UNL     1      48.857   6.001  17.815  0.00  0.00    +0.000 A 
ATOM     24  N   UNL     1      48.313   4.837  18.218  0.00  0.00    +0.000 NA
ATOM     25  C   UNL     1      47.667   4.120  17.277  0.00  0.00    +0.000 A 
ATOM     26  C   UNL     1      47.544   4.510  15.948  0.00  0.00    +0.000 A 
ENDBRANCH  19  21
ENDBRANCH  14  15
ENDBRANCH   1  14
TORSDOF 6
ENDMDL
MODEL 5
REMARK VINA RESULT:    -7.177      1.746      2.052
REMARK INTER + INTRA:         -10.269
REMARK INTER:                  -9.646
REMARK INTRA:                  -0.623
REMARK UNBOUND:                -0.575
REMARK  Name = 
REMARK  6 active torsions:
REMARK  status: ('A' for Active; 'I' for Inactive)
REMARK    1  A    between atoms: C_2  and  C_4
REMARK    2  A    between atoms: C_8  and  O_9
REMARK    3  A    between atoms: O_9  and  C_10
REMARK    4  A    between atoms: C_10  and  C_11
REMARK    5  A    between atoms: C_11  and  C_12
REMARK    6  A    between atoms: C_16  and  C_17
REMARK                            x       y       z     vdW  Elec       q    Type
REMARK                         _______ _______ _______ _____ _____    ______ ____
ROOT
ATOM      1  C   UNL     1      45.507   7.124  11.419  0.00  0.00    +0.000 C 
ENDROOT
BRANCH   1   2
ATOM      2  O   UNL     1      46.261   6.243  12.250  0.00  0.00    +0.000 OA
BRANCH   2   7
ATOM      3  C   UNL     1      48.954   6.879  14.602  0.00  0.00    +0.000 A 
ATOM      4  C   UNL     1      49.855   7.636  13.844  0.00  0.00    +0.000 A 
ATOM      5  C   UNL     1      49.561   7.939  12.517  0.00  0.00    +0.000 A 
ATOM      6  C   UNL     1      48.367   7.489  11.946  0.00  0.00    +0.000 A 
ATOM      7  C   UNL     1      47.458   6.743  12.700  0.00  0.00    +0.000 A 
ATOM      8  C   UNL     1      47.749   6.450  14.034  0.00  0.00    +0.000 A 
BRANCH   3  10
ATOM      9  N   UNL     1      48.400   6.874  16.973  0.00  0.00    +0.000 N 
ATOM     10  C   UNL     1      49.313   6.558  16.007  0.00  0.00    +0.000 C 
ATOM     11  O   UNL     1      50.360   5.989  16.291  0.00  0.00    +0.000 OA
ATOM     12  H   UNL     1      48.604   6.546  17.907  0.00  0.00    +0.000 HD
ATOM     13  H   UNL     1      47.442   7.107  16.757  0.00  0.00    +0.000 HD
ENDBRANCH   3  10
ENDBRANCH   2   7
ENDBRANCH   1   2
BRANCH   1  14
ATOM     14  C   UNL     1      44.102   6.567  11.198  0.00  0.00    +0.000 C 
BRANCH  14  15
ATOM     15  C   UNL     1      44.199   5.087  10.921  0.00  0.00    +0.000 A 
ATOM     16  C   UNL     1      43.358   4.196  11.597  0.00  0.00    +0.000 A 
ATOM     17  C   UNL     1      43.352   2.849  11.256  0.00  0.00    +0.000 A 
ATOM     18  C   UNL     1      44.172   2.386  10.226  0.00  0.00    +0.000 A 
ATOM     19  C   UNL     1      45.009   3.254   9.500  0.00  0.00    +0.000 A 
ATOM     20  C   UNL     1      45.025   4.606   9.887  0.00  0.00    +0.000 A 
BRANCH  19  21
ATOM     21  C   UNL     1      45.780   2.764   8.334  0.00  0.00    +0.000 A 
ATOM     22  C   UNL     1      46.237   1.438   8.284  0.00  0.00    +0.000 A 
ATOM     23  C   UNL     1      46.955   0.997   7.183  0.00  0.00    +0.000 A 
ATOM     24  N   UNL     1      47.241   1.772   6.119  0.00  0.00    +0.000 NA
ATOM     25  C   UNL     1      46.791   3.041   6.166  0.00  0.00    +0.000 A 
ATOM     26  C   UNL     1      46.071   3.575   7.229  0.00  0.00    +0.000 A 
ENDBRANCH  19  21
ENDBRANCH  14  15
ENDBRANCH   1  14
TORSDOF 6
ENDMDL
MODEL 6
REMARK VINA RESULT:    -7.138      3.774      8.041
REMARK INTER + INTRA:         -10.217
REMARK INTER:                  -9.432
REMARK INTRA:                  -0.785
REMARK UNBOUND:                -0.575
REMARK  Name = 
REMARK  6 active torsions:
REMARK  status: ('A' for Active; 'I' for Inactive)
REMARK    1  A    between atoms: C_2  and  C_4
REMARK    2  A    between atoms: C_8  and  O_9
REMARK    3  A    between atoms: O_9  and  C_10
REMARK    4  A    between atoms: C_10  and  C_11
REMARK    5  A    between atoms: C_11  and  C_12
REMARK    6  A    between atoms: C_16  and  C_17
REMARK                            x       y       z     vdW  Elec       q    Type
REMARK                         _______ _______ _______ _____ _____    ______ ____
ROOT
ATOM      1  C   UNL     1      44.051   4.948  10.706  0.00  0.00    +0.000 C 
ENDROOT
BRANCH   1   2
ATOM      2  O   UNL     1      44.174   4.765   9.296  0.00  0.00    +0.000 OA
BRANCH   2   7
ATOM      3  C   UNL     1      46.429   2.563   7.492  0.00  0.00    +0.000 A 
ATOM      4  C   UNL     1      46.071   1.296   7.967  0.00  0.00    +0.000 A 
ATOM      5  C   UNL     1      45.056   1.171   8.913  0.00  0.00    +0.000 A 
ATOM      6  C   UNL     1      44.397   2.310   9.385  0.00  0.00    +0.000 A 
ATOM      7  C   UNL     1      44.743   3.577   8.907  0.00  0.00    +0.000 A 
ATOM      8  C   UNL     1      45.751   3.698   7.949  0.00  0.00    +0.000 A 
BRANCH   3  10
ATOM      9  N   UNL     1      47.303   3.414   5.385  0.00  0.00    +0.000 N 
ATOM     10  C   UNL     1      47.530   2.656   6.500  0.00  0.00    +0.000 C 
ATOM     11  O   UNL     1      48.615   2.121   6.688  0.00  0.00    +0.000 OA
ATOM     12  H   UNL     1      48.097   3.564   4.778  0.00  0.00    +0.000 HD
ATOM     13  H   UNL     1      46.531   4.061   5.318  0.00  0.00    +0.000 HD
ENDBRANCH   3  10
ENDBRANCH   2   7
ENDBRANCH   1   2
BRANCH   1  14
ATOM     14  C   UNL     1      45.434   5.076  11.343  0.00  0.00    +0.000 C 
BRANCH  14  15
ATOM     15  C   UNL     1      45.574   6.456  11.938  0.00  0.00    +0.000 A 
ATOM     16  C   UNL     1      46.588   6.713  12.868  0.00  0.00    +0.000 A 
ATOM     17  C   UNL     1      46.803   8.008  13.322  0.00  0.00    +0.000 A 
ATOM     18  C   UNL     1      46.020   9.058  12.838  0.00  0.00    +0.000 A 
ATOM     19  C   UNL     1      45.013   8.847  11.878  0.00  0.00    +0.000 A 
ATOM     20  C   UNL     1      44.788   7.522  11.461  0.00  0.00    +0.000 A 
BRANCH  19  21
ATOM     21  C   UNL     1      44.276   9.989  11.289  0.00  0.00    +0.000 A 
ATOM     22  C   UNL     1      44.765  11.298  11.415  0.00  0.00    +0.000 A 
ATOM     23  C   UNL     1      44.063  12.353  10.855  0.00  0.00    +0.000 A 
ATOM     24  N   UNL     1      42.915  12.205  10.165  0.00  0.00    +0.000 NA
ATOM     25  C   UNL     1      42.455  10.945  10.037  0.00  0.00    +0.000 A 
ATOM     26  C   UNL     1      43.084   9.826  10.570  0.00  0.00    +0.000 A 
ENDBRANCH  19  21
ENDBRANCH  14  15
ENDBRANCH   1  14
TORSDOF 6
ENDMDL
MODEL 7
REMARK VINA RESULT:    -7.119      3.067      3.804
REMARK INTER + INTRA:         -10.191
REMARK INTER:                  -9.396
REMARK INTRA:                  -0.795
REMARK UNBOUND:                -0.575
REMARK  Name = 
REMARK  6 active torsions:
REMARK  status: ('A' for Active; 'I' for Inactive)
REMARK    1  A    between atoms: C_2  and  C_4
REMARK    2  A    between atoms: C_8  and  O_9
REMARK    3  A    between atoms: O_9  and  C_10
REMARK    4  A    between atoms: C_10  and  C_11
REMARK    5  A    between atoms: C_11  and  C_12
REMARK    6  A    between atoms: C_16  and  C_17
REMARK                            x       y       z     vdW  Elec       q    Type
REMARK                         _______ _______ _______ _____ _____    ______ ____
ROOT
ATOM      1  C   UNL     1      45.095   7.145  12.545  0.00  0.00    +0.000 C 
ENDROOT
BRANCH   1   2
ATOM      2  O   UNL     1      45.185   8.551  12.771  0.00  0.00    +0.000 OA
BRANCH   2   7
ATOM      3  C   UNL     1      48.706   8.830  11.926  0.00  0.00    +0.000 A 
ATOM      4  C   UNL     1      48.799  10.130  11.415  0.00  0.00    +0.000 A 
ATOM      5  C   UNL     1      47.662  10.932  11.346  0.00  0.00    +0.000 A 
ATOM      6  C   UNL     1      46.432  10.438  11.790  0.00  0.00    +0.000 A 
ATOM      7  C   UNL     1      46.334   9.146  12.311  0.00  0.00    +0.000 A 
ATOM      8  C   UNL     1      47.477   8.348  12.390  0.00  0.00    +0.000 A 
BRANCH   3  10
ATOM      9  N   UNL     1      50.114   7.195  13.053  0.00  0.00    +0.000 N 
ATOM     10  C   UNL     1      49.936   7.999  11.963  0.00  0.00    +0.000 C 
ATOM     11  O   UNL     1      50.738   7.992  11.037  0.00  0.00    +0.000 OA
ATOM     12  H   UNL     1      50.891   6.550  13.012  0.00  0.00    +0.000 HD
ATOM     13  H   UNL     1      49.368   6.989  13.701  0.00  0.00    +0.000 HD
ENDBRANCH   3  10
ENDBRANCH   2   7
ENDBRANCH   1   2
BRANCH   1  14
ATOM     14  C   UNL     1      44.426   6.869  11.199  0.00  0.00    +0.000 C 
BRANCH  14  15
ATOM     15  C   UNL     1      44.407   5.379  10.957  0.00  0.00    +0.000 A 
ATOM     16  C   UNL     1      43.500   4.573  11.654  0.00  0.00    +0.000 A 
ATOM     17  C   UNL     1      43.389   3.223  11.344  0.00  0.00    +0.000 A 
ATOM     18  C   UNL     1      44.168   2.673  10.324  0.00  0.00    +0.000 A 
ATOM     19  C   UNL     1      45.069   3.456   9.579  0.00  0.00    +0.000 A 
ATOM     20  C   UNL     1      45.191   4.811   9.935  0.00  0.00    +0.000 A 
BRANCH  19  21
ATOM     21  C   UNL     1      45.798   2.881   8.425  0.00  0.00    +0.000 A 
ATOM     22  C   UNL     1      46.134   1.518   8.397  0.00  0.00    +0.000 A 
ATOM     23  C   UNL     1      46.813   0.998   7.307  0.00  0.00    +0.000 A 
ATOM     24  N   UNL     1      47.173   1.727   6.233  0.00  0.00    +0.000 NA
ATOM     25  C   UNL     1      46.839   3.033   6.258  0.00  0.00    +0.000 A 
ATOM     26  C   UNL     1      46.165   3.645   7.309  0.00  0.00    +0.000 A 
ENDBRANCH  19  21
ENDBRANCH  14  15
ENDBRANCH   1  14
TORSDOF 6
ENDMDL
MODEL 8
REMARK VINA RESULT:    -7.048      3.347      7.128
REMARK INTER + INTRA:         -10.095
REMARK INTER:                  -8.613
REMARK INTRA:                  -1.481
REMARK UNBOUND:                -0.575
REMARK  Name = 
REMARK  6 active torsions:
REMARK  status: ('A' for Active; 'I' for Inactive)
REMARK    1  A    between atoms: C_2  and  C_4
REMARK    2  A    between atoms: C_8  and  O_9
REMARK    3  A    between atoms: O_9  and  C_10
REMARK    4  A    between atoms: C_10  and  C_11
REMARK    5  A    between atoms: C_11  and  C_12
REMARK    6  A    between atoms: C_16  and  C_17
REMARK                            x       y       z     vdW  Elec       q    Type
REMARK                         _______ _______ _______ _____ _____    ______ ____
ROOT
ATOM      1  C   UNL     1      46.981   4.181  13.724  0.00  0.00    +0.000 C 
ENDROOT
BRANCH   1   2
ATOM      2  O   UNL     1      45.581   3.921  13.815  0.00  0.00    +0.000 OA
BRANCH   2   7
ATOM      3  C   UNL     1      44.437   3.759  10.372  0.00  0.00    +0.000 A 
ATOM      4  C   UNL     1      43.467   4.767  10.321  0.00  0.00    +0.000 A 
ATOM      5  C   UNL     1      43.184   5.516  11.460  0.00  0.00    +0.000 A 
ATOM      6  C   UNL     1      43.870   5.262  12.651  0.00  0.00    +0.000 A 
ATOM      7  C   UNL     1      44.847   4.265  12.706  0.00  0.00    +0.000 A 
ATOM      8  C   UNL     1      45.138   3.524  11.560  0.00  0.00    +0.000 A 
BRANCH   3  10
ATOM      9  N   UNL     1      44.337   3.533   7.950  0.00  0.00    +0.000 N 
ATOM     10  C   UNL     1      44.695   2.968   9.142  0.00  0.00    +0.000 C 
ATOM     11  O   UNL     1      45.248   1.877   9.181  0.00  0.00    +0.000 OA
ATOM     12  H   UNL     1      44.623   3.038   7.117  0.00  0.00    +0.000 HD
ATOM     13  H   UNL     1      44.116   4.514   7.861  0.00  0.00    +0.000 HD
ENDBRANCH   3  10
ENDBRANCH   2   7
ENDBRANCH   1   2
BRANCH   1  14
ATOM     14  C   UNL     1      47.345   5.406  14.561  0.00  0.00    +0.000 C 
BRANCH  14  15
ATOM     15  C   UNL     1      47.675   6.553  13.636  0.00  0.00    +0.000 A 
ATOM     16  C   UNL     1      48.924   6.603  13.008  0.00  0.00    +0.000 A 
ATOM     17  C   UNL     1      49.186   7.583  12.059  0.00  0.00    +0.000 A 
ATOM     18  C   UNL     1      48.198   8.508  11.717  0.00  0.00    +0.000 A 
ATOM     19  C   UNL     1      46.918   8.472  12.302  0.00  0.00    +0.000 A 
ATOM     20  C   UNL     1      46.688   7.495  13.287  0.00  0.00    +0.000 A 
BRANCH  19  21
ATOM     21  C   UNL     1      45.848   9.385  11.840  0.00  0.00    +0.000 A 
ATOM     22  C   UNL     1      46.061  10.772  11.794  0.00  0.00    +0.000 A 
ATOM     23  C   UNL     1      45.047  11.611  11.356  0.00  0.00    +0.000 A 
ATOM     24  N   UNL     1      43.841  11.174  10.946  0.00  0.00    +0.000 NA
ATOM     25  C   UNL     1      43.645   9.841  10.981  0.00  0.00    +0.000 A 
ATOM     26  C   UNL     1      44.596   8.924  11.411  0.00  0.00    +0.000 A 
ENDBRANCH  19  21
ENDBRANCH  14  15
ENDBRANCH   1  14
TORSDOF 6
ENDMDL
MODEL 9
REMARK VINA RESULT:    -6.871      2.429      4.030
REMARK INTER + INTRA:          -9.856
REMARK INTER:                  -8.571
REMARK INTRA:                  -1.285
REMARK UNBOUND:                -0.575
REMARK  Name = 
REMARK  6 active torsions:
REMARK  status: ('A' for Active; 'I' for Inactive)
REMARK    1  A    between atoms: C_2  and  C_4
REMARK    2  A    between atoms: C_8  and  O_9
REMARK    3  A    between atoms: O_9  and  C_10
REMARK    4  A    between atoms: C_10  and  C_11
REMARK    5  A    between atoms: C_11  and  C_12
REMARK    6  A    between atoms: C_16  and  C_17
REMARK                            x       y       z     vdW  Elec       q    Type
REMARK                         _______ _______ _______ _____ _____    ______ ____
ROOT
ATOM      1  C   UNL     1      49.731   7.280  12.939  0.00  0.00    +0.000 C 
ENDROOT
BRANCH   1   2
ATOM      2  O   UNL     1      49.535   7.914  14.202  0.00  0.00    +0.000 OA
BRANCH   2   7
ATOM      3  C   UNL     1      48.173   5.182  16.169  0.00  0.00    +0.000 A 
ATOM      4  C   UNL     1      48.969   5.202  17.320  0.00  0.00    +0.000 A 
ATOM      5  C   UNL     1      49.986   6.146  17.444  0.00  0.00    +0.000 A 
ATOM      6  C   UNL     1      50.208   7.071  16.420  0.00  0.00    +0.000 A 
ATOM      7  C   UNL     1      49.410   7.063  15.273  0.00  0.00    +0.000 A 
ATOM      8  C   UNL     1      48.384   6.124  15.156  0.00  0.00    +0.000 A 
BRANCH   3  10
ATOM      9  N   UNL     1      46.667   3.833  14.812  0.00  0.00    +0.000 N 
ATOM     10  C   UNL     1      47.113   4.146  16.065  0.00  0.00    +0.000 C 
ATOM     11  O   UNL     1      46.687   3.559  17.051  0.00  0.00    +0.000 OA
ATOM     12  H   UNL     1      46.034   3.049  14.745  0.00  0.00    +0.000 HD
ATOM     13  H   UNL     1      47.163   4.109  13.976  0.00  0.00    +0.000 HD
ENDBRANCH   3  10
ENDBRANCH   2   7
ENDBRANCH   1   2
BRANCH   1  14
ATOM     14  C   UNL     1      49.019   8.065  11.839  0.00  0.00    +0.000 C 
BRANCH  14  15
ATOM     15  C   UNL     1      47.528   7.900  12.005  0.00  0.00    +0.000 A 
ATOM     16  C   UNL     1      46.726   9.023  12.238  0.00  0.00    +0.000 A 
ATOM     17  C   UNL     1      45.342   8.896  12.264  0.00  0.00    +0.000 A 
ATOM     18  C   UNL     1      44.750   7.652  12.041  0.00  0.00    +0.000 A 
ATOM     19  C   UNL     1      45.519   6.505  11.772  0.00  0.00    +0.000 A 
ATOM     20  C   UNL     1      46.918   6.650  11.787  0.00  0.00    +0.000 A 
BRANCH  19  21
ATOM     21  C   UNL     1      44.869   5.221  11.420  0.00  0.00    +0.000 A 
ATOM     22  C   UNL     1      44.084   4.536  12.360  0.00  0.00    +0.000 A 
ATOM     23  C   UNL     1      43.481   3.337  12.011  0.00  0.00    +0.000 A 
ATOM     24  N   UNL     1      43.587   2.774  10.792  0.00  0.00    +0.000 NA
ATOM     25  C   UNL     1      44.333   3.442   9.889  0.00  0.00    +0.000 A 
ATOM     26  C   UNL     1      44.981   4.644  10.148  0.00  0.00    +0.000 A 
ENDBRANCH  19  21
ENDBRANCH  14  15
ENDBRANCH   1  14
TORSDOF 6
ENDMDL
