MODEL 1
REMARK VINA RESULT:    -8.321      0.000      0.000
REMARK INTER + INTRA:         -13.990
REMARK INTER:                 -12.699
REMARK INTRA:                  -1.291
REMARK UNBOUND:                -1.291
REMARK  Name = 
REMARK  9 active torsions:
REMARK  status: ('A' for Active; 'I' for Inactive)
REMARK    1  A    between atoms: C_2  and  C_3
REMARK    2  A    between atoms: C_3  and  N_4
REMARK    3  A    between atoms: N_4  and  C_5
REMARK    4  A    between atoms: N_4  and  C_12
REMARK    5  A    between atoms: C_5  and  C_6
REMARK    6  A    between atoms: C_12  and  C_13
REMARK    7  A    between atoms: C_16  and  C_17
REMARK    8  A    between atoms: C_17  and  N_18
REMARK    9  A    between atoms: C_19  and  C_21
REMARK                            x       y       z     vdW  Elec       q    Type
REMARK                         _______ _______ _______ _____ _____    ______ ____
ROOT
ATOM      1  C   UNL     1      44.868   6.119  11.062  0.00  0.00    +0.000 A 
ATOM      2  C   UNL     1      44.377   7.215  11.787  0.00  0.00    +0.000 A 
ATOM      3  C   UNL     1      45.235   7.984  12.574  0.00  0.00    +0.000 A 
ATOM      4  C   UNL     1      46.598   7.668  12.645  0.00  0.00    +0.000 A 
ATOM      5  C   UNL     1      47.088   6.581  11.909  0.00  0.00    +0.000 A 
ATOM      6  C   UNL     1      46.231   5.814  11.120  0.00  0.00    +0.000 A 
ENDROOT
BRANCH   1   7
ATOM      7  C   UNL     1      43.930   5.228  10.280  0.00  0.00    +0.000 C 
BRANCH   7   8
ATOM      8  N   UNL     1      44.522   3.929   9.921  0.00  0.00    +0.000 NA
BRANCH   8   9
ATOM      9  C   UNL     1      43.862   2.837  10.692  0.00  0.00    +0.000 C 
BRANCH   9  11
ATOM     10  N   UNL     1      43.600   3.509  13.378  0.00  0.00    +0.000 NA
ATOM     11  C   UNL     1      43.718   3.205  12.160  0.00  0.00    +0.000 C 
ENDBRANCH   9  11
ENDBRANCH   8   9
BRANCH   8  12
ATOM     12  C   UNL     1      44.439   3.704   8.456  0.00  0.00    +0.000 C 
BRANCH  12  13
ATOM     13  C   UNL     1      45.637   2.961   7.883  0.00  0.00    +0.000 A 
ATOM     14  C   UNL     1      46.471   3.567   6.931  0.00  0.00    +0.000 A 
ATOM     15  C   UNL     1      47.509   2.847   6.334  0.00  0.00    +0.000 A 
ATOM     16  C   UNL     1      47.736   1.519   6.692  0.00  0.00    +0.000 A 
ATOM     17  C   UNL     1      46.943   0.919   7.667  0.00  0.00    +0.000 A 
ATOM     18  C   UNL     1      45.903   1.636   8.264  0.00  0.00    +0.000 A 
ENDBRANCH  12  13
ENDBRANCH   8  12
ENDBRANCH   7   8
ENDBRANCH   1   7
BRANCH   4  19
ATOM     19  C   UNL     1      47.516   8.417  13.576  0.00  0.00    +0.000 C 
BRANCH  19  20
ATOM     20  N   UNL     1      47.819   7.609  14.730  0.00  0.00    +0.000 N 
ATOM     21  C   UNL     1      49.090   7.167  14.984  0.00  0.00    +0.000 C 
ATOM     22  O   UNL     1      50.037   7.454  14.255  0.00  0.00    +0.000 OA
ATOM     23  H   UNL     1      47.034   7.181  15.211  0.00  0.00    +0.000 HD
BRANCH  21  24
ATOM     24  C   UNL     1      49.276   6.388  16.213  0.00  0.00    +0.000 A 
ATOM     25  C   UNL     1      50.177   6.824  17.176  0.00  0.00    +0.000 A 
ATOM     26  S   UNL     1      50.221   5.840  18.567  0.00  0.00    +0.000 S 
ATOM     27  C   UNL     1      49.081   4.764  17.911  0.00  0.00    +0.000 A 
ATOM     28  N   UNL     1      48.681   3.660  18.598  0.00  0.00    +0.000 NA
ATOM     29  C   UNL     1      47.834   2.917  17.970  0.00  0.00    +0.000 A 
ATOM     30  N   UNL     1      47.348   3.176  16.714  0.00  0.00    +0.000 N 
ATOM     31  C   UNL     1      47.698   4.293  15.992  0.00  0.00    +0.000 A 
ATOM     32  O   UNL     1      47.213   4.514  14.889  0.00  0.00    +0.000 OA
ATOM     33  C   UNL     1      48.657   5.159  16.652  0.00  0.00    +0.000 A 
ATOM     34  H   UNL     1      46.678   2.559  16.281  0.00  0.00    +0.000 HD
ENDBRANCH  21  24
ENDBRANCH  19  20
ENDBRANCH   4  19
TORSDOF 9
ENDMDL
MODEL 2
REMARK VINA RESULT:    -7.399      1.087      1.697
REMARK INTER + INTRA:         -12.583
REMARK INTER:                 -11.412
REMARK INTRA:                  -1.171
REMARK UNBOUND:                -1.291
REMARK  Name = 
REMARK  9 active torsions:
REMARK  status: ('A' for Active; 'I' for Inactive)
REMARK    1  A    between atoms: C_2  and  C_3
REMARK    2  A    between atoms: C_3  and  N_4
REMARK    3  A    between atoms: N_4  and  C_5
REMARK    4  A    between atoms: N_4  and  C_12
REMARK    5  A    between atoms: C_5  and  C_6
REMARK    6  A    between atoms: C_12  and  C_13
REMARK    7  A    between atoms: C_16  and  C_17
REMARK    8  A    between atoms: C_17  and  N_18
REMARK    9  A    between atoms: C_19  and  C_21
REMARK                            x       y       z     vdW  Elec       q    Type
REMARK                         _______ _______ _______ _____ _____    ______ ____
ROOT
ATOM      1  C   UNL     1      45.834   6.600  11.278  0.00  0.00    +0.000 A 
ATOM      2  C   UNL     1      47.222   6.490  11.453  0.00  0.00    +0.000 A 
ATOM      3  C   UNL     1      47.878   7.266  12.409  0.00  0.00    +0.000 A 
ATOM      4  C   UNL     1      47.154   8.162  13.206  0.00  0.00    +0.000 A 
ATOM      5  C   UNL     1      45.766   8.260  13.038  0.00  0.00    +0.000 A 
ATOM      6  C   UNL     1      45.110   7.482  12.084  0.00  0.00    +0.000 A 
ENDROOT
BRANCH   1   7
ATOM      7  C   UNL     1      45.132   5.830  10.184  0.00  0.00    +0.000 C 
BRANCH   7   8
ATOM      8  N   UNL     1      45.134   4.374  10.401  0.00  0.00    +0.000 NA
BRANCH   8   9
ATOM      9  C   UNL     1      44.506   4.053  11.715  0.00  0.00    +0.000 C 
BRANCH   9  11
ATOM     10  N   UNL     1      42.869   1.812  11.535  0.00  0.00    +0.000 NA
ATOM     11  C   UNL     1      43.611   2.828  11.617  0.00  0.00    +0.000 C 
ENDBRANCH   9  11
ENDBRANCH   8   9
BRANCH   8  12
ATOM     12  C   UNL     1      44.459   3.676   9.278  0.00  0.00    +0.000 C 
BRANCH  12  13
ATOM     13  C   UNL     1      45.416   2.938   8.353  0.00  0.00    +0.000 A 
ATOM     14  C   UNL     1      45.710   1.581   8.557  0.00  0.00    +0.000 A 
ATOM     15  C   UNL     1      46.665   0.935   7.768  0.00  0.00    +0.000 A 
ATOM     16  C   UNL     1      47.325   1.631   6.757  0.00  0.00    +0.000 A 
ATOM     17  C   UNL     1      47.012   2.966   6.516  0.00  0.00    +0.000 A 
ATOM     18  C   UNL     1      46.058   3.616   7.305  0.00  0.00    +0.000 A 
ENDBRANCH  12  13
ENDBRANCH   8  12
ENDBRANCH   7   8
ENDBRANCH   1   7
BRANCH   4  19
ATOM     19  C   UNL     1      47.860   9.087  14.162  0.00  0.00    +0.000 C 
BRANCH  19  20
ATOM     20  N   UNL     1      48.153   8.398  15.394  0.00  0.00    +0.000 N 
ATOM     21  C   UNL     1      49.428   8.024  15.722  0.00  0.00    +0.000 C 
ATOM     22  O   UNL     1      50.387   8.274  14.995  0.00  0.00    +0.000 OA
ATOM     23  H   UNL     1      47.367   7.991  15.891  0.00  0.00    +0.000 HD
BRANCH  21  24
ATOM     24  C   UNL     1      49.601   7.367  17.022  0.00  0.00    +0.000 A 
ATOM     25  C   UNL     1      50.294   8.016  18.035  0.00  0.00    +0.000 A 
ATOM     26  S   UNL     1      50.344   7.143  19.498  0.00  0.00    +0.000 S 
ATOM     27  C   UNL     1      49.493   5.840  18.815  0.00  0.00    +0.000 A 
ATOM     28  N   UNL     1      49.212   4.725  19.543  0.00  0.00    +0.000 NA
ATOM     29  C   UNL     1      48.586   3.804  18.891  0.00  0.00    +0.000 A 
ATOM     30  N   UNL     1      48.213   3.895  17.574  0.00  0.00    +0.000 N 
ATOM     31  C   UNL     1      48.448   5.011  16.806  0.00  0.00    +0.000 A 
ATOM     32  O   UNL     1      48.064   5.074  15.644  0.00  0.00    +0.000 OA
ATOM     33  C   UNL     1      49.158   6.075  17.491  0.00  0.00    +0.000 A 
ATOM     34  H   UNL     1      47.717   3.141  17.125  0.00  0.00    +0.000 HD
ENDBRANCH  21  24
ENDBRANCH  19  20
ENDBRANCH   4  19
TORSDOF 9
ENDMDL
MODEL 3
REMARK VINA RESULT:    -7.365      2.211      2.854
REMARK INTER + INTRA:         -12.530
REMARK INTER:                 -11.455
REMARK INTRA:                  -1.075
REMARK UNBOUND:                -1.291
REMARK  Name = 
REMARK  9 active torsions:
REMARK  status: ('A' for Active; 'I' for Inactive)
REMARK    1  A    between atoms: C_2  and  C_3
REMARK    2  A    between atoms: C_3  and  N_4
REMARK    3  A    between atoms: N_4  and  C_5
REMARK    4  A    between atoms: N_4  and  C_12
REMARK    5  A    between atoms: C_5  and  C_6
REMARK    6  A    between atoms: C_12  and  C_13
REMARK    7  A    between atoms: C_16  and  C_17
REMARK    8  A    between atoms: C_17  and  N_18
REMARK    9  A    between atoms: C_19  and  C_21
REMARK                            x       y       z     vdW  Elec       q    Type
REMARK                         _______ _______ _______ _____ _____    ______ ____
ROOT
ATOM      1  C   UNL     1      46.511   6.250  11.583  0.00  0.00    +0.000 A 
ATOM      2  C   UNL     1      47.535   7.157  11.271  0.00  0.00    +0.000 A 
ATOM      3  C   UNL     1      48.558   7.411  12.186  0.00  0.00    +0.000 A 
ATOM      4  C   UNL     1      48.571   6.760  13.426  0.00  0.00    +0.000 A 
ATOM      5  C   UNL     1      47.553   5.846  13.730  0.00  0.00    +0.000 A 
ATOM      6  C   UNL     1      46.533   5.589  12.814  0.00  0.00    +0.000 A 
ENDROOT
BRANCH   1   7
ATOM      7  C   UNL     1      45.353   6.039  10.635  0.00  0.00    +0.000 C 
BRANCH   7   8
ATOM      8  N   UNL     1      44.885   4.644  10.588  0.00  0.00    +0.000 NA
BRANCH   8   9
ATOM      9  C   UNL     1      43.776   4.445  11.564  0.00  0.00    +0.000 C 
BRANCH   9  11
ATOM     10  N   UNL     1      42.990   1.779  11.673  0.00  0.00    +0.000 NA
ATOM     11  C   UNL     1      43.346   2.988  11.624  0.00  0.00    +0.000 C 
ENDBRANCH   9  11
ENDBRANCH   8   9
BRANCH   8  12
ATOM     12  C   UNL     1      44.484   4.273   9.207  0.00  0.00    +0.000 C 
BRANCH  12  13
ATOM     13  C   UNL     1      45.476   3.355   8.508  0.00  0.00    +0.000 A 
ATOM     14  C   UNL     1      46.377   3.861   7.559  0.00  0.00    +0.000 A 
ATOM     15  C   UNL     1      47.216   3.000   6.847  0.00  0.00    +0.000 A 
ATOM     16  C   UNL     1      47.176   1.628   7.085  0.00  0.00    +0.000 A 
ATOM     17  C   UNL     1      46.316   1.117   8.054  0.00  0.00    +0.000 A 
ATOM     18  C   UNL     1      45.475   1.976   8.767  0.00  0.00    +0.000 A 
ENDBRANCH  12  13
ENDBRANCH   8  12
ENDBRANCH   7   8
ENDBRANCH   1   7
BRANCH   4  19
ATOM     19  C   UNL     1      49.602   7.106  14.468  0.00  0.00    +0.000 C 
BRANCH  19  20
ATOM     20  N   UNL     1      49.115   6.766  15.781  0.00  0.00    +0.000 N 
ATOM     21  C   UNL     1      49.921   6.174  16.715  0.00  0.00    +0.000 C 
ATOM     22  O   UNL     1      51.103   5.923  16.490  0.00  0.00    +0.000 OA
ATOM     23  H   UNL     1      48.108   6.756  15.910  0.00  0.00    +0.000 HD
BRANCH  21  24
ATOM     24  C   UNL     1      49.318   5.916  18.028  0.00  0.00    +0.000 A 
ATOM     25  C   UNL     1      49.329   4.629  18.549  0.00  0.00    +0.000 A 
ATOM     26  S   UNL     1      48.649   4.516  20.108  0.00  0.00    +0.000 S 
ATOM     27  C   UNL     1      48.262   6.171  20.120  0.00  0.00    +0.000 A 
ATOM     28  N   UNL     1      47.629   6.737  21.183  0.00  0.00    +0.000 NA
ATOM     29  C   UNL     1      47.372   7.994  21.045  0.00  0.00    +0.000 A 
ATOM     30  N   UNL     1      47.693   8.740  19.941  0.00  0.00    +0.000 N 
ATOM     31  C   UNL     1      48.358   8.222  18.855  0.00  0.00    +0.000 A 
ATOM     32  O   UNL     1      48.665   8.928  17.902  0.00  0.00    +0.000 OA
ATOM     33  C   UNL     1      48.664   6.808  18.956  0.00  0.00    +0.000 A 
ATOM     34  H   UNL     1      47.472   9.724  19.900  0.00  0.00    +0.000 HD
ENDBRANCH  21  24
ENDBRANCH  19  20
ENDBRANCH   4  19
TORSDOF 9
ENDMDL
MODEL 4
REMARK VINA RESULT:    -7.244      1.912      2.596
REMARK INTER + INTRA:         -12.346
REMARK INTER:                 -11.034
REMARK INTRA:                  -1.312
REMARK UNBOUND:                -1.291
REMARK  Name = 
REMARK  9 active torsions:
REMARK  status: ('A' for Active; 'I' for Inactive)
REMARK    1  A    between atoms: C_2  and  C_3
REMARK    2  A    between atoms: C_3  and  N_4
REMARK    3  A    between atoms: N_4  and  C_5
REMARK    4  A    between atoms: N_4  and  C_12
REMARK    5  A    between atoms: C_5  and  C_6
REMARK    6  A    between atoms: C_12  and  C_13
REMARK    7  A    between atoms: C_16  and  C_17
REMARK    8  A    between atoms: C_17  and  N_18
REMARK    9  A    between atoms: C_19  and  C_21
REMARK                            x       y       z     vdW  Elec       q    Type
REMARK                         _______ _______ _______ _____ _____    ______ ____
ROOT
ATOM      1  C   UNL     1      45.490   6.508  11.305  0.00  0.00    +0.000 A 
ATOM      2  C   UNL     1      45.070   7.325  12.366  0.00  0.00    +0.000 A 
ATOM      3  C   UNL     1      46.003   8.034  13.124  0.00  0.00    +0.000 A 
ATOM      4  C   UNL     1      47.369   7.939  12.829  0.00  0.00    +0.000 A 
ATOM      5  C   UNL     1      47.784   7.132  11.761  0.00  0.00    +0.000 A 
ATOM      6  C   UNL     1      46.852   6.425  11.001  0.00  0.00    +0.000 A 
ENDROOT
BRANCH   1   7
ATOM      7  C   UNL     1      44.495   5.667  10.539  0.00  0.00    +0.000 C 
BRANCH   7   8
ATOM      8  N   UNL     1      44.929   4.272  10.356  0.00  0.00    +0.000 NA
BRANCH   8   9
ATOM      9  C   UNL     1      44.472   3.441  11.507  0.00  0.00    +0.000 C 
BRANCH   9  11
ATOM     10  N   UNL     1      46.455   3.216  13.444  0.00  0.00    +0.000 NA
ATOM     11  C   UNL     1      45.557   3.318  12.566  0.00  0.00    +0.000 C 
ENDBRANCH   9  11
ENDBRANCH   8   9
BRANCH   8  12
ATOM     12  C   UNL     1      44.444   3.738   9.058  0.00  0.00    +0.000 C 
BRANCH  12  13
ATOM     13  C   UNL     1      45.514   3.013   8.257  0.00  0.00    +0.000 A 
ATOM     14  C   UNL     1      46.194   3.660   7.213  0.00  0.00    +0.000 A 
ATOM     15  C   UNL     1      47.103   2.961   6.415  0.00  0.00    +0.000 A 
ATOM     16  C   UNL     1      47.356   1.613   6.660  0.00  0.00    +0.000 A 
ATOM     17  C   UNL     1      46.721   0.969   7.719  0.00  0.00    +0.000 A 
ATOM     18  C   UNL     1      45.809   1.666   8.518  0.00  0.00    +0.000 A 
ENDBRANCH  12  13
ENDBRANCH   8  12
ENDBRANCH   7   8
ENDBRANCH   1   7
BRANCH   4  19
ATOM     19  C   UNL     1      48.395   8.607  13.706  0.00  0.00    +0.000 C 
BRANCH  19  20
ATOM     20  N   UNL     1      49.062   7.628  14.525  0.00  0.00    +0.000 N 
ATOM     21  C   UNL     1      48.979   7.656  15.891  0.00  0.00    +0.000 C 
ATOM     22  O   UNL     1      48.317   8.504  16.485  0.00  0.00    +0.000 OA
ATOM     23  H   UNL     1      49.782   7.068  14.079  0.00  0.00    +0.000 HD
BRANCH  21  24
ATOM     24  C   UNL     1      49.669   6.579  16.610  0.00  0.00    +0.000 A 
ATOM     25  C   UNL     1      48.935   5.678  17.369  0.00  0.00    +0.000 A 
ATOM     26  S   UNL     1      49.882   4.453  18.082  0.00  0.00    +0.000 S 
ATOM     27  C   UNL     1      51.314   5.115  17.450  0.00  0.00    +0.000 A 
ATOM     28  N   UNL     1      52.524   4.547  17.706  0.00  0.00    +0.000 NA
ATOM     29  C   UNL     1      53.528   5.169  17.187  0.00  0.00    +0.000 A 
ATOM     30  N   UNL     1      53.434   6.311  16.433  0.00  0.00    +0.000 N 
ATOM     31  C   UNL     1      52.234   6.905  16.121  0.00  0.00    +0.000 A 
ATOM     32  O   UNL     1      52.185   7.901  15.410  0.00  0.00    +0.000 OA
ATOM     33  C   UNL     1      51.072   6.247  16.688  0.00  0.00    +0.000 A 
ATOM     34  H   UNL     1      54.259   6.744  16.047  0.00  0.00    +0.000 HD
ENDBRANCH  21  24
ENDBRANCH  19  20
ENDBRANCH   4  19
TORSDOF 9
ENDMDL
MODEL 5
REMARK VINA RESULT:    -6.995      3.068      5.516
REMARK INTER + INTRA:         -11.966
REMARK INTER:                 -10.414
REMARK INTRA:                  -1.553
REMARK UNBOUND:                -1.291
REMARK  Name = 
REMARK  9 active torsions:
REMARK  status: ('A' for Active; 'I' for Inactive)
REMARK    1  A    between atoms: C_2  and  C_3
REMARK    2  A    between atoms: C_3  and  N_4
REMARK    3  A    between atoms: N_4  and  C_5
REMARK    4  A    between atoms: N_4  and  C_12
REMARK    5  A    between atoms: C_5  and  C_6
REMARK    6  A    between atoms: C_12  and  C_13
REMARK    7  A    between atoms: C_16  and  C_17
REMARK    8  A    between atoms: C_17  and  N_18
REMARK    9  A    between atoms: C_19  and  C_21
REMARK                            x       y       z     vdW  Elec       q    Type
REMARK                         _______ _______ _______ _____ _____    ______ ____
ROOT
ATOM      1  C   UNL     1      47.464   6.007  13.635  0.00  0.00    +0.000 A 
ATOM      2  C   UNL     1      48.110   6.474  14.790  0.00  0.00    +0.000 A 
ATOM      3  C   UNL     1      48.228   5.655  15.914  0.00  0.00    +0.000 A 
ATOM      4  C   UNL     1      47.703   4.356  15.897  0.00  0.00    +0.000 A 
ATOM      5  C   UNL     1      47.069   3.889  14.738  0.00  0.00    +0.000 A 
ATOM      6  C   UNL     1      46.954   4.706  13.613  0.00  0.00    +0.000 A 
ENDROOT
BRANCH   1   7
ATOM      7  C   UNL     1      47.254   6.919  12.448  0.00  0.00    +0.000 C 
BRANCH   7   8
ATOM      8  N   UNL     1      46.005   7.695  12.523  0.00  0.00    +0.000 NA
BRANCH   8   9
ATOM      9  C   UNL     1      46.309   9.154  12.486  0.00  0.00    +0.000 C 
BRANCH   9  11
ATOM     10  N   UNL     1      44.029  10.650  11.936  0.00  0.00    +0.000 NA
ATOM     11  C   UNL     1      45.063   9.972  12.185  0.00  0.00    +0.000 C 
ENDBRANCH   9  11
ENDBRANCH   8   9
BRANCH   8  12
ATOM     12  C   UNL     1      45.073   7.294  11.439  0.00  0.00    +0.000 C 
BRANCH  12  13
ATOM     13  C   UNL     1      44.502   5.894  11.612  0.00  0.00    +0.000 A 
ATOM     14  C   UNL     1      44.653   4.927  10.606  0.00  0.00    +0.000 A 
ATOM     15  C   UNL     1      44.041   3.677  10.725  0.00  0.00    +0.000 A 
ATOM     16  C   UNL     1      43.285   3.372  11.855  0.00  0.00    +0.000 A 
ATOM     17  C   UNL     1      43.162   4.307  12.880  0.00  0.00    +0.000 A 
ATOM     18  C   UNL     1      43.772   5.560  12.763  0.00  0.00    +0.000 A 
ENDBRANCH  12  13
ENDBRANCH   8  12
ENDBRANCH   7   8
ENDBRANCH   1   7
BRANCH   4  19
ATOM     19  C   UNL     1      47.721   3.501  17.137  0.00  0.00    +0.000 C 
BRANCH  19  20
ATOM     20  N   UNL     1      49.079   3.253  17.549  0.00  0.00    +0.000 N 
ATOM     21  C   UNL     1      49.858   2.313  16.929  0.00  0.00    +0.000 C 
ATOM     22  O   UNL     1      49.446   1.650  15.980  0.00  0.00    +0.000 OA
ATOM     23  H   UNL     1      49.359   3.619  18.454  0.00  0.00    +0.000 HD
BRANCH  21  24
ATOM     24  C   UNL     1      51.236   2.185  17.415  0.00  0.00    +0.000 A 
ATOM     25  C   UNL     1      51.780   0.923  17.620  0.00  0.00    +0.000 A 
ATOM     26  S   UNL     1      53.409   0.953  18.120  0.00  0.00    +0.000 S 
ATOM     27  C   UNL     1      53.431   2.652  18.138  0.00  0.00    +0.000 A 
ATOM     28  N   UNL     1      54.548   3.336  18.505  0.00  0.00    +0.000 NA
ATOM     29  C   UNL     1      54.415   4.620  18.500  0.00  0.00    +0.000 A 
ATOM     30  N   UNL     1      53.265   5.285  18.159  0.00  0.00    +0.000 N 
ATOM     31  C   UNL     1      52.121   4.640  17.752  0.00  0.00    +0.000 A 
ATOM     32  O   UNL     1      51.124   5.268  17.416  0.00  0.00    +0.000 OA
ATOM     33  C   UNL     1      52.216   3.192  17.749  0.00  0.00    +0.000 A 
ATOM     34  H   UNL     1      53.230   6.293  18.166  0.00  0.00    +0.000 HD
ENDBRANCH  21  24
ENDBRANCH  19  20
ENDBRANCH   4  19
TORSDOF 9
ENDMDL
MODEL 6
REMARK VINA RESULT:    -6.818      3.011      8.581
REMARK INTER + INTRA:         -11.696
REMARK INTER:                  -9.787
REMARK INTRA:                  -1.909
REMARK UNBOUND:                -1.291
REMARK  Name = 
REMARK  9 active torsions:
REMARK  status: ('A' for Active; 'I' for Inactive)
REMARK    1  A    between atoms: C_2  and  C_3
REMARK    2  A    between atoms: C_3  and  N_4
REMARK    3  A    between atoms: N_4  and  C_5
REMARK    4  A    between atoms: N_4  and  C_12
REMARK    5  A    between atoms: C_5  and  C_6
REMARK    6  A    between atoms: C_12  and  C_13
REMARK    7  A    between atoms: C_16  and  C_17
REMARK    8  A    between atoms: C_17  and  N_18
REMARK    9  A    between atoms: C_19  and  C_21
REMARK                            x       y       z     vdW  Elec       q    Type
REMARK                         _______ _______ _______ _____ _____    ______ ____
ROOT
ATOM      1  C   UNL     1      48.874   8.153  16.212  0.00  0.00    +0.000 A 
ATOM      2  C   UNL     1      49.200   7.002  15.479  0.00  0.00    +0.000 A 
ATOM      3  C   UNL     1      48.869   6.907  14.127  0.00  0.00    +0.000 A 
ATOM      4  C   UNL     1      48.208   7.963  13.488  0.00  0.00    +0.000 A 
ATOM      5  C   UNL     1      47.895   9.117  14.219  0.00  0.00    +0.000 A 
ATOM      6  C   UNL     1      48.228   9.214  15.570  0.00  0.00    +0.000 A 
ENDROOT
BRANCH   1   7
ATOM      7  C   UNL     1      49.148   8.226  17.697  0.00  0.00    +0.000 C 
BRANCH   7   8
ATOM      8  N   UNL     1      50.037   7.156  18.179  0.00  0.00    +0.000 NA
BRANCH   8   9
ATOM      9  C   UNL     1      51.219   7.746  18.868  0.00  0.00    +0.000 C 
BRANCH   9  11
ATOM     10  N   UNL     1      53.182   5.829  19.330  0.00  0.00    +0.000 NA
ATOM     11  C   UNL     1      52.292   6.698  19.121  0.00  0.00    +0.000 C 
ENDBRANCH   9  11
ENDBRANCH   8   9
BRANCH   8  12
ATOM     12  C   UNL     1      49.294   6.215  19.056  0.00  0.00    +0.000 C 
BRANCH  12  13
ATOM     13  C   UNL     1      48.874   4.931  18.358  0.00  0.00    +0.000 A 
ATOM     14  C   UNL     1      49.818   3.941  18.043  0.00  0.00    +0.000 A 
ATOM     15  C   UNL     1      49.445   2.809  17.313  0.00  0.00    +0.000 A 
ATOM     16  C   UNL     1      48.123   2.646  16.903  0.00  0.00    +0.000 A 
ATOM     17  C   UNL     1      47.168   3.599  17.244  0.00  0.00    +0.000 A 
ATOM     18  C   UNL     1      47.538   4.733  17.973  0.00  0.00    +0.000 A 
ENDBRANCH  12  13
ENDBRANCH   8  12
ENDBRANCH   7   8
ENDBRANCH   1   7
BRANCH   4  19
ATOM     19  C   UNL     1      47.743   7.832  12.062  0.00  0.00    +0.000 C 
BRANCH  19  20
ATOM     20  N   UNL     1      47.016   6.600  11.887  0.00  0.00    +0.000 N 
ATOM     21  C   UNL     1      45.649   6.573  11.840  0.00  0.00    +0.000 C 
ATOM     22  O   UNL     1      44.974   7.597  11.923  0.00  0.00    +0.000 OA
ATOM     23  H   UNL     1      47.530   5.738  12.041  0.00  0.00    +0.000 HD
BRANCH  21  24
ATOM     24  C   UNL     1      45.029   5.262  11.618  0.00  0.00    +0.000 A 
ATOM     25  C   UNL     1      44.351   4.636  12.655  0.00  0.00    +0.000 A 
ATOM     26  S   UNL     1      43.636   3.154  12.209  0.00  0.00    +0.000 S 
ATOM     27  C   UNL     1      44.256   3.266  10.630  0.00  0.00    +0.000 A 
ATOM     28  N   UNL     1      44.025   2.286   9.714  0.00  0.00    +0.000 NA
ATOM     29  C   UNL     1      44.578   2.488   8.566  0.00  0.00    +0.000 A 
ATOM     30  N   UNL     1      45.342   3.581   8.247  0.00  0.00    +0.000 N 
ATOM     31  C   UNL     1      45.579   4.610   9.127  0.00  0.00    +0.000 A 
ATOM     32  O   UNL     1      46.232   5.592   8.796  0.00  0.00    +0.000 OA
ATOM     33  C   UNL     1      44.984   4.429  10.438  0.00  0.00    +0.000 A 
ATOM     34  H   UNL     1      45.739   3.683   7.326  0.00  0.00    +0.000 HD
ENDBRANCH  21  24
ENDBRANCH  19  20
ENDBRANCH   4  19
TORSDOF 9
ENDMDL
MODEL 7
REMARK VINA RESULT:    -6.800      3.727     10.157
REMARK INTER + INTRA:         -11.669
REMARK INTER:                  -9.814
REMARK INTRA:                  -1.855
REMARK UNBOUND:                -1.291
REMARK  Name = 
REMARK  9 active torsions:
REMARK  status: ('A' for Active; 'I' for Inactive)
REMARK    1  A    between atoms: C_2  and  C_3
REMARK    2  A    between atoms: C_3  and  N_4
REMARK    3  A    between atoms: N_4  and  C_5
REMARK    4  A    between atoms: N_4  and  C_12
REMARK    5  A    between atoms: C_5  and  C_6
REMARK    6  A    between atoms: C_12  and  C_13
REMARK    7  A    between atoms: C_16  and  C_17
REMARK    8  A    between atoms: C_17  and  N_18
REMARK    9  A    between atoms: C_19  and  C_21
REMARK                            x       y       z     vdW  Elec       q    Type
REMARK                         _______ _______ _______ _____ _____    ______ ____
ROOT
ATOM      1  C   UNL     1      51.516   3.813  17.646  0.00  0.00    +0.000 A 
ATOM      2  C   UNL     1      50.672   4.933  17.647  0.00  0.00    +0.000 A 
ATOM      3  C   UNL     1      49.303   4.787  17.418  0.00  0.00    +0.000 A 
ATOM      4  C   UNL     1      48.758   3.518  17.188  0.00  0.00    +0.000 A 
ATOM      5  C   UNL     1      49.602   2.399  17.201  0.00  0.00    +0.000 A 
ATOM      6  C   UNL     1      50.970   2.544  17.432  0.00  0.00    +0.000 A 
ENDROOT
BRANCH   1   7
ATOM      7  C   UNL     1      53.011   3.973  17.801  0.00  0.00    +0.000 C 
BRANCH   7   8
ATOM      8  N   UNL     1      53.535   3.381  19.043  0.00  0.00    +0.000 NA
BRANCH   8   9
ATOM      9  C   UNL     1      54.646   2.438  18.729  0.00  0.00    +0.000 C 
BRANCH   9  11
ATOM     10  N   UNL     1      53.729  -0.182  18.546  0.00  0.00    +0.000 NA
ATOM     11  C   UNL     1      54.144   1.005  18.629  0.00  0.00    +0.000 C 
ENDBRANCH   9  11
ENDBRANCH   8   9
BRANCH   8  12
ATOM     12  C   UNL     1      53.958   4.442  19.991  0.00  0.00    +0.000 C 
BRANCH  12  13
ATOM     13  C   UNL     1      52.803   5.261  20.547  0.00  0.00    +0.000 A 
ATOM     14  C   UNL     1      51.779   4.651  21.289  0.00  0.00    +0.000 A 
ATOM     15  C   UNL     1      50.670   5.389  21.711  0.00  0.00    +0.000 A 
ATOM     16  C   UNL     1      50.578   6.746  21.410  0.00  0.00    +0.000 A 
ATOM     17  C   UNL     1      51.605   7.374  20.711  0.00  0.00    +0.000 A 
ATOM     18  C   UNL     1      52.715   6.638  20.287  0.00  0.00    +0.000 A 
ENDBRANCH  12  13
ENDBRANCH   8  12
ENDBRANCH   7   8
ENDBRANCH   1   7
BRANCH   4  19
ATOM     19  C   UNL     1      47.305   3.355  16.829  0.00  0.00    +0.000 C 
BRANCH  19  20
ATOM     20  N   UNL     1      46.909   4.372  15.888  0.00  0.00    +0.000 N 
ATOM     21  C   UNL     1      46.956   4.157  14.536  0.00  0.00    +0.000 C 
ATOM     22  O   UNL     1      47.318   3.084  14.060  0.00  0.00    +0.000 OA
ATOM     23  H   UNL     1      46.825   5.319  16.242  0.00  0.00    +0.000 HD
BRANCH  21  24
ATOM     24  C   UNL     1      46.488   5.256  13.685  0.00  0.00    +0.000 A 
ATOM     25  C   UNL     1      47.279   6.385  13.519  0.00  0.00    +0.000 A 
ATOM     26  S   UNL     1      46.618   7.534  12.448  0.00  0.00    +0.000 S 
ATOM     27  C   UNL     1      45.223   6.592  12.211  0.00  0.00    +0.000 A 
ATOM     28  N   UNL     1      44.217   7.019  11.400  0.00  0.00    +0.000 NA
ATOM     29  C   UNL     1      43.207   6.219  11.334  0.00  0.00    +0.000 A 
ATOM     30  N   UNL     1      43.110   5.026  12.005  0.00  0.00    +0.000 N 
ATOM     31  C   UNL     1      44.111   4.538  12.811  0.00  0.00    +0.000 A 
ATOM     32  O   UNL     1      44.008   3.449  13.363  0.00  0.00    +0.000 OA
ATOM     33  C   UNL     1      45.268   5.406  12.926  0.00  0.00    +0.000 A 
ATOM     34  H   UNL     1      42.295   4.441  11.903  0.00  0.00    +0.000 HD
ENDBRANCH  21  24
ENDBRANCH  19  20
ENDBRANCH   4  19
TORSDOF 9
ENDMDL
MODEL 8
REMARK VINA RESULT:    -6.725      3.535      8.546
REMARK INTER + INTRA:         -11.554
REMARK INTER:                  -9.180
REMARK INTRA:                  -2.374
REMARK UNBOUND:                -1.291
REMARK  Name = 
REMARK  9 active torsions:
REMARK  status: ('A' for Active; 'I' for Inactive)
REMARK    1  A    between atoms: C_2  and  C_3
REMARK    2  A    between atoms: C_3  and  N_4
REMARK    3  A    between atoms: N_4  and  C_5
REMARK    4  A    between atoms: N_4  and  C_12
REMARK    5  A    between atoms: C_5  and  C_6
REMARK    6  A    between atoms: C_12  and  C_13
REMARK    7  A    between atoms: C_16  and  C_17
REMARK    8  A    between atoms: C_17  and  N_18
REMARK    9  A    between atoms: C_19  and  C_21
REMARK                            x       y       z     vdW  Elec       q    Type
REMARK                         _______ _______ _______ _____ _____    ______ ____
ROOT
ATOM      1  C   UNL     1      49.641   7.381  18.461  0.00  0.00    +0.000 A 
ATOM      2  C   UNL     1      50.353   6.859  17.371  0.00  0.00    +0.000 A 
ATOM      3  C   UNL     1      50.027   7.236  16.068  0.00  0.00    +0.000 A 
ATOM      4  C   UNL     1      48.985   8.144  15.837  0.00  0.00    +0.000 A 
ATOM      5  C   UNL     1      48.284   8.673  16.929  0.00  0.00    +0.000 A 
ATOM      6  C   UNL     1      48.611   8.299  18.232  0.00  0.00    +0.000 A 
ENDROOT
BRANCH   1   7
ATOM      7  C   UNL     1      49.928   6.908  19.868  0.00  0.00    +0.000 C 
BRANCH   7   8
ATOM      8  N   UNL     1      50.300   5.485  19.940  0.00  0.00    +0.000 NA
BRANCH   8   9
ATOM      9  C   UNL     1      51.257   5.264  21.061  0.00  0.00    +0.000 C 
BRANCH   9  11
ATOM     10  N   UNL     1      53.404   3.685  20.263  0.00  0.00    +0.000 NA
ATOM     11  C   UNL     1      52.431   4.401  20.624  0.00  0.00    +0.000 C 
ENDBRANCH   9  11
ENDBRANCH   8   9
BRANCH   8  12
ATOM     12  C   UNL     1      49.090   4.634  20.067  0.00  0.00    +0.000 C 
BRANCH  12  13
ATOM     13  C   UNL     1      48.609   4.054  18.745  0.00  0.00    +0.000 A 
ATOM     14  C   UNL     1      49.321   3.025  18.109  0.00  0.00    +0.000 A 
ATOM     15  C   UNL     1      48.933   2.566  16.848  0.00  0.00    +0.000 A 
ATOM     16  C   UNL     1      47.821   3.117  16.214  0.00  0.00    +0.000 A 
ATOM     17  C   UNL     1      47.080   4.109  16.852  0.00  0.00    +0.000 A 
ATOM     18  C   UNL     1      47.467   4.572  18.113  0.00  0.00    +0.000 A 
ENDBRANCH  12  13
ENDBRANCH   8  12
ENDBRANCH   7   8
ENDBRANCH   1   7
BRANCH   4  19
ATOM     19  C   UNL     1      48.547   8.475  14.435  0.00  0.00    +0.000 C 
BRANCH  19  20
ATOM     20  N   UNL     1      47.498   7.579  14.018  0.00  0.00    +0.000 N 
ATOM     21  C   UNL     1      47.754   6.489  13.230  0.00  0.00    +0.000 C 
ATOM     22  O   UNL     1      48.891   6.209  12.857  0.00  0.00    +0.000 OA
ATOM     23  H   UNL     1      46.543   7.909  14.122  0.00  0.00    +0.000 HD
BRANCH  21  24
ATOM     24  C   UNL     1      46.607   5.633  12.909  0.00  0.00    +0.000 A 
ATOM     25  C   UNL     1      46.673   4.269  13.162  0.00  0.00    +0.000 A 
ATOM     26  S   UNL     1      45.234   3.433  12.793  0.00  0.00    +0.000 S 
ATOM     27  C   UNL     1      44.489   4.853  12.227  0.00  0.00    +0.000 A 
ATOM     28  N   UNL     1      43.220   4.832  11.736  0.00  0.00    +0.000 NA
ATOM     29  C   UNL     1      42.791   5.974  11.316  0.00  0.00    +0.000 A 
ATOM     30  N   UNL     1      43.515   7.138  11.342  0.00  0.00    +0.000 N 
ATOM     31  C   UNL     1      44.788   7.217  11.856  0.00  0.00    +0.000 A 
ATOM     32  O   UNL     1      45.390   8.283  11.901  0.00  0.00    +0.000 OA
ATOM     33  C   UNL     1      45.321   5.955  12.335  0.00  0.00    +0.000 A 
ATOM     34  H   UNL     1      43.116   8.002  11.006  0.00  0.00    +0.000 HD
ENDBRANCH  21  24
ENDBRANCH  19  20
ENDBRANCH   4  19
TORSDOF 9
ENDMDL
MODEL 9
REMARK VINA RESULT:    -6.712      3.749      9.336
REMARK INTER + INTRA:         -11.534
REMARK INTER:                 -10.186
REMARK INTRA:                  -1.349
REMARK UNBOUND:                -1.291
REMARK  Name = 
REMARK  9 active torsions:
REMARK  status: ('A' for Active; 'I' for Inactive)
REMARK    1  A    between atoms: C_2  and  C_3
REMARK    2  A    between atoms: C_3  and  N_4
REMARK    3  A    between atoms: N_4  and  C_5
REMARK    4  A    between atoms: N_4  and  C_12
REMARK    5  A    between atoms: C_5  and  C_6
REMARK    6  A    between atoms: C_12  and  C_13
REMARK    7  A    between atoms: C_16  and  C_17
REMARK    8  A    between atoms: C_17  and  N_18
REMARK    9  A    between atoms: C_19  and  C_21
REMARK                            x       y       z     vdW  Elec       q    Type
REMARK                         _______ _______ _______ _____ _____    ______ ____
ROOT
ATOM      1  C   UNL     1      51.464   3.194  17.661  0.00  0.00    +0.000 A 
ATOM      2  C   UNL     1      50.784   2.043  17.235  0.00  0.00    +0.000 A 
ATOM      3  C   UNL     1      49.417   2.093  16.954  0.00  0.00    +0.000 A 
ATOM      4  C   UNL     1      48.713   3.296  17.094  0.00  0.00    +0.000 A 
ATOM      5  C   UNL     1      49.399   4.446  17.508  0.00  0.00    +0.000 A 
ATOM      6  C   UNL     1      50.765   4.398  17.786  0.00  0.00    +0.000 A 
ENDROOT
BRANCH   1   7
ATOM      7  C   UNL     1      52.922   3.126  18.054  0.00  0.00    +0.000 C 
BRANCH   7   8
ATOM      8  N   UNL     1      53.513   4.445  18.333  0.00  0.00    +0.000 NA
BRANCH   8   9
ATOM      9  C   UNL     1      53.914   4.531  19.767  0.00  0.00    +0.000 C 
BRANCH   9  11
ATOM     10  N   UNL     1      54.627   2.037  20.771  0.00  0.00    +0.000 NA
ATOM     11  C   UNL     1      54.304   3.167  20.315  0.00  0.00    +0.000 C 
ENDBRANCH   9  11
ENDBRANCH   8   9
BRANCH   8  12
ATOM     12  C   UNL     1      54.654   4.711  17.421  0.00  0.00    +0.000 C 
BRANCH  12  13
ATOM     13  C   UNL     1      54.336   5.714  16.322  0.00  0.00    +0.000 A 
ATOM     14  C   UNL     1      55.189   5.866  15.217  0.00  0.00    +0.000 A 
ATOM     15  C   UNL     1      54.947   6.857  14.263  0.00  0.00    +0.000 A 
ATOM     16  C   UNL     1      53.843   7.698  14.392  0.00  0.00    +0.000 A 
ATOM     17  C   UNL     1      52.965   7.531  15.460  0.00  0.00    +0.000 A 
ATOM     18  C   UNL     1      53.206   6.541  16.417  0.00  0.00    +0.000 A 
ENDBRANCH  12  13
ENDBRANCH   8  12
ENDBRANCH   7   8
ENDBRANCH   1   7
BRANCH   4  19
ATOM     19  C   UNL     1      47.220   3.342  16.904  0.00  0.00    +0.000 C 
BRANCH  19  20
ATOM     20  N   UNL     1      46.872   4.366  15.953  0.00  0.00    +0.000 N 
ATOM     21  C   UNL     1      46.975   4.159  14.604  0.00  0.00    +0.000 C 
ATOM     22  O   UNL     1      47.350   3.086  14.137  0.00  0.00    +0.000 OA
ATOM     23  H   UNL     1      46.779   5.312  16.309  0.00  0.00    +0.000 HD
BRANCH  21  24
ATOM     24  C   UNL     1      46.550   5.266  13.739  0.00  0.00    +0.000 A 
ATOM     25  C   UNL     1      47.378   6.369  13.576  0.00  0.00    +0.000 A 
ATOM     26  S   UNL     1      46.765   7.530  12.489  0.00  0.00    +0.000 S 
ATOM     27  C   UNL     1      45.345   6.629  12.241  0.00  0.00    +0.000 A 
ATOM     28  N   UNL     1      44.362   7.080  11.415  0.00  0.00    +0.000 NA
ATOM     29  C   UNL     1      43.330   6.310  11.341  0.00  0.00    +0.000 A 
ATOM     30  N   UNL     1      43.189   5.126  12.018  0.00  0.00    +0.000 N 
ATOM     31  C   UNL     1      44.164   4.613  12.840  0.00  0.00    +0.000 A 
ATOM     32  O   UNL     1      44.022   3.532  13.398  0.00  0.00    +0.000 OA
ATOM     33  C   UNL     1      45.345   5.447  12.964  0.00  0.00    +0.000 A 
ATOM     34  H   UNL     1      42.358   4.564  11.910  0.00  0.00    +0.000 HD
ENDBRANCH  21  24
ENDBRANCH  19  20
ENDBRANCH   4  19
TORSDOF 9
ENDMDL
