MODEL 1
REMARK VINA RESULT:    -8.054      0.000      0.000
REMARK INTER + INTRA:         -11.016
REMARK INTER:                 -10.643
REMARK INTRA:                  -0.373
REMARK UNBOUND:                -0.373
REMARK  Name = 
REMARK  6 active torsions:
REMARK  status: ('A' for Active; 'I' for Inactive)
REMARK    1  A    between atoms: N_1  and  C_2
REMARK    2  A    between atoms: C_2  and  C_3
REMARK    3  A    between atoms: C_8  and  C_9
REMARK    4  A    between atoms: C_9  and  C_10
REMARK    5  A    between atoms: C_10  and  N_11
REMARK    6  A    between atoms: C_15  and  C_16
REMARK                            x       y       z     vdW  Elec       q    Type
REMARK                         _______ _______ _______ _____ _____    ______ ____
ROOT
ATOM      1  N   UNL     1      44.014   4.938  10.144  0.00  0.00    +0.000 N 
ATOM      2  C   UNL     1      44.830   4.091   9.363  0.00  0.00    +0.000 A 
ATOM      3  C   UNL     1      45.647   4.640   8.378  0.00  0.00    +0.000 A 
ATOM      4  C   UNL     1      46.449   3.796   7.596  0.00  0.00    +0.000 A 
ATOM      5  C   UNL     1      46.422   2.414   7.809  0.00  0.00    +0.000 A 
ATOM      6  C   UNL     1      45.566   1.958   8.793  0.00  0.00    +0.000 A 
ATOM      7  N   UNL     1      44.785   2.758   9.558  0.00  0.00    +0.000 NA
ATOM      8  H   UNL     1      44.595   5.659  10.564  0.00  0.00    +0.000 HD
ENDROOT
BRANCH   5   9
ATOM      9  C   UNL     1      47.277   1.516   6.997  0.00  0.00    +0.000 C 
ATOM     10  N   UNL     1      48.411   2.018   6.418  0.00  0.00    +0.000 N 
ATOM     11  O   UNL     1      46.972   0.341   6.830  0.00  0.00    +0.000 OA
ATOM     12  H   UNL     1      48.743   2.965   6.482  0.00  0.00    +0.000 HD
ATOM     13  H   UNL     1      48.960   1.371   5.866  0.00  0.00    +0.000 HD
ENDBRANCH   5   9
BRANCH   1  14
ATOM     14  C   UNL     1      43.237   4.186  11.144  0.00  0.00    +0.000 C 
BRANCH  14  15
ATOM     15  C   UNL     1      43.441   4.714  12.571  0.00  0.00    +0.000 C 
BRANCH  15  21
ATOM     16  C   UNL     1      45.983   4.957  12.991  0.00  0.00    +0.000 A 
ATOM     17  C   UNL     1      47.102   5.810  13.129  0.00  0.00    +0.000 A 
ATOM     18  C   UNL     1      46.992   7.186  12.943  0.00  0.00    +0.000 A 
ATOM     19  C   UNL     1      45.762   7.737  12.608  0.00  0.00    +0.000 A 
ATOM     20  C   UNL     1      44.644   6.914  12.474  0.00  0.00    +0.000 A 
ATOM     21  C   UNL     1      44.730   5.519  12.662  0.00  0.00    +0.000 A 
BRANCH  16  22
ATOM     22  C   UNL     1      46.230   3.474  13.139  0.00  0.00    +0.000 C 
BRANCH  22  23
ATOM     23  N   UNL     1      47.251   3.218  14.150  0.00  0.00    +0.000 NA
ATOM     24  H   UNL     1      47.911   2.533  13.791  0.00  0.00    +0.000 HD
ATOM     25  H   UNL     1      46.811   2.779  14.961  0.00  0.00    +0.000 HD
ENDBRANCH  22  23
ENDBRANCH  16  22
ENDBRANCH  15  21
ENDBRANCH  14  15
ENDBRANCH   1  14
TORSDOF 6
ENDMDL
MODEL 2
REMARK VINA RESULT:    -7.723      1.540      2.541
REMARK INTER + INTRA:         -10.579
REMARK INTER:                 -10.114
REMARK INTRA:                  -0.465
REMARK UNBOUND:                -0.373
REMARK  Name = 
REMARK  6 active torsions:
REMARK  status: ('A' for Active; 'I' for Inactive)
REMARK    1  A    between atoms: N_1  and  C_2
REMARK    2  A    between atoms: C_2  and  C_3
REMARK    3  A    between atoms: C_8  and  C_9
REMARK    4  A    between atoms: C_9  and  C_10
REMARK    5  A    between atoms: C_10  and  N_11
REMARK    6  A    between atoms: C_15  and  C_16
REMARK                            x       y       z     vdW  Elec       q    Type
REMARK                         _______ _______ _______ _____ _____    ______ ____
ROOT
ATOM      1  N   UNL     1      43.663   3.668  10.619  0.00  0.00    +0.000 N 
ATOM      2  C   UNL     1      44.578   3.346   9.594  0.00  0.00    +0.000 A 
ATOM      3  C   UNL     1      44.927   2.016   9.375  0.00  0.00    +0.000 A 
ATOM      4  C   UNL     1      45.845   1.700   8.364  0.00  0.00    +0.000 A 
ATOM      5  C   UNL     1      46.403   2.718   7.585  0.00  0.00    +0.000 A 
ATOM      6  C   UNL     1      46.014   4.009   7.887  0.00  0.00    +0.000 A 
ATOM      7  N   UNL     1      45.130   4.334   8.860  0.00  0.00    +0.000 NA
ATOM      8  H   UNL     1      42.814   3.124  10.485  0.00  0.00    +0.000 HD
ENDROOT
BRANCH   5   9
ATOM      9  C   UNL     1      47.363   2.392   6.503  0.00  0.00    +0.000 C 
ATOM     10  N   UNL     1      47.390   3.172   5.379  0.00  0.00    +0.000 N 
ATOM     11  O   UNL     1      48.115   1.430   6.601  0.00  0.00    +0.000 OA
ATOM     12  H   UNL     1      46.810   3.972   5.194  0.00  0.00    +0.000 HD
ATOM     13  H   UNL     1      48.055   2.907   4.662  0.00  0.00    +0.000 HD
ENDBRANCH   5   9
BRANCH   1  14
ATOM     14  C   UNL     1      43.400   5.116  10.690  0.00  0.00    +0.000 C 
BRANCH  14  15
ATOM     15  C   UNL     1      43.376   5.644  12.131  0.00  0.00    +0.000 C 
BRANCH  15  21
ATOM     16  C   UNL     1      45.593   6.940  12.451  0.00  0.00    +0.000 A 
ATOM     17  C   UNL     1      46.925   6.944  12.922  0.00  0.00    +0.000 A 
ATOM     18  C   UNL     1      47.459   5.848  13.596  0.00  0.00    +0.000 A 
ATOM     19  C   UNL     1      46.668   4.727  13.819  0.00  0.00    +0.000 A 
ATOM     20  C   UNL     1      45.352   4.701  13.355  0.00  0.00    +0.000 A 
ATOM     21  C   UNL     1      44.793   5.796  12.666  0.00  0.00    +0.000 A 
BRANCH  16  22
ATOM     22  C   UNL     1      45.093   8.209  11.802  0.00  0.00    +0.000 C 
BRANCH  22  23
ATOM     23  N   UNL     1      44.952   9.275  12.789  0.00  0.00    +0.000 NA
ATOM     24  H   UNL     1      43.970   9.378  13.031  0.00  0.00    +0.000 HD
ATOM     25  H   UNL     1      45.227  10.161  12.361  0.00  0.00    +0.000 HD
ENDBRANCH  22  23
ENDBRANCH  16  22
ENDBRANCH  15  21
ENDBRANCH  14  15
ENDBRANCH   1  14
TORSDOF 6
ENDMDL
MODEL 3
REMARK VINA RESULT:    -6.692      4.636      7.914
REMARK INTER + INTRA:          -9.216
REMARK INTER:                  -8.806
REMARK INTRA:                  -0.410
REMARK UNBOUND:                -0.373
REMARK  Name = 
REMARK  6 active torsions:
REMARK  status: ('A' for Active; 'I' for Inactive)
REMARK    1  A    between atoms: N_1  and  C_2
REMARK    2  A    between atoms: C_2  and  C_3
REMARK    3  A    between atoms: C_8  and  C_9
REMARK    4  A    between atoms: C_9  and  C_10
REMARK    5  A    between atoms: C_10  and  N_11
REMARK    6  A    between atoms: C_15  and  C_16
REMARK                            x       y       z     vdW  Elec       q    Type
REMARK                         _______ _______ _______ _____ _____    ______ ____
ROOT
ATOM      1  N   UNL     1      46.593   3.901  14.801  0.00  0.00    +0.000 N 
ATOM      2  C   UNL     1      47.403   4.162  15.927  0.00  0.00    +0.000 A 
ATOM      3  C   UNL     1      47.350   3.309  17.026  0.00  0.00    +0.000 A 
ATOM      4  C   UNL     1      48.147   3.577  18.148  0.00  0.00    +0.000 A 
ATOM      5  C   UNL     1      48.986   4.695  18.156  0.00  0.00    +0.000 A 
ATOM      6  C   UNL     1      48.959   5.496  17.030  0.00  0.00    +0.000 A 
ATOM      7  N   UNL     1      48.195   5.253  15.938  0.00  0.00    +0.000 NA
ATOM      8  H   UNL     1      46.765   2.949  14.486  0.00  0.00    +0.000 HD
ENDROOT
BRANCH   5   9
ATOM      9  C   UNL     1      49.844   4.978  19.332  0.00  0.00    +0.000 C 
ATOM     10  N   UNL     1      49.641   4.277  20.490  0.00  0.00    +0.000 N 
ATOM     11  O   UNL     1      50.717   5.836  19.280  0.00  0.00    +0.000 OA
ATOM     12  H   UNL     1      48.948   3.564  20.641  0.00  0.00    +0.000 HD
ATOM     13  H   UNL     1      50.244   4.509  21.270  0.00  0.00    +0.000 HD
ENDBRANCH   5   9
BRANCH   1  14
ATOM     14  C   UNL     1      46.797   4.893  13.732  0.00  0.00    +0.000 C 
BRANCH  14  15
ATOM     15  C   UNL     1      45.478   5.470  13.199  0.00  0.00    +0.000 C 
BRANCH  15  21
ATOM     16  C   UNL     1      44.498   3.897  11.393  0.00  0.00    +0.000 A 
ATOM     17  C   UNL     1      44.419   3.536  10.029  0.00  0.00    +0.000 A 
ATOM     18  C   UNL     1      45.061   4.282   9.043  0.00  0.00    +0.000 A 
ATOM     19  C   UNL     1      45.791   5.408   9.401  0.00  0.00    +0.000 A 
ATOM     20  C   UNL     1      45.888   5.777  10.743  0.00  0.00    +0.000 A 
ATOM     21  C   UNL     1      45.250   5.035  11.758  0.00  0.00    +0.000 A 
BRANCH  16  22
ATOM     22  C   UNL     1      43.701   3.063  12.369  0.00  0.00    +0.000 C 
BRANCH  22  23
ATOM     23  N   UNL     1      42.990   1.994  11.676  0.00  0.00    +0.000 NA
ATOM     24  H   UNL     1      43.428   1.104  11.899  0.00  0.00    +0.000 HD
ATOM     25  H   UNL     1      43.108   2.117  10.670  0.00  0.00    +0.000 HD
ENDBRANCH  22  23
ENDBRANCH  16  22
ENDBRANCH  15  21
ENDBRANCH  14  15
ENDBRANCH   1  14
TORSDOF 6
ENDMDL
MODEL 4
REMARK VINA RESULT:    -6.589      3.896      5.509
REMARK INTER + INTRA:          -9.080
REMARK INTER:                  -8.698
REMARK INTRA:                  -0.381
REMARK UNBOUND:                -0.373
REMARK  Name = 
REMARK  6 active torsions:
REMARK  status: ('A' for Active; 'I' for Inactive)
REMARK    1  A    between atoms: N_1  and  C_2
REMARK    2  A    between atoms: C_2  and  C_3
REMARK    3  A    between atoms: C_8  and  C_9
REMARK    4  A    between atoms: C_9  and  C_10
REMARK    5  A    between atoms: C_10  and  N_11
REMARK    6  A    between atoms: C_15  and  C_16
REMARK                            x       y       z     vdW  Elec       q    Type
REMARK                         _______ _______ _______ _____ _____    ______ ____
ROOT
ATOM      1  N   UNL     1      46.992   5.373  14.763  0.00  0.00    +0.000 N 
ATOM      2  C   UNL     1      46.322   4.960  13.592  0.00  0.00    +0.000 A 
ATOM      3  C   UNL     1      45.994   5.900  12.619  0.00  0.00    +0.000 A 
ATOM      4  C   UNL     1      45.318   5.490  11.461  0.00  0.00    +0.000 A 
ATOM      5  C   UNL     1      44.977   4.144  11.293  0.00  0.00    +0.000 A 
ATOM      6  C   UNL     1      45.324   3.286  12.319  0.00  0.00    +0.000 A 
ATOM      7  N   UNL     1      45.977   3.665  13.444  0.00  0.00    +0.000 NA
ATOM      8  H   UNL     1      47.834   5.879  14.499  0.00  0.00    +0.000 HD
ENDROOT
BRANCH   5   9
ATOM      9  C   UNL     1      44.275   3.698  10.066  0.00  0.00    +0.000 C 
ATOM     10  N   UNL     1      43.977   4.617   9.096  0.00  0.00    +0.000 N 
ATOM     11  O   UNL     1      43.950   2.526   9.920  0.00  0.00    +0.000 OA
ATOM     12  H   UNL     1      44.187   5.600   9.123  0.00  0.00    +0.000 HD
ATOM     13  H   UNL     1      43.490   4.270   8.279  0.00  0.00    +0.000 HD
ENDBRANCH   5   9
BRANCH   1  14
ATOM     14  C   UNL     1      47.274   4.243  15.665  0.00  0.00    +0.000 C 
BRANCH  14  15
ATOM     15  C   UNL     1      47.694   4.697  17.070  0.00  0.00    +0.000 C 
BRANCH  15  21
ATOM     16  C   UNL     1      50.077   3.752  17.425  0.00  0.00    +0.000 A 
ATOM     17  C   UNL     1      51.460   4.003  17.565  0.00  0.00    +0.000 A 
ATOM     18  C   UNL     1      51.981   5.289  17.438  0.00  0.00    +0.000 A 
ATOM     19  C   UNL     1      51.128   6.350  17.160  0.00  0.00    +0.000 A 
ATOM     20  C   UNL     1      49.757   6.124  17.026  0.00  0.00    +0.000 A 
ATOM     21  C   UNL     1      49.208   4.832  17.156  0.00  0.00    +0.000 A 
BRANCH  16  22
ATOM     22  C   UNL     1      49.630   2.311  17.507  0.00  0.00    +0.000 C 
BRANCH  22  23
ATOM     23  N   UNL     1      49.719   1.667  16.200  0.00  0.00    +0.000 NA
ATOM     24  H   UNL     1      49.226   0.778  16.233  0.00  0.00    +0.000 HD
ATOM     25  H   UNL     1      50.695   1.435  16.011  0.00  0.00    +0.000 HD
ENDBRANCH  22  23
ENDBRANCH  16  22
ENDBRANCH  15  21
ENDBRANCH  14  15
ENDBRANCH   1  14
TORSDOF 6
ENDMDL
MODEL 5
REMARK VINA RESULT:    -6.512      3.885      7.192
REMARK INTER + INTRA:          -8.978
REMARK INTER:                  -8.731
REMARK INTRA:                  -0.247
REMARK UNBOUND:                -0.373
REMARK  Name = 
REMARK  6 active torsions:
REMARK  status: ('A' for Active; 'I' for Inactive)
REMARK    1  A    between atoms: N_1  and  C_2
REMARK    2  A    between atoms: C_2  and  C_3
REMARK    3  A    between atoms: C_8  and  C_9
REMARK    4  A    between atoms: C_9  and  C_10
REMARK    5  A    between atoms: C_10  and  N_11
REMARK    6  A    between atoms: C_15  and  C_16
REMARK                            x       y       z     vdW  Elec       q    Type
REMARK                         _______ _______ _______ _____ _____    ______ ____
ROOT
ATOM      1  N   UNL     1      46.839   6.030  13.672  0.00  0.00    +0.000 N 
ATOM      2  C   UNL     1      47.426   5.428  14.806  0.00  0.00    +0.000 A 
ATOM      3  C   UNL     1      48.342   6.146  15.570  0.00  0.00    +0.000 A 
ATOM      4  C   UNL     1      48.931   5.542  16.690  0.00  0.00    +0.000 A 
ATOM      5  C   UNL     1      48.598   4.227  17.030  0.00  0.00    +0.000 A 
ATOM      6  C   UNL     1      47.695   3.586  16.203  0.00  0.00    +0.000 A 
ATOM      7  N   UNL     1      47.116   4.153  15.118  0.00  0.00    +0.000 NA
ATOM      8  H   UNL     1      46.416   6.912  13.951  0.00  0.00    +0.000 HD
ENDROOT
BRANCH   5   9
ATOM      9  C   UNL     1      49.204   3.585  18.220  0.00  0.00    +0.000 C 
ATOM     10  N   UNL     1      48.394   3.182  19.247  0.00  0.00    +0.000 N 
ATOM     11  O   UNL     1      50.417   3.426  18.299  0.00  0.00    +0.000 OA
ATOM     12  H   UNL     1      47.393   3.277  19.288  0.00  0.00    +0.000 HD
ATOM     13  H   UNL     1      48.851   2.757  20.044  0.00  0.00    +0.000 HD
ENDBRANCH   5   9
BRANCH   1  14
ATOM     14  C   UNL     1      45.883   5.132  13.003  0.00  0.00    +0.000 C 
BRANCH  14  15
ATOM     15  C   UNL     1      45.071   5.840  11.910  0.00  0.00    +0.000 C 
BRANCH  15  21
ATOM     16  C   UNL     1      44.213   3.795  10.576  0.00  0.00    +0.000 A 
ATOM     17  C   UNL     1      44.273   3.020   9.396  0.00  0.00    +0.000 A 
ATOM     18  C   UNL     1      45.073   3.396   8.320  0.00  0.00    +0.000 A 
ATOM     19  C   UNL     1      45.825   4.561   8.399  0.00  0.00    +0.000 A 
ATOM     20  C   UNL     1      45.787   5.338   9.558  0.00  0.00    +0.000 A 
ATOM     21  C   UNL     1      44.988   4.973  10.661  0.00  0.00    +0.000 A 
BRANCH  16  22
ATOM     22  C   UNL     1      43.255   3.336  11.650  0.00  0.00    +0.000 C 
BRANCH  22  23
ATOM     23  N   UNL     1      43.157   1.880  11.667  0.00  0.00    +0.000 NA
ATOM     24  H   UNL     1      43.114   1.538  10.711  0.00  0.00    +0.000 HD
ATOM     25  H   UNL     1      42.271   1.613  12.098  0.00  0.00    +0.000 HD
ENDBRANCH  22  23
ENDBRANCH  16  22
ENDBRANCH  15  21
ENDBRANCH  14  15
ENDBRANCH   1  14
TORSDOF 6
ENDMDL
MODEL 6
REMARK VINA RESULT:    -6.217      4.068      5.906
REMARK INTER + INTRA:          -8.588
REMARK INTER:                  -7.923
REMARK INTRA:                  -0.665
REMARK UNBOUND:                -0.373
REMARK  Name = 
REMARK  6 active torsions:
REMARK  status: ('A' for Active; 'I' for Inactive)
REMARK    1  A    between atoms: N_1  and  C_2
REMARK    2  A    between atoms: C_2  and  C_3
REMARK    3  A    between atoms: C_8  and  C_9
REMARK    4  A    between atoms: C_9  and  C_10
REMARK    5  A    between atoms: C_10  and  N_11
REMARK    6  A    between atoms: C_15  and  C_16
REMARK                            x       y       z     vdW  Elec       q    Type
REMARK                         _______ _______ _______ _____ _____    ______ ____
ROOT
ATOM      1  N   UNL     1      47.186   5.168  14.985  0.00  0.00    +0.000 N 
ATOM      2  C   UNL     1      46.661   5.105  13.676  0.00  0.00    +0.000 A 
ATOM      3  C   UNL     1      46.800   6.199  12.826  0.00  0.00    +0.000 A 
ATOM      4  C   UNL     1      46.268   6.138  11.530  0.00  0.00    +0.000 A 
ATOM      5  C   UNL     1      45.604   4.985  11.102  0.00  0.00    +0.000 A 
ATOM      6  C   UNL     1      45.497   3.958  12.020  0.00  0.00    +0.000 A 
ATOM      7  N   UNL     1      46.004   3.998  13.275  0.00  0.00    +0.000 NA
ATOM      8  H   UNL     1      48.170   5.421  14.933  0.00  0.00    +0.000 HD
ENDROOT
BRANCH   5   9
ATOM      9  C   UNL     1      45.051   4.906   9.728  0.00  0.00    +0.000 C 
ATOM     10  N   UNL     1      43.720   4.637   9.559  0.00  0.00    +0.000 N 
ATOM     11  O   UNL     1      45.773   5.063   8.751  0.00  0.00    +0.000 OA
ATOM     12  H   UNL     1      43.046   4.480  10.289  0.00  0.00    +0.000 HD
ATOM     13  H   UNL     1      43.388   4.584   8.604  0.00  0.00    +0.000 HD
ENDBRANCH   5   9
BRANCH   1  14
ATOM     14  C   UNL     1      46.964   3.916  15.729  0.00  0.00    +0.000 C 
BRANCH  14  15
ATOM     15  C   UNL     1      47.365   4.027  17.207  0.00  0.00    +0.000 C 
BRANCH  15  21
ATOM     16  C   UNL     1      49.818   4.726  17.642  0.00  0.00    +0.000 A 
ATOM     17  C   UNL     1      51.180   4.355  17.703  0.00  0.00    +0.000 A 
ATOM     18  C   UNL     1      51.581   3.034  17.517  0.00  0.00    +0.000 A 
ATOM     19  C   UNL     1      50.626   2.055  17.272  0.00  0.00    +0.000 A 
ATOM     20  C   UNL     1      49.276   2.402  17.200  0.00  0.00    +0.000 A 
ATOM     21  C   UNL     1      48.848   3.733  17.381  0.00  0.00    +0.000 A 
BRANCH  16  22
ATOM     22  C   UNL     1      49.488   6.171  17.935  0.00  0.00    +0.000 C 
BRANCH  22  23
ATOM     23  N   UNL     1      49.284   6.916  16.697  0.00  0.00    +0.000 NA
ATOM     24  H   UNL     1      48.950   6.280  15.977  0.00  0.00    +0.000 HD
ATOM     25  H   UNL     1      50.186   7.262  16.366  0.00  0.00    +0.000 HD
ENDBRANCH  22  23
ENDBRANCH  16  22
ENDBRANCH  15  21
ENDBRANCH  14  15
ENDBRANCH   1  14
TORSDOF 6
ENDMDL
MODEL 7
REMARK VINA RESULT:    -6.016      3.964      6.057
REMARK INTER + INTRA:          -8.323
REMARK INTER:                  -7.795
REMARK INTRA:                  -0.527
REMARK UNBOUND:                -0.373
REMARK  Name = 
REMARK  6 active torsions:
REMARK  status: ('A' for Active; 'I' for Inactive)
REMARK    1  A    between atoms: N_1  and  C_2
REMARK    2  A    between atoms: C_2  and  C_3
REMARK    3  A    between atoms: C_8  and  C_9
REMARK    4  A    between atoms: C_9  and  C_10
REMARK    5  A    between atoms: C_10  and  N_11
REMARK    6  A    between atoms: C_15  and  C_16
REMARK                            x       y       z     vdW  Elec       q    Type
REMARK                         _______ _______ _______ _____ _____    ______ ____
ROOT
ATOM      1  N   UNL     1      47.446   7.503  13.774  0.00  0.00    +0.000 N 
ATOM      2  C   UNL     1      46.518   6.544  13.316  0.00  0.00    +0.000 A 
ATOM      3  C   UNL     1      45.338   6.964  12.706  0.00  0.00    +0.000 A 
ATOM      4  C   UNL     1      44.412   6.010  12.261  0.00  0.00    +0.000 A 
ATOM      5  C   UNL     1      44.677   4.648  12.434  0.00  0.00    +0.000 A 
ATOM      6  C   UNL     1      45.862   4.325  13.066  0.00  0.00    +0.000 A 
ATOM      7  N   UNL     1      46.768   5.232  13.502  0.00  0.00    +0.000 NA
ATOM      8  H   UNL     1      47.678   8.129  13.006  0.00  0.00    +0.000 HD
ENDROOT
BRANCH   5   9
ATOM      9  C   UNL     1      43.711   3.631  11.953  0.00  0.00    +0.000 C 
ATOM     10  N   UNL     1      43.743   2.373  12.491  0.00  0.00    +0.000 N 
ATOM     11  O   UNL     1      42.900   3.901  11.076  0.00  0.00    +0.000 OA
ATOM     12  H   UNL     1      44.374   2.046  13.203  0.00  0.00    +0.000 HD
ATOM     13  H   UNL     1      43.071   1.709  12.128  0.00  0.00    +0.000 HD
ENDBRANCH   5   9
BRANCH   1  14
ATOM     14  C   UNL     1      48.638   6.875  14.370  0.00  0.00    +0.000 C 
BRANCH  14  15
ATOM     15  C   UNL     1      48.725   7.092  15.887  0.00  0.00    +0.000 C 
BRANCH  15  21
ATOM     16  C   UNL     1      48.932   4.810  17.089  0.00  0.00    +0.000 A 
ATOM     17  C   UNL     1      49.756   3.869  17.747  0.00  0.00    +0.000 A 
ATOM     18  C   UNL     1      51.131   4.062  17.860  0.00  0.00    +0.000 A 
ATOM     19  C   UNL     1      51.711   5.198  17.310  0.00  0.00    +0.000 A 
ATOM     20  C   UNL     1      50.914   6.143  16.662  0.00  0.00    +0.000 A 
ATOM     21  C   UNL     1      49.520   5.971  16.541  0.00  0.00    +0.000 A 
BRANCH  16  22
ATOM     22  C   UNL     1      47.467   4.464  16.959  0.00  0.00    +0.000 C 
BRANCH  22  23
ATOM     23  N   UNL     1      46.739   4.829  18.170  0.00  0.00    +0.000 NA
ATOM     24  H   UNL     1      46.312   3.995  18.565  0.00  0.00    +0.000 HD
ATOM     25  H   UNL     1      45.964   5.444  17.917  0.00  0.00    +0.000 HD
ENDBRANCH  22  23
ENDBRANCH  16  22
ENDBRANCH  15  21
ENDBRANCH  14  15
ENDBRANCH   1  14
TORSDOF 6
ENDMDL
MODEL 8
REMARK VINA RESULT:    -5.889      3.962      7.061
REMARK INTER + INTRA:          -8.156
REMARK INTER:                  -7.775
REMARK INTRA:                  -0.381
REMARK UNBOUND:                -0.373
REMARK  Name = 
REMARK  6 active torsions:
REMARK  status: ('A' for Active; 'I' for Inactive)
REMARK    1  A    between atoms: N_1  and  C_2
REMARK    2  A    between atoms: C_2  and  C_3
REMARK    3  A    between atoms: C_8  and  C_9
REMARK    4  A    between atoms: C_9  and  C_10
REMARK    5  A    between atoms: C_10  and  N_11
REMARK    6  A    between atoms: C_15  and  C_16
REMARK                            x       y       z     vdW  Elec       q    Type
REMARK                         _______ _______ _______ _____ _____    ______ ____
ROOT
ATOM      1  N   UNL     1      47.306   6.829  11.682  0.00  0.00    +0.000 N 
ATOM      2  C   UNL     1      48.189   6.958  12.775  0.00  0.00    +0.000 A 
ATOM      3  C   UNL     1      49.304   7.785  12.666  0.00  0.00    +0.000 A 
ATOM      4  C   UNL     1      50.186   7.903  13.749  0.00  0.00    +0.000 A 
ATOM      5  C   UNL     1      49.942   7.191  14.927  0.00  0.00    +0.000 A 
ATOM      6  C   UNL     1      48.824   6.380  14.938  0.00  0.00    +0.000 A 
ATOM      7  N   UNL     1      47.961   6.254  13.902  0.00  0.00    +0.000 NA
ATOM      8  H   UNL     1      47.000   7.756  11.395  0.00  0.00    +0.000 HD
ENDROOT
BRANCH   5   9
ATOM      9  C   UNL     1      50.862   7.321  16.083  0.00  0.00    +0.000 C 
ATOM     10  N   UNL     1      50.944   6.298  16.988  0.00  0.00    +0.000 N 
ATOM     11  O   UNL     1      51.532   8.334  16.242  0.00  0.00    +0.000 OA
ATOM     12  H   UNL     1      50.431   5.433  16.959  0.00  0.00    +0.000 HD
ATOM     13  H   UNL     1      51.577   6.433  17.767  0.00  0.00    +0.000 HD
ENDBRANCH   5   9
BRANCH   1  14
ATOM     14  C   UNL     1      46.177   5.933  11.987  0.00  0.00    +0.000 C 
BRANCH  14  15
ATOM     15  C   UNL     1      45.039   6.044  10.963  0.00  0.00    +0.000 C 
BRANCH  15  21
ATOM     16  C   UNL     1      44.349   3.621  10.371  0.00  0.00    +0.000 A 
ATOM     17  C   UNL     1      44.465   2.520   9.493  0.00  0.00    +0.000 A 
ATOM     18  C   UNL     1      45.219   2.599   8.324  0.00  0.00    +0.000 A 
ATOM     19  C   UNL     1      45.869   3.785   8.006  0.00  0.00    +0.000 A 
ATOM     20  C   UNL     1      45.774   4.882   8.864  0.00  0.00    +0.000 A 
ATOM     21  C   UNL     1      45.020   4.823  10.054  0.00  0.00    +0.000 A 
BRANCH  16  22
ATOM     22  C   UNL     1      43.445   3.450  11.569  0.00  0.00    +0.000 C 
BRANCH  22  23
ATOM     23  N   UNL     1      43.028   2.058  11.708  0.00  0.00    +0.000 NA
ATOM     24  H   UNL     1      43.789   1.452  11.411  0.00  0.00    +0.000 HD
ATOM     25  H   UNL     1      42.260   1.877  11.061  0.00  0.00    +0.000 HD
ENDBRANCH  22  23
ENDBRANCH  16  22
ENDBRANCH  15  21
ENDBRANCH  14  15
ENDBRANCH   1  14
TORSDOF 6
ENDMDL
MODEL 9
REMARK VINA RESULT:    -5.854      4.780      8.240
REMARK INTER + INTRA:          -8.108
REMARK INTER:                  -7.733
REMARK INTRA:                  -0.375
REMARK UNBOUND:                -0.373
REMARK  Name = 
REMARK  6 active torsions:
REMARK  status: ('A' for Active; 'I' for Inactive)
REMARK    1  A    between atoms: N_1  and  C_2
REMARK    2  A    between atoms: C_2  and  C_3
REMARK    3  A    between atoms: C_8  and  C_9
REMARK    4  A    between atoms: C_9  and  C_10
REMARK    5  A    between atoms: C_10  and  N_11
REMARK    6  A    between atoms: C_15  and  C_16
REMARK                            x       y       z     vdW  Elec       q    Type
REMARK                         _______ _______ _______ _____ _____    ______ ____
ROOT
ATOM      1  N   UNL     1      47.174   3.413  14.723  0.00  0.00    +0.000 N 
ATOM      2  C   UNL     1      47.637   3.735  16.017  0.00  0.00    +0.000 A 
ATOM      3  C   UNL     1      47.920   2.714  16.921  0.00  0.00    +0.000 A 
ATOM      4  C   UNL     1      48.370   3.037  18.209  0.00  0.00    +0.000 A 
ATOM      5  C   UNL     1      48.531   4.376  18.577  0.00  0.00    +0.000 A 
ATOM      6  C   UNL     1      48.207   5.321  17.622  0.00  0.00    +0.000 A 
ATOM      7  N   UNL     1      47.771   5.029  16.374  0.00  0.00    +0.000 NA
ATOM      8  H   UNL     1      47.827   2.764  14.292  0.00  0.00    +0.000 HD
ENDROOT
BRANCH   5   9
ATOM      9  C   UNL     1      49.020   4.727  19.932  0.00  0.00    +0.000 C 
ATOM     10  N   UNL     1      48.190   4.556  21.006  0.00  0.00    +0.000 N 
ATOM     11  O   UNL     1      50.148   5.177  20.094  0.00  0.00    +0.000 OA
ATOM     12  H   UNL     1      47.247   4.207  20.980  0.00  0.00    +0.000 HD
ATOM     13  H   UNL     1      48.562   4.816  21.911  0.00  0.00    +0.000 HD
ENDBRANCH   5   9
BRANCH   1  14
ATOM     14  C   UNL     1      46.949   4.616  13.903  0.00  0.00    +0.000 C 
BRANCH  14  15
ATOM     15  C   UNL     1      45.463   4.859  13.605  0.00  0.00    +0.000 C 
BRANCH  15  21
ATOM     16  C   UNL     1      44.876   5.530  11.176  0.00  0.00    +0.000 A 
ATOM     17  C   UNL     1      44.519   5.123   9.870  0.00  0.00    +0.000 A 
ATOM     18  C   UNL     1      44.439   3.776   9.526  0.00  0.00    +0.000 A 
ATOM     19  C   UNL     1      44.723   2.806  10.480  0.00  0.00    +0.000 A 
ATOM     20  C   UNL     1      45.071   3.187  11.777  0.00  0.00    +0.000 A 
ATOM     21  C   UNL     1      45.152   4.544  12.149  0.00  0.00    +0.000 A 
BRANCH  16  22
ATOM     22  C   UNL     1      45.006   7.015  11.419  0.00  0.00    +0.000 C 
BRANCH  22  23
ATOM     23  N   UNL     1      43.742   7.696  11.154  0.00  0.00    +0.000 NA
ATOM     24  H   UNL     1      43.931   8.572  10.673  0.00  0.00    +0.000 HD
ATOM     25  H   UNL     1      43.313   7.954  12.043  0.00  0.00    +0.000 HD
ENDBRANCH  22  23
ENDBRANCH  16  22
ENDBRANCH  15  21
ENDBRANCH  14  15
ENDBRANCH   1  14
TORSDOF 6
ENDMDL
