MODEL 1
REMARK VINA RESULT:    -8.178      0.000      0.000
REMARK INTER + INTRA:         -13.297
REMARK INTER:                 -12.002
REMARK INTRA:                  -1.295
REMARK UNBOUND:                -1.295
REMARK  Name = 
REMARK  9 active torsions:
REMARK  status: ('A' for Active; 'I' for Inactive)
REMARK    1  A    between atoms: C_1  and  O_2
REMARK    2  A    between atoms: O_2  and  C_3
REMARK    3  A    between atoms: C_8  and  C_9
REMARK    4  A    between atoms: N_11  and  C_12
REMARK    5  A    between atoms: C_12  and  C_13
REMARK    6  A    between atoms: C_16  and  C_17
REMARK    7  A    between atoms: C_17  and  O_18
REMARK    8  A    between atoms: O_18  and  C_19
REMARK    9  A    between atoms: C_19  and  C_20
REMARK                            x       y       z     vdW  Elec       q    Type
REMARK                         _______ _______ _______ _____ _____    ______ ____
ROOT
ATOM      1  C   UNL     1      46.907   7.782  13.056  0.00  0.00    +0.000 C 
ENDROOT
BRANCH   1   2
ATOM      2  C   UNL     1      46.156   6.608  12.491  0.00  0.00    +0.000 A 
ATOM      3  C   UNL     1      45.768   6.590  11.145  0.00  0.00    +0.000 A 
ATOM      4  C   UNL     1      44.982   5.547  10.649  0.00  0.00    +0.000 A 
ATOM      5  C   UNL     1      44.563   4.506  11.489  0.00  0.00    +0.000 A 
ATOM      6  C   UNL     1      44.986   4.505  12.824  0.00  0.00    +0.000 A 
ATOM      7  C   UNL     1      45.772   5.546  13.321  0.00  0.00    +0.000 A 
BRANCH   5   8
ATOM      8  C   UNL     1      43.625   3.442  10.979  0.00  0.00    +0.000 C 
BRANCH   8   9
ATOM      9  O   UNL     1      43.909   3.162   9.615  0.00  0.00    +0.000 OA
BRANCH   9  10
ATOM     10  C   UNL     1      44.678   1.970   9.475  0.00  0.00    +0.000 C 
BRANCH  10  11
ATOM     11  C   UNL     1      45.663   2.170   8.355  0.00  0.00    +0.000 A 
ATOM     12  C   UNL     1      45.746   3.410   7.705  0.00  0.00    +0.000 A 
ATOM     13  C   UNL     1      46.631   3.597   6.642  0.00  0.00    +0.000 A 
ATOM     14  C   UNL     1      47.445   2.547   6.222  0.00  0.00    +0.000 A 
ATOM     15  C   UNL     1      47.383   1.315   6.869  0.00  0.00    +0.000 A 
ATOM     16  C   UNL     1      46.497   1.126   7.933  0.00  0.00    +0.000 A 
ENDBRANCH  10  11
ENDBRANCH   9  10
ENDBRANCH   8   9
ENDBRANCH   5   8
ENDBRANCH   1   2
BRANCH   1  19
ATOM     17  C   UNL     1      48.648   6.933  14.541  0.00  0.00    +0.000 C 
ATOM     18  O   UNL     1      49.389   6.725  13.581  0.00  0.00    +0.000 OA
ATOM     19  N   UNL     1      47.398   7.483  14.384  0.00  0.00    +0.000 N 
ATOM     20  H   UNL     1      46.725   7.378  15.129  0.00  0.00    +0.000 HD
BRANCH  17  26
ATOM     21  C   UNL     1      48.862   4.484  18.969  0.00  0.00    +0.000 A 
ATOM     22  N   UNL     1      48.050   3.446  18.655  0.00  0.00    +0.000 NA
ATOM     23  C   UNL     1      47.523   3.386  17.421  0.00  0.00    +0.000 A 
ATOM     24  C   UNL     1      47.750   4.323  16.425  0.00  0.00    +0.000 A 
ATOM     25  C   UNL     1      48.617   5.405  16.705  0.00  0.00    +0.000 A 
ATOM     26  C   UNL     1      49.032   6.550  15.902  0.00  0.00    +0.000 A 
ATOM     27  C   UNL     1      49.875   7.377  16.624  0.00  0.00    +0.000 A 
ATOM     28  S   UNL     1      50.181   6.831  18.197  0.00  0.00    +0.000 S 
ATOM     29  C   UNL     1      49.162   5.456  17.999  0.00  0.00    +0.000 A 
BRANCH  21  31
ATOM     30  C   UNL     1      48.438   5.078  21.198  0.00  0.00    +0.000 C 
ATOM     31  O   UNL     1      49.379   4.593  20.247  0.00  0.00    +0.000 OA
ENDBRANCH  21  31
ENDBRANCH  17  26
ENDBRANCH   1  19
TORSDOF 8
ENDMDL
MODEL 2
REMARK VINA RESULT:    -7.703      2.447      3.124
REMARK INTER + INTRA:         -12.601
REMARK INTER:                 -11.459
REMARK INTRA:                  -1.143
REMARK UNBOUND:                -1.295
REMARK  Name = 
REMARK  9 active torsions:
REMARK  status: ('A' for Active; 'I' for Inactive)
REMARK    1  A    between atoms: C_1  and  O_2
REMARK    2  A    between atoms: O_2  and  C_3
REMARK    3  A    between atoms: C_8  and  C_9
REMARK    4  A    between atoms: N_11  and  C_12
REMARK    5  A    between atoms: C_12  and  C_13
REMARK    6  A    between atoms: C_16  and  C_17
REMARK    7  A    between atoms: C_17  and  O_18
REMARK    8  A    between atoms: O_18  and  C_19
REMARK    9  A    between atoms: C_19  and  C_20
REMARK                            x       y       z     vdW  Elec       q    Type
REMARK                         _______ _______ _______ _____ _____    ______ ____
ROOT
ATOM      1  C   UNL     1      48.479   6.722  13.593  0.00  0.00    +0.000 C 
ENDROOT
BRANCH   1   2
ATOM      2  C   UNL     1      47.316   6.105  12.866  0.00  0.00    +0.000 A 
ATOM      3  C   UNL     1      46.887   6.623  11.637  0.00  0.00    +0.000 A 
ATOM      4  C   UNL     1      45.745   6.114  11.015  0.00  0.00    +0.000 A 
ATOM      5  C   UNL     1      45.006   5.083  11.611  0.00  0.00    +0.000 A 
ATOM      6  C   UNL     1      45.459   4.539  12.819  0.00  0.00    +0.000 A 
ATOM      7  C   UNL     1      46.602   5.046  13.442  0.00  0.00    +0.000 A 
BRANCH   5   8
ATOM      8  C   UNL     1      43.713   4.612  10.994  0.00  0.00    +0.000 C 
BRANCH   8   9
ATOM      9  O   UNL     1      43.952   4.147   9.672  0.00  0.00    +0.000 OA
BRANCH   9  10
ATOM     10  C   UNL     1      44.432   2.804   9.669  0.00  0.00    +0.000 C 
BRANCH  10  11
ATOM     11  C   UNL     1      45.466   2.673   8.584  0.00  0.00    +0.000 A 
ATOM     12  C   UNL     1      46.037   1.423   8.304  0.00  0.00    +0.000 A 
ATOM     13  C   UNL     1      47.023   1.296   7.325  0.00  0.00    +0.000 A 
ATOM     14  C   UNL     1      47.444   2.416   6.612  0.00  0.00    +0.000 A 
ATOM     15  C   UNL     1      46.874   3.661   6.870  0.00  0.00    +0.000 A 
ATOM     16  C   UNL     1      45.888   3.790   7.850  0.00  0.00    +0.000 A 
ENDBRANCH  10  11
ENDBRANCH   9  10
ENDBRANCH   8   9
ENDBRANCH   5   8
ENDBRANCH   1   2
BRANCH   1  19
ATOM     17  C   UNL     1      48.976   6.739  15.982  0.00  0.00    +0.000 C 
ATOM     18  O   UNL     1      50.078   6.232  15.774  0.00  0.00    +0.000 OA
ATOM     19  N   UNL     1      48.115   7.046  14.956  0.00  0.00    +0.000 N 
ATOM     20  H   UNL     1      47.139   7.188  15.168  0.00  0.00    +0.000 HD
BRANCH  17  26
ATOM     21  C   UNL     1      47.407   9.122  20.167  0.00  0.00    +0.000 A 
ATOM     22  N   UNL     1      47.333  10.375  19.659  0.00  0.00    +0.000 NA
ATOM     23  C   UNL     1      47.640  10.569  18.366  0.00  0.00    +0.000 A 
ATOM     24  C   UNL     1      48.036   9.567  17.495  0.00  0.00    +0.000 A 
ATOM     25  C   UNL     1      48.096   8.239  17.980  0.00  0.00    +0.000 A 
ATOM     26  C   UNL     1      48.493   6.989  17.343  0.00  0.00    +0.000 A 
ATOM     27  C   UNL     1      48.425   5.937  18.240  0.00  0.00    +0.000 A 
ATOM     28  S   UNL     1      47.904   6.392  19.785  0.00  0.00    +0.000 S 
ATOM     29  C   UNL     1      47.772   8.050  19.335  0.00  0.00    +0.000 A 
BRANCH  21  31
ATOM     30  C   UNL     1      46.207   9.828  22.054  0.00  0.00    +0.000 C 
ATOM     31  O   UNL     1      47.141   8.904  21.506  0.00  0.00    +0.000 OA
ENDBRANCH  21  31
ENDBRANCH  17  26
ENDBRANCH   1  19
TORSDOF 8
ENDMDL
MODEL 3
REMARK VINA RESULT:    -7.419      2.394      3.075
REMARK INTER + INTRA:         -12.184
REMARK INTER:                 -11.127
REMARK INTRA:                  -1.057
REMARK UNBOUND:                -1.295
REMARK  Name = 
REMARK  9 active torsions:
REMARK  status: ('A' for Active; 'I' for Inactive)
REMARK    1  A    between atoms: C_1  and  O_2
REMARK    2  A    between atoms: O_2  and  C_3
REMARK    3  A    between atoms: C_8  and  C_9
REMARK    4  A    between atoms: N_11  and  C_12
REMARK    5  A    between atoms: C_12  and  C_13
REMARK    6  A    between atoms: C_16  and  C_17
REMARK    7  A    between atoms: C_17  and  O_18
REMARK    8  A    between atoms: O_18  and  C_19
REMARK    9  A    between atoms: C_19  and  C_20
REMARK                            x       y       z     vdW  Elec       q    Type
REMARK                         _______ _______ _______ _____ _____    ______ ____
ROOT
ATOM      1  C   UNL     1      47.441   4.081  15.259  0.00  0.00    +0.000 C 
ENDROOT
BRANCH   1   2
ATOM      2  C   UNL     1      46.625   4.289  14.013  0.00  0.00    +0.000 A 
ATOM      3  C   UNL     1      46.177   5.567  13.659  0.00  0.00    +0.000 A 
ATOM      4  C   UNL     1      45.335   5.743  12.559  0.00  0.00    +0.000 A 
ATOM      5  C   UNL     1      44.918   4.644  11.795  0.00  0.00    +0.000 A 
ATOM      6  C   UNL     1      45.400   3.371  12.126  0.00  0.00    +0.000 A 
ATOM      7  C   UNL     1      46.243   3.194  13.226  0.00  0.00    +0.000 A 
BRANCH   5   8
ATOM      8  C   UNL     1      43.922   4.821  10.678  0.00  0.00    +0.000 C 
BRANCH   8   9
ATOM      9  O   UNL     1      44.079   3.781   9.722  0.00  0.00    +0.000 OA
BRANCH   9  10
ATOM     10  C   UNL     1      44.632   4.271   8.503  0.00  0.00    +0.000 C 
BRANCH  10  11
ATOM     11  C   UNL     1      45.601   3.247   7.976  0.00  0.00    +0.000 A 
ATOM     12  C   UNL     1      45.593   1.942   8.490  0.00  0.00    +0.000 A 
ATOM     13  C   UNL     1      46.510   0.994   8.035  0.00  0.00    +0.000 A 
ATOM     14  C   UNL     1      47.441   1.340   7.059  0.00  0.00    +0.000 A 
ATOM     15  C   UNL     1      47.450   2.628   6.529  0.00  0.00    +0.000 A 
ATOM     16  C   UNL     1      46.533   3.579   6.983  0.00  0.00    +0.000 A 
ENDBRANCH  10  11
ENDBRANCH   9  10
ENDBRANCH   8   9
ENDBRANCH   5   8
ENDBRANCH   1   2
BRANCH   1  19
ATOM     17  C   UNL     1      48.576   5.725  16.661  0.00  0.00    +0.000 C 
ATOM     18  O   UNL     1      49.660   5.183  16.448  0.00  0.00    +0.000 OA
ATOM     19  N   UNL     1      47.413   5.264  16.091  0.00  0.00    +0.000 N 
ATOM     20  H   UNL     1      46.531   5.541  16.498  0.00  0.00    +0.000 HD
BRANCH  17  26
ATOM     21  C   UNL     1      47.561   8.477  20.789  0.00  0.00    +0.000 A 
ATOM     22  N   UNL     1      47.229   7.462  21.621  0.00  0.00    +0.000 NA
ATOM     23  C   UNL     1      47.282   6.202  21.159  0.00  0.00    +0.000 A 
ATOM     24  C   UNL     1      47.658   5.854  19.871  0.00  0.00    +0.000 A 
ATOM     25  C   UNL     1      48.042   6.884  18.982  0.00  0.00    +0.000 A 
ATOM     26  C   UNL     1      48.454   6.857  17.583  0.00  0.00    +0.000 A 
ATOM     27  C   UNL     1      48.699   8.137  17.117  0.00  0.00    +0.000 A 
ATOM     28  S   UNL     1      48.462   9.343  18.282  0.00  0.00    +0.000 S 
ATOM     29  C   UNL     1      47.982   8.198  19.478  0.00  0.00    +0.000 A 
BRANCH  21  31
ATOM     30  C   UNL     1      46.164  10.337  21.091  0.00  0.00    +0.000 C 
ATOM     31  O   UNL     1      47.470   9.786  21.227  0.00  0.00    +0.000 OA
ENDBRANCH  21  31
ENDBRANCH  17  26
ENDBRANCH   1  19
TORSDOF 8
ENDMDL
MODEL 4
REMARK VINA RESULT:    -6.709      4.065      5.928
REMARK INTER + INTRA:         -11.142
REMARK INTER:                 -10.164
REMARK INTRA:                  -0.978
REMARK UNBOUND:                -1.295
REMARK  Name = 
REMARK  9 active torsions:
REMARK  status: ('A' for Active; 'I' for Inactive)
REMARK    1  A    between atoms: C_1  and  O_2
REMARK    2  A    between atoms: O_2  and  C_3
REMARK    3  A    between atoms: C_8  and  C_9
REMARK    4  A    between atoms: N_11  and  C_12
REMARK    5  A    between atoms: C_12  and  C_13
REMARK    6  A    between atoms: C_16  and  C_17
REMARK    7  A    between atoms: C_17  and  O_18
REMARK    8  A    between atoms: O_18  and  C_19
REMARK    9  A    between atoms: C_19  and  C_20
REMARK                            x       y       z     vdW  Elec       q    Type
REMARK                         _______ _______ _______ _____ _____    ______ ____
ROOT
ATOM      1  C   UNL     1      46.082   8.719  12.958  0.00  0.00    +0.000 C 
ENDROOT
BRANCH   1   2
ATOM      2  C   UNL     1      45.646   7.358  12.489  0.00  0.00    +0.000 A 
ATOM      3  C   UNL     1      44.497   7.209  11.701  0.00  0.00    +0.000 A 
ATOM      4  C   UNL     1      44.037   5.937  11.354  0.00  0.00    +0.000 A 
ATOM      5  C   UNL     1      44.712   4.789  11.792  0.00  0.00    +0.000 A 
ATOM      6  C   UNL     1      45.883   4.941  12.546  0.00  0.00    +0.000 A 
ATOM      7  C   UNL     1      46.344   6.213  12.893  0.00  0.00    +0.000 A 
BRANCH   5   8
ATOM      8  C   UNL     1      44.152   3.418  11.511  0.00  0.00    +0.000 C 
BRANCH   8   9
ATOM      9  O   UNL     1      44.941   2.770  10.522  0.00  0.00    +0.000 OA
BRANCH   9  10
ATOM     10  C   UNL     1      44.463   3.046   9.208  0.00  0.00    +0.000 C 
BRANCH  10  11
ATOM     11  C   UNL     1      45.526   2.641   8.222  0.00  0.00    +0.000 A 
ATOM     12  C   UNL     1      45.922   3.530   7.212  0.00  0.00    +0.000 A 
ATOM     13  C   UNL     1      46.881   3.153   6.270  0.00  0.00    +0.000 A 
ATOM     14  C   UNL     1      47.456   1.886   6.333  0.00  0.00    +0.000 A 
ATOM     15  C   UNL     1      47.083   1.000   7.341  0.00  0.00    +0.000 A 
ATOM     16  C   UNL     1      46.123   1.375   8.283  0.00  0.00    +0.000 A 
ENDBRANCH  10  11
ENDBRANCH   9  10
ENDBRANCH   8   9
ENDBRANCH   5   8
ENDBRANCH   1   2
BRANCH   1  19
ATOM     17  C   UNL     1      48.466   9.237  12.918  0.00  0.00    +0.000 C 
ATOM     18  O   UNL     1      48.573   8.919  14.102  0.00  0.00    +0.000 OA
ATOM     19  N   UNL     1      47.269   9.148  12.250  0.00  0.00    +0.000 N 
ATOM     20  H   UNL     1      47.151   9.670  11.394  0.00  0.00    +0.000 HD
BRANCH  17  26
ATOM     21  C   UNL     1      52.685   9.575  10.136  0.00  0.00    +0.000 A 
ATOM     22  N   UNL     1      52.828   8.262   9.841  0.00  0.00    +0.000 NA
ATOM     23  C   UNL     1      51.915   7.391  10.303  0.00  0.00    +0.000 A 
ATOM     24  C   UNL     1      50.817   7.741  11.073  0.00  0.00    +0.000 A 
ATOM     25  C   UNL     1      50.616   9.108  11.376  0.00  0.00    +0.000 A 
ATOM     26  C   UNL     1      49.599   9.789  12.169  0.00  0.00    +0.000 A 
ATOM     27  C   UNL     1      49.839  11.151  12.212  0.00  0.00    +0.000 A 
ATOM     28  S   UNL     1      51.212  11.628  11.345  0.00  0.00    +0.000 S 
ATOM     29  C   UNL     1      51.578  10.008  10.887  0.00  0.00    +0.000 A 
BRANCH  21  31
ATOM     30  C   UNL     1      53.520  10.823   8.334  0.00  0.00    +0.000 C 
ATOM     31  O   UNL     1      53.637  10.485   9.712  0.00  0.00    +0.000 OA
ENDBRANCH  21  31
ENDBRANCH  17  26
ENDBRANCH   1  19
TORSDOF 8
ENDMDL
MODEL 5
REMARK VINA RESULT:    -6.671      2.289      3.503
REMARK INTER + INTRA:         -11.085
REMARK INTER:                 -10.371
REMARK INTRA:                  -0.714
REMARK UNBOUND:                -1.295
REMARK  Name = 
REMARK  9 active torsions:
REMARK  status: ('A' for Active; 'I' for Inactive)
REMARK    1  A    between atoms: C_1  and  O_2
REMARK    2  A    between atoms: O_2  and  C_3
REMARK    3  A    between atoms: C_8  and  C_9
REMARK    4  A    between atoms: N_11  and  C_12
REMARK    5  A    between atoms: C_12  and  C_13
REMARK    6  A    between atoms: C_16  and  C_17
REMARK    7  A    between atoms: C_17  and  O_18
REMARK    8  A    between atoms: O_18  and  C_19
REMARK    9  A    between atoms: C_19  and  C_20
REMARK                            x       y       z     vdW  Elec       q    Type
REMARK                         _______ _______ _______ _____ _____    ______ ____
ROOT
ATOM      1  C   UNL     1      47.654   3.568  15.203  0.00  0.00    +0.000 C 
ENDROOT
BRANCH   1   2
ATOM      2  C   UNL     1      46.900   4.170  14.049  0.00  0.00    +0.000 A 
ATOM      3  C   UNL     1      46.042   3.383  13.270  0.00  0.00    +0.000 A 
ATOM      4  C   UNL     1      45.425   3.919  12.137  0.00  0.00    +0.000 A 
ATOM      5  C   UNL     1      45.657   5.248  11.758  0.00  0.00    +0.000 A 
ATOM      6  C   UNL     1      46.483   6.045  12.561  0.00  0.00    +0.000 A 
ATOM      7  C   UNL     1      47.100   5.510  13.694  0.00  0.00    +0.000 A 
BRANCH   5   8
ATOM      8  C   UNL     1      45.078   5.790  10.476  0.00  0.00    +0.000 C 
BRANCH   8   9
ATOM      9  O   UNL     1      45.706   5.169   9.363  0.00  0.00    +0.000 OA
BRANCH   9  10
ATOM     10  C   UNL     1      44.862   4.186   8.767  0.00  0.00    +0.000 C 
BRANCH  10  11
ATOM     11  C   UNL     1      45.731   3.177   8.066  0.00  0.00    +0.000 A 
ATOM     12  C   UNL     1      46.477   3.554   6.940  0.00  0.00    +0.000 A 
ATOM     13  C   UNL     1      47.258   2.618   6.260  0.00  0.00    +0.000 A 
ATOM     14  C   UNL     1      47.305   1.299   6.702  0.00  0.00    +0.000 A 
ATOM     15  C   UNL     1      46.580   0.915   7.829  0.00  0.00    +0.000 A 
ATOM     16  C   UNL     1      45.797   1.850   8.510  0.00  0.00    +0.000 A 
ENDBRANCH  10  11
ENDBRANCH   9  10
ENDBRANCH   8   9
ENDBRANCH   5   8
ENDBRANCH   1   2
BRANCH   1  19
ATOM     17  C   UNL     1      47.462   4.624  17.395  0.00  0.00    +0.000 C 
ATOM     18  O   UNL     1      46.646   3.775  17.752  0.00  0.00    +0.000 OA
ATOM     19  N   UNL     1      48.042   4.592  16.149  0.00  0.00    +0.000 N 
ATOM     20  H   UNL     1      48.471   5.433  15.793  0.00  0.00    +0.000 HD
BRANCH  17  26
ATOM     21  C   UNL     1      49.402   9.013  19.016  0.00  0.00    +0.000 A 
ATOM     22  N   UNL     1      49.847   9.479  17.826  0.00  0.00    +0.000 NA
ATOM     23  C   UNL     1      49.646   8.738  16.724  0.00  0.00    +0.000 A 
ATOM     24  C   UNL     1      49.006   7.508  16.712  0.00  0.00    +0.000 A 
ATOM     25  C   UNL     1      48.499   7.002  17.931  0.00  0.00    +0.000 A 
ATOM     26  C   UNL     1      47.816   5.756  18.257  0.00  0.00    +0.000 A 
ATOM     27  C   UNL     1      47.542   5.684  19.612  0.00  0.00    +0.000 A 
ATOM     28  S   UNL     1      48.060   7.040  20.483  0.00  0.00    +0.000 S 
ATOM     29  C   UNL     1      48.716   7.787  19.077  0.00  0.00    +0.000 A 
BRANCH  21  31
ATOM     30  C   UNL     1      49.588  11.144  19.977  0.00  0.00    +0.000 C 
ATOM     31  O   UNL     1      49.638   9.735  20.172  0.00  0.00    +0.000 OA
ENDBRANCH  21  31
ENDBRANCH  17  26
ENDBRANCH   1  19
TORSDOF 8
ENDMDL
MODEL 6
REMARK VINA RESULT:    -6.556      3.009      8.402
REMARK INTER + INTRA:         -10.918
REMARK INTER:                  -8.730
REMARK INTRA:                  -2.188
REMARK UNBOUND:                -1.295
REMARK  Name = 
REMARK  9 active torsions:
REMARK  status: ('A' for Active; 'I' for Inactive)
REMARK    1  A    between atoms: C_1  and  O_2
REMARK    2  A    between atoms: O_2  and  C_3
REMARK    3  A    between atoms: C_8  and  C_9
REMARK    4  A    between atoms: N_11  and  C_12
REMARK    5  A    between atoms: C_12  and  C_13
REMARK    6  A    between atoms: C_16  and  C_17
REMARK    7  A    between atoms: C_17  and  O_18
REMARK    8  A    between atoms: O_18  and  C_19
REMARK    9  A    between atoms: C_19  and  C_20
REMARK                            x       y       z     vdW  Elec       q    Type
REMARK                         _______ _______ _______ _____ _____    ______ ____
ROOT
ATOM      1  C   UNL     1      48.338   9.278  15.145  0.00  0.00    +0.000 C 
ENDROOT
BRANCH   1   2
ATOM      2  C   UNL     1      49.428   8.608  15.934  0.00  0.00    +0.000 A 
ATOM      3  C   UNL     1      50.119   7.510  15.407  0.00  0.00    +0.000 A 
ATOM      4  C   UNL     1      51.059   6.826  16.181  0.00  0.00    +0.000 A 
ATOM      5  C   UNL     1      51.322   7.222  17.500  0.00  0.00    +0.000 A 
ATOM      6  C   UNL     1      50.660   8.345  18.012  0.00  0.00    +0.000 A 
ATOM      7  C   UNL     1      49.720   9.030  17.238  0.00  0.00    +0.000 A 
BRANCH   5   8
ATOM      8  C   UNL     1      52.253   6.417  18.370  0.00  0.00    +0.000 C 
BRANCH   8   9
ATOM      9  O   UNL     1      51.937   5.035  18.264  0.00  0.00    +0.000 OA
BRANCH   9  10
ATOM     10  C   UNL     1      50.950   4.650  19.218  0.00  0.00    +0.000 C 
BRANCH  10  11
ATOM     11  C   UNL     1      49.695   4.276  18.477  0.00  0.00    +0.000 A 
ATOM     12  C   UNL     1      49.673   3.135  17.662  0.00  0.00    +0.000 A 
ATOM     13  C   UNL     1      48.525   2.798  16.942  0.00  0.00    +0.000 A 
ATOM     14  C   UNL     1      47.388   3.596  17.034  0.00  0.00    +0.000 A 
ATOM     15  C   UNL     1      47.391   4.724  17.852  0.00  0.00    +0.000 A 
ATOM     16  C   UNL     1      48.539   5.063  18.573  0.00  0.00    +0.000 A 
ENDBRANCH  10  11
ENDBRANCH   9  10
ENDBRANCH   8   9
ENDBRANCH   5   8
ENDBRANCH   1   2
BRANCH   1  19
ATOM     17  C   UNL     1      47.302   8.192  13.220  0.00  0.00    +0.000 C 
ATOM     18  O   UNL     1      47.965   8.885  12.450  0.00  0.00    +0.000 OA
ATOM     19  N   UNL     1      47.435   8.295  14.584  0.00  0.00    +0.000 N 
ATOM     20  H   UNL     1      46.699   7.934  15.172  0.00  0.00    +0.000 HD
BRANCH  17  26
ATOM     21  C   UNL     1      44.847   3.903  12.111  0.00  0.00    +0.000 A 
ATOM     22  N   UNL     1      45.659   3.040  12.766  0.00  0.00    +0.000 NA
ATOM     23  C   UNL     1      46.716   3.528  13.436  0.00  0.00    +0.000 A 
ATOM     24  C   UNL     1      47.047   4.872  13.509  0.00  0.00    +0.000 A 
ATOM     25  C   UNL     1      46.205   5.807  12.862  0.00  0.00    +0.000 A 
ATOM     26  C   UNL     1      46.287   7.257  12.727  0.00  0.00    +0.000 A 
ATOM     27  C   UNL     1      45.239   7.739  11.962  0.00  0.00    +0.000 A 
ATOM     28  S   UNL     1      44.181   6.534  11.419  0.00  0.00    +0.000 S 
ATOM     29  C   UNL     1      45.103   5.284  12.165  0.00  0.00    +0.000 A 
BRANCH  21  31
ATOM     30  C   UNL     1      44.162   2.865  10.122  0.00  0.00    +0.000 C 
ATOM     31  O   UNL     1      43.780   3.421  11.375  0.00  0.00    +0.000 OA
ENDBRANCH  21  31
ENDBRANCH  17  26
ENDBRANCH   1  19
TORSDOF 8
ENDMDL
MODEL 7
REMARK VINA RESULT:    -6.368      3.918      9.832
REMARK INTER + INTRA:         -10.641
REMARK INTER:                  -8.655
REMARK INTRA:                  -1.986
REMARK UNBOUND:                -1.295
REMARK  Name = 
REMARK  9 active torsions:
REMARK  status: ('A' for Active; 'I' for Inactive)
REMARK    1  A    between atoms: C_1  and  O_2
REMARK    2  A    between atoms: O_2  and  C_3
REMARK    3  A    between atoms: C_8  and  C_9
REMARK    4  A    between atoms: N_11  and  C_12
REMARK    5  A    between atoms: C_12  and  C_13
REMARK    6  A    between atoms: C_16  and  C_17
REMARK    7  A    between atoms: C_17  and  O_18
REMARK    8  A    between atoms: O_18  and  C_19
REMARK    9  A    between atoms: C_19  and  C_20
REMARK                            x       y       z     vdW  Elec       q    Type
REMARK                         _______ _______ _______ _____ _____    ______ ____
ROOT
ATOM      1  C   UNL     1      47.379   3.532  16.641  0.00  0.00    +0.000 C 
ENDROOT
BRANCH   1   2
ATOM      2  C   UNL     1      48.677   4.200  17.001  0.00  0.00    +0.000 A 
ATOM      3  C   UNL     1      49.690   3.486  17.654  0.00  0.00    +0.000 A 
ATOM      4  C   UNL     1      50.852   4.134  18.079  0.00  0.00    +0.000 A 
ATOM      5  C   UNL     1      51.022   5.509  17.866  0.00  0.00    +0.000 A 
ATOM      6  C   UNL     1      50.027   6.213  17.176  0.00  0.00    +0.000 A 
ATOM      7  C   UNL     1      48.865   5.565  16.750  0.00  0.00    +0.000 A 
BRANCH   5   8
ATOM      8  C   UNL     1      52.225   6.227  18.422  0.00  0.00    +0.000 C 
BRANCH   8   9
ATOM      9  O   UNL     1      52.296   6.029  19.828  0.00  0.00    +0.000 OA
BRANCH   9  10
ATOM     10  C   UNL     1      51.622   7.066  20.537  0.00  0.00    +0.000 C 
BRANCH  10  11
ATOM     11  C   UNL     1      50.204   6.627  20.785  0.00  0.00    +0.000 A 
ATOM     12  C   UNL     1      49.137   7.468  20.439  0.00  0.00    +0.000 A 
ATOM     13  C   UNL     1      47.819   7.087  20.697  0.00  0.00    +0.000 A 
ATOM     14  C   UNL     1      47.556   5.859  21.298  0.00  0.00    +0.000 A 
ATOM     15  C   UNL     1      48.607   5.007  21.633  0.00  0.00    +0.000 A 
ATOM     16  C   UNL     1      49.926   5.387  21.377  0.00  0.00    +0.000 A 
ENDBRANCH  10  11
ENDBRANCH   9  10
ENDBRANCH   8   9
ENDBRANCH   5   8
ENDBRANCH   1   2
BRANCH   1  19
ATOM     17  C   UNL     1      46.683   4.130  14.380  0.00  0.00    +0.000 C 
ATOM     18  O   UNL     1      47.348   3.207  13.912  0.00  0.00    +0.000 OA
ATOM     19  N   UNL     1      46.613   4.359  15.733  0.00  0.00    +0.000 N 
ATOM     20  H   UNL     1      46.306   5.264  16.057  0.00  0.00    +0.000 HD
BRANCH  17  26
ATOM     21  C   UNL     1      45.390   8.377  11.941  0.00  0.00    +0.000 A 
ATOM     22  N   UNL     1      46.465   9.128  12.277  0.00  0.00    +0.000 NA
ATOM     23  C   UNL     1      47.426   8.579  13.040  0.00  0.00    +0.000 A 
ATOM     24  C   UNL     1      47.400   7.279  13.518  0.00  0.00    +0.000 A 
ATOM     25  C   UNL     1      46.308   6.453  13.162  0.00  0.00    +0.000 A 
ATOM     26  C   UNL     1      45.974   5.078  13.515  0.00  0.00    +0.000 A 
ATOM     27  C   UNL     1      44.767   4.705  12.950  0.00  0.00    +0.000 A 
ATOM     28  S   UNL     1      44.042   5.924  12.025  0.00  0.00    +0.000 S 
ATOM     29  C   UNL     1      45.310   7.039  12.364  0.00  0.00    +0.000 A 
BRANCH  21  31
ATOM     30  C   UNL     1      44.125  10.303  11.503  0.00  0.00    +0.000 C 
ATOM     31  O   UNL     1      44.366   8.934  11.197  0.00  0.00    +0.000 OA
ENDBRANCH  21  31
ENDBRANCH  17  26
ENDBRANCH   1  19
TORSDOF 8
ENDMDL
MODEL 8
REMARK VINA RESULT:    -6.296      4.781      9.562
REMARK INTER + INTRA:         -10.535
REMARK INTER:                  -9.553
REMARK INTRA:                  -0.982
REMARK UNBOUND:                -1.295
REMARK  Name = 
REMARK  9 active torsions:
REMARK  status: ('A' for Active; 'I' for Inactive)
REMARK    1  A    between atoms: C_1  and  O_2
REMARK    2  A    between atoms: O_2  and  C_3
REMARK    3  A    between atoms: C_8  and  C_9
REMARK    4  A    between atoms: N_11  and  C_12
REMARK    5  A    between atoms: C_12  and  C_13
REMARK    6  A    between atoms: C_16  and  C_17
REMARK    7  A    between atoms: C_17  and  O_18
REMARK    8  A    between atoms: O_18  and  C_19
REMARK    9  A    between atoms: C_19  and  C_20
REMARK                            x       y       z     vdW  Elec       q    Type
REMARK                         _______ _______ _______ _____ _____    ______ ____
ROOT
ATOM      1  C   UNL     1      47.348   3.179  16.948  0.00  0.00    +0.000 C 
ENDROOT
BRANCH   1   2
ATOM      2  C   UNL     1      48.835   3.221  17.166  0.00  0.00    +0.000 A 
ATOM      3  C   UNL     1      49.608   2.061  17.033  0.00  0.00    +0.000 A 
ATOM      4  C   UNL     1      50.972   2.080  17.336  0.00  0.00    +0.000 A 
ATOM      5  C   UNL     1      51.587   3.257  17.783  0.00  0.00    +0.000 A 
ATOM      6  C   UNL     1      50.822   4.426  17.876  0.00  0.00    +0.000 A 
ATOM      7  C   UNL     1      49.458   4.408  17.573  0.00  0.00    +0.000 A 
BRANCH   5   8
ATOM      8  C   UNL     1      53.032   3.249  18.215  0.00  0.00    +0.000 C 
BRANCH   8   9
ATOM      9  O   UNL     1      53.320   2.043  18.910  0.00  0.00    +0.000 OA
BRANCH   9  10
ATOM     10  C   UNL     1      54.693   1.682  18.785  0.00  0.00    +0.000 C 
BRANCH  10  11
ATOM     11  C   UNL     1      54.771   0.334  18.122  0.00  0.00    +0.000 A 
ATOM     12  C   UNL     1      54.907  -0.825  18.899  0.00  0.00    +0.000 A 
ATOM     13  C   UNL     1      55.016  -2.078  18.294  0.00  0.00    +0.000 A 
ATOM     14  C   UNL     1      54.984  -2.184  16.905  0.00  0.00    +0.000 A 
ATOM     15  C   UNL     1      54.834  -1.042  16.122  0.00  0.00    +0.000 A 
ATOM     16  C   UNL     1      54.726   0.213  16.726  0.00  0.00    +0.000 A 
ENDBRANCH  10  11
ENDBRANCH   9  10
ENDBRANCH   8   9
ENDBRANCH   5   8
ENDBRANCH   1   2
BRANCH   1  19
ATOM     17  C   UNL     1      46.973   4.126  14.730  0.00  0.00    +0.000 C 
ATOM     18  O   UNL     1      47.325   3.072  14.202  0.00  0.00    +0.000 OA
ATOM     19  N   UNL     1      46.925   4.270  16.096  0.00  0.00    +0.000 N 
ATOM     20  H   UNL     1      46.911   5.201  16.485  0.00  0.00    +0.000 HD
BRANCH  17  26
ATOM     21  C   UNL     1      44.565   7.290  11.593  0.00  0.00    +0.000 A 
ATOM     22  N   UNL     1      43.431   6.570  11.425  0.00  0.00    +0.000 NA
ATOM     23  C   UNL     1      43.305   5.400  12.073  0.00  0.00    +0.000 A 
ATOM     24  C   UNL     1      44.265   4.863  12.916  0.00  0.00    +0.000 A 
ATOM     25  C   UNL     1      45.450   5.600  13.141  0.00  0.00    +0.000 A 
ATOM     26  C   UNL     1      46.641   5.309  13.931  0.00  0.00    +0.000 A 
ATOM     27  C   UNL     1      47.570   6.328  13.816  0.00  0.00    +0.000 A 
ATOM     28  S   UNL     1      47.065   7.599  12.817  0.00  0.00    +0.000 S 
ATOM     29  C   UNL     1      45.570   6.823  12.458  0.00  0.00    +0.000 A 
BRANCH  21  31
ATOM     30  C   UNL     1      43.635   9.366  11.022  0.00  0.00    +0.000 C 
ATOM     31  O   UNL     1      44.738   8.475  10.901  0.00  0.00    +0.000 OA
ENDBRANCH  21  31
ENDBRANCH  17  26
ENDBRANCH   1  19
TORSDOF 8
ENDMDL
MODEL 9
REMARK VINA RESULT:    -6.225      3.932      9.125
REMARK INTER + INTRA:         -10.432
REMARK INTER:                  -8.177
REMARK INTRA:                  -2.255
REMARK UNBOUND:                -1.295
REMARK  Name = 
REMARK  9 active torsions:
REMARK  status: ('A' for Active; 'I' for Inactive)
REMARK    1  A    between atoms: C_1  and  O_2
REMARK    2  A    between atoms: O_2  and  C_3
REMARK    3  A    between atoms: C_8  and  C_9
REMARK    4  A    between atoms: N_11  and  C_12
REMARK    5  A    between atoms: C_12  and  C_13
REMARK    6  A    between atoms: C_16  and  C_17
REMARK    7  A    between atoms: C_17  and  O_18
REMARK    8  A    between atoms: O_18  and  C_19
REMARK    9  A    between atoms: C_19  and  C_20
REMARK                            x       y       z     vdW  Elec       q    Type
REMARK                         _______ _______ _______ _____ _____    ______ ____
ROOT
ATOM      1  C   UNL     1      47.353   3.476  16.773  0.00  0.00    +0.000 C 
ENDROOT
BRANCH   1   2
ATOM      2  C   UNL     1      47.744   4.275  17.985  0.00  0.00    +0.000 A 
ATOM      3  C   UNL     1      47.060   5.452  18.315  0.00  0.00    +0.000 A 
ATOM      4  C   UNL     1      47.490   6.246  19.381  0.00  0.00    +0.000 A 
ATOM      5  C   UNL     1      48.616   5.883  20.132  0.00  0.00    +0.000 A 
ATOM      6  C   UNL     1      49.275   4.686  19.827  0.00  0.00    +0.000 A 
ATOM      7  C   UNL     1      48.845   3.890  18.762  0.00  0.00    +0.000 A 
BRANCH   5   8
ATOM      8  C   UNL     1      49.145   6.797  21.209  0.00  0.00    +0.000 C 
BRANCH   8   9
ATOM      9  O   UNL     1      49.469   8.063  20.650  0.00  0.00    +0.000 OA
BRANCH   9  10
ATOM     10  C   UNL     1      50.792   8.077  20.120  0.00  0.00    +0.000 C 
BRANCH  10  11
ATOM     11  C   UNL     1      50.715   7.785  18.646  0.00  0.00    +0.000 A 
ATOM     12  C   UNL     1      49.819   8.496  17.834  0.00  0.00    +0.000 A 
ATOM     13  C   UNL     1      49.714   8.210  16.473  0.00  0.00    +0.000 A 
ATOM     14  C   UNL     1      50.506   7.213  15.908  0.00  0.00    +0.000 A 
ATOM     15  C   UNL     1      51.411   6.510  16.700  0.00  0.00    +0.000 A 
ATOM     16  C   UNL     1      51.517   6.795  18.063  0.00  0.00    +0.000 A 
ENDBRANCH  10  11
ENDBRANCH   9  10
ENDBRANCH   8   9
ENDBRANCH   5   8
ENDBRANCH   1   2
BRANCH   1  19
ATOM     17  C   UNL     1      46.748   4.072  14.485  0.00  0.00    +0.000 C 
ATOM     18  O   UNL     1      47.440   3.155  14.045  0.00  0.00    +0.000 OA
ATOM     19  N   UNL     1      46.619   4.298  15.834  0.00  0.00    +0.000 N 
ATOM     20  H   UNL     1      46.290   5.200  16.146  0.00  0.00    +0.000 HD
BRANCH  17  26
ATOM     21  C   UNL     1      45.543   8.303  11.974  0.00  0.00    +0.000 A 
ATOM     22  N   UNL     1      46.611   9.053  12.335  0.00  0.00    +0.000 NA
ATOM     23  C   UNL     1      47.547   8.507  13.129  0.00  0.00    +0.000 A 
ATOM     24  C   UNL     1      47.502   7.211  13.617  0.00  0.00    +0.000 A 
ATOM     25  C   UNL     1      46.418   6.386  13.237  0.00  0.00    +0.000 A 
ATOM     26  C   UNL     1      46.068   5.015  13.592  0.00  0.00    +0.000 A 
ATOM     27  C   UNL     1      44.876   4.642  12.996  0.00  0.00    +0.000 A 
ATOM     28  S   UNL     1      44.183   5.855  12.040  0.00  0.00    +0.000 S 
ATOM     29  C   UNL     1      45.446   6.969  12.406  0.00  0.00    +0.000 A 
BRANCH  21  31
ATOM     30  C   UNL     1      44.428  10.268  11.344  0.00  0.00    +0.000 C 
ATOM     31  O   UNL     1      44.543   8.857  11.196  0.00  0.00    +0.000 OA
ENDBRANCH  21  31
ENDBRANCH  17  26
ENDBRANCH   1  19
TORSDOF 8
ENDMDL
