MODEL 1
REMARK VINA RESULT:    -9.058      0.000      0.000
REMARK INTER + INTRA:         -12.722
REMARK INTER:                 -11.706
REMARK INTRA:                  -1.016
REMARK UNBOUND:                -1.016
REMARK  Name = 
REMARK  5 active torsions:
REMARK  status: ('A' for Active; 'I' for Inactive)
REMARK    1  A    between atoms: C_2  and  C_4
REMARK    2  A    between atoms: N_8  and  C_9
REMARK    3  A    between atoms: C_9  and  C_10
REMARK    4  A    between atoms: C_10  and  C_11
REMARK    5  A    between atoms: C_15  and  C_16
REMARK                            x       y       z     vdW  Elec       q    Type
REMARK                         _______ _______ _______ _____ _____    ______ ____
ROOT
ATOM      1  C   UNL     1      43.244   4.351  11.233  0.00  0.00    +0.000 C 
ENDROOT
BRANCH   1   6
ATOM      2  C   UNL     1      46.432   2.473   7.743  0.00  0.00    +0.000 A 
ATOM      3  C   UNL     1      45.594   1.811   8.634  0.00  0.00    +0.000 A 
ATOM      4  C   UNL     1      44.678   2.548   9.383  0.00  0.00    +0.000 A 
ATOM      5  C   UNL     1      44.607   3.929   9.237  0.00  0.00    +0.000 A 
ATOM      6  N   UNL     1      43.657   4.707   9.880  0.00  0.00    +0.000 N 
ATOM      7  N   UNL     1      45.432   4.586   8.392  0.00  0.00    +0.000 NA
ATOM      8  C   UNL     1      46.325   3.854   7.674  0.00  0.00    +0.000 A 
ATOM      9  H   UNL     1      43.886   5.683   9.715  0.00  0.00    +0.000 HD
BRANCH   2  11
ATOM     10  N   UNL     1      48.508   2.481   6.482  0.00  0.00    +0.000 N 
ATOM     11  C   UNL     1      47.420   1.766   6.904  0.00  0.00    +0.000 C 
ATOM     12  O   UNL     1      47.290   0.583   6.617  0.00  0.00    +0.000 OA
ATOM     13  H   UNL     1      49.225   1.967   5.988  0.00  0.00    +0.000 HD
ATOM     14  H   UNL     1      48.772   3.366   6.897  0.00  0.00    +0.000 HD
ENDBRANCH   2  11
ENDBRANCH   1   6
BRANCH   1  15
ATOM     15  C   UNL     1      43.442   5.536  12.187  0.00  0.00    +0.000 C 
BRANCH  15  16
ATOM     16  C   UNL     1      44.871   5.610  12.675  0.00  0.00    +0.000 A 
ATOM     17  C   UNL     1      45.461   4.530  13.338  0.00  0.00    +0.000 A 
ATOM     18  C   UNL     1      46.797   4.588  13.721  0.00  0.00    +0.000 A 
ATOM     19  C   UNL     1      47.563   5.711  13.407  0.00  0.00    +0.000 A 
ATOM     20  C   UNL     1      47.021   6.790  12.686  0.00  0.00    +0.000 A 
ATOM     21  C   UNL     1      45.652   6.734  12.368  0.00  0.00    +0.000 A 
BRANCH  20  22
ATOM     22  C   UNL     1      47.877   7.871  12.150  0.00  0.00    +0.000 A 
ATOM     23  C   UNL     1      47.394   9.195  12.097  0.00  0.00    +0.000 A 
ATOM     24  C   UNL     1      48.219  10.256  11.736  0.00  0.00    +0.000 A 
ATOM     25  C   UNL     1      49.552  10.026  11.419  0.00  0.00    +0.000 A 
ATOM     26  C   UNL     1      50.053   8.727  11.438  0.00  0.00    +0.000 A 
ATOM     27  C   UNL     1      49.221   7.660  11.785  0.00  0.00    +0.000 A 
ENDBRANCH  20  22
ENDBRANCH  15  16
ENDBRANCH   1  15
TORSDOF 5
ENDMDL
MODEL 2
REMARK VINA RESULT:    -8.167      1.918      3.717
REMARK INTER + INTRA:         -11.571
REMARK INTER:                 -10.504
REMARK INTRA:                  -1.066
REMARK UNBOUND:                -1.016
REMARK  Name = 
REMARK  5 active torsions:
REMARK  status: ('A' for Active; 'I' for Inactive)
REMARK    1  A    between atoms: C_2  and  C_4
REMARK    2  A    between atoms: N_8  and  C_9
REMARK    3  A    between atoms: C_9  and  C_10
REMARK    4  A    between atoms: C_10  and  C_11
REMARK    5  A    between atoms: C_15  and  C_16
REMARK                            x       y       z     vdW  Elec       q    Type
REMARK                         _______ _______ _______ _____ _____    ______ ____
ROOT
ATOM      1  C   UNL     1      43.201   4.406  11.072  0.00  0.00    +0.000 C 
ENDROOT
BRANCH   1   6
ATOM      2  C   UNL     1      46.432   2.950   7.424  0.00  0.00    +0.000 A 
ATOM      3  C   UNL     1      46.105   4.227   7.868  0.00  0.00    +0.000 A 
ATOM      4  C   UNL     1      45.315   4.370   9.008  0.00  0.00    +0.000 A 
ATOM      5  C   UNL     1      44.860   3.245   9.688  0.00  0.00    +0.000 A 
ATOM      6  N   UNL     1      44.153   3.319  10.877  0.00  0.00    +0.000 N 
ATOM      7  N   UNL     1      45.153   1.999   9.253  0.00  0.00    +0.000 NA
ATOM      8  C   UNL     1      45.918   1.877   8.135  0.00  0.00    +0.000 A 
ATOM      9  H   UNL     1      43.830   2.383  11.109  0.00  0.00    +0.000 HD
BRANCH   2  11
ATOM     10  N   UNL     1      48.591   2.413   6.449  0.00  0.00    +0.000 N 
ATOM     11  C   UNL     1      47.273   2.713   6.234  0.00  0.00    +0.000 C 
ATOM     12  O   UNL     1      46.811   2.755   5.101  0.00  0.00    +0.000 OA
ATOM     13  H   UNL     1      49.138   2.160   5.637  0.00  0.00    +0.000 HD
ATOM     14  H   UNL     1      48.943   2.127   7.355  0.00  0.00    +0.000 HD
ENDBRANCH   2  11
ENDBRANCH   1   6
BRANCH   1  15
ATOM     15  C   UNL     1      43.380   5.038  12.459  0.00  0.00    +0.000 C 
BRANCH  15  16
ATOM     16  C   UNL     1      44.804   5.502  12.666  0.00  0.00    +0.000 A 
ATOM     17  C   UNL     1      45.320   6.584  11.947  0.00  0.00    +0.000 A 
ATOM     18  C   UNL     1      46.609   7.042  12.198  0.00  0.00    +0.000 A 
ATOM     19  C   UNL     1      47.377   6.447  13.199  0.00  0.00    +0.000 A 
ATOM     20  C   UNL     1      46.869   5.397  13.986  0.00  0.00    +0.000 A 
ATOM     21  C   UNL     1      45.588   4.911  13.668  0.00  0.00    +0.000 A 
BRANCH  20  22
ATOM     22  C   UNL     1      47.580   4.920  15.192  0.00  0.00    +0.000 A 
ATOM     23  C   UNL     1      48.427   5.794  15.905  0.00  0.00    +0.000 A 
ATOM     24  C   UNL     1      48.996   5.425  17.120  0.00  0.00    +0.000 A 
ATOM     25  C   UNL     1      48.735   4.172  17.660  0.00  0.00    +0.000 A 
ATOM     26  C   UNL     1      47.923   3.277  16.969  0.00  0.00    +0.000 A 
ATOM     27  C   UNL     1      47.364   3.642  15.741  0.00  0.00    +0.000 A 
ENDBRANCH  20  22
ENDBRANCH  15  16
ENDBRANCH   1  15
TORSDOF 5
ENDMDL
MODEL 3
REMARK VINA RESULT:    -7.742      4.133      7.588
REMARK INTER + INTRA:         -11.021
REMARK INTER:                 -10.369
REMARK INTRA:                  -0.652
REMARK UNBOUND:                -1.016
REMARK  Name = 
REMARK  5 active torsions:
REMARK  status: ('A' for Active; 'I' for Inactive)
REMARK    1  A    between atoms: C_2  and  C_4
REMARK    2  A    between atoms: N_8  and  C_9
REMARK    3  A    between atoms: C_9  and  C_10
REMARK    4  A    between atoms: C_10  and  C_11
REMARK    5  A    between atoms: C_15  and  C_16
REMARK                            x       y       z     vdW  Elec       q    Type
REMARK                         _______ _______ _______ _____ _____    ______ ____
ROOT
ATOM      1  C   UNL     1      47.131   6.802  12.919  0.00  0.00    +0.000 C 
ENDROOT
BRANCH   1   6
ATOM      2  C   UNL     1      48.574   4.147  17.010  0.00  0.00    +0.000 A 
ATOM      3  C   UNL     1      48.879   5.453  16.641  0.00  0.00    +0.000 A 
ATOM      4  C   UNL     1      48.221   6.024  15.552  0.00  0.00    +0.000 A 
ATOM      5  C   UNL     1      47.273   5.292  14.847  0.00  0.00    +0.000 A 
ATOM      6  N   UNL     1      46.518   5.831  13.818  0.00  0.00    +0.000 N 
ATOM      7  N   UNL     1      46.984   4.014  15.182  0.00  0.00    +0.000 NA
ATOM      8  C   UNL     1      47.640   3.469  16.242  0.00  0.00    +0.000 A 
ATOM      9  H   UNL     1      45.993   5.076  13.384  0.00  0.00    +0.000 HD
BRANCH   2  11
ATOM     10  N   UNL     1      48.435   3.227  19.254  0.00  0.00    +0.000 N 
ATOM     11  C   UNL     1      49.215   3.474  18.157  0.00  0.00    +0.000 C 
ATOM     12  O   UNL     1      50.388   3.125  18.124  0.00  0.00    +0.000 OA
ATOM     13  H   UNL     1      48.854   2.683  19.997  0.00  0.00    +0.000 HD
ATOM     14  H   UNL     1      47.423   3.270  19.223  0.00  0.00    +0.000 HD
ENDBRANCH   2  11
ENDBRANCH   1   6
BRANCH   1  15
ATOM     15  C   UNL     1      46.089   7.374  11.949  0.00  0.00    +0.000 C 
BRANCH  15  16
ATOM     16  C   UNL     1      45.211   6.279  11.385  0.00  0.00    +0.000 A 
ATOM     17  C   UNL     1      43.831   6.279  11.606  0.00  0.00    +0.000 A 
ATOM     18  C   UNL     1      43.028   5.304  11.024  0.00  0.00    +0.000 A 
ATOM     19  C   UNL     1      43.595   4.346  10.183  0.00  0.00    +0.000 A 
ATOM     20  C   UNL     1      44.971   4.353   9.886  0.00  0.00    +0.000 A 
ATOM     21  C   UNL     1      45.769   5.309  10.539  0.00  0.00    +0.000 A 
BRANCH  20  22
ATOM     22  C   UNL     1      45.537   3.494   8.823  0.00  0.00    +0.000 A 
ATOM     23  C   UNL     1      46.175   4.077   7.709  0.00  0.00    +0.000 A 
ATOM     24  C   UNL     1      46.844   3.303   6.767  0.00  0.00    +0.000 A 
ATOM     25  C   UNL     1      46.896   1.922   6.910  0.00  0.00    +0.000 A 
ATOM     26  C   UNL     1      46.255   1.313   7.985  0.00  0.00    +0.000 A 
ATOM     27  C   UNL     1      45.570   2.090   8.923  0.00  0.00    +0.000 A 
ENDBRANCH  20  22
ENDBRANCH  15  16
ENDBRANCH   1  15
TORSDOF 5
ENDMDL
MODEL 4
REMARK VINA RESULT:    -7.270      3.630      7.089
REMARK INTER + INTRA:         -10.412
REMARK INTER:                  -9.699
REMARK INTRA:                  -0.713
REMARK UNBOUND:                -1.016
REMARK  Name = 
REMARK  5 active torsions:
REMARK  status: ('A' for Active; 'I' for Inactive)
REMARK    1  A    between atoms: C_2  and  C_4
REMARK    2  A    between atoms: N_8  and  C_9
REMARK    3  A    between atoms: C_9  and  C_10
REMARK    4  A    between atoms: C_10  and  C_11
REMARK    5  A    between atoms: C_15  and  C_16
REMARK                            x       y       z     vdW  Elec       q    Type
REMARK                         _______ _______ _______ _____ _____    ______ ____
ROOT
ATOM      1  C   UNL     1      45.288   6.894  12.835  0.00  0.00    +0.000 C 
ENDROOT
BRANCH   1   6
ATOM      2  C   UNL     1      50.024   8.674  12.319  0.00  0.00    +0.000 A 
ATOM      3  C   UNL     1      49.358   7.688  11.598  0.00  0.00    +0.000 A 
ATOM      4  C   UNL     1      47.995   7.491  11.813  0.00  0.00    +0.000 A 
ATOM      5  C   UNL     1      47.313   8.273  12.740  0.00  0.00    +0.000 A 
ATOM      6  N   UNL     1      45.944   8.192  12.932  0.00  0.00    +0.000 N 
ATOM      7  N   UNL     1      47.955   9.218  13.463  0.00  0.00    +0.000 NA
ATOM      8  C   UNL     1      49.287   9.393  13.247  0.00  0.00    +0.000 A 
ATOM      9  H   UNL     1      45.705   8.765  13.737  0.00  0.00    +0.000 HD
BRANCH   2  11
ATOM     10  N   UNL     1      52.317   7.886  12.172  0.00  0.00    +0.000 N 
ATOM     11  C   UNL     1      51.463   8.954  12.142  0.00  0.00    +0.000 C 
ATOM     12  O   UNL     1      51.877  10.090  11.949  0.00  0.00    +0.000 OA
ATOM     13  H   UNL     1      53.288   8.073  11.957  0.00  0.00    +0.000 HD
ATOM     14  H   UNL     1      51.996   6.930  12.078  0.00  0.00    +0.000 HD
ENDBRANCH   2  11
ENDBRANCH   1   6
BRANCH   1  15
ATOM     15  C   UNL     1      44.670   6.704  11.444  0.00  0.00    +0.000 C 
BRANCH  15  16
ATOM     16  C   UNL     1      44.497   5.237  11.121  0.00  0.00    +0.000 A 
ATOM     17  C   UNL     1      43.514   4.471  11.755  0.00  0.00    +0.000 A 
ATOM     18  C   UNL     1      43.323   3.141  11.397  0.00  0.00    +0.000 A 
ATOM     19  C   UNL     1      44.086   2.578  10.374  0.00  0.00    +0.000 A 
ATOM     20  C   UNL     1      45.040   3.335   9.670  0.00  0.00    +0.000 A 
ATOM     21  C   UNL     1      45.259   4.658  10.095  0.00  0.00    +0.000 A 
BRANCH  20  22
ATOM     22  C   UNL     1      45.683   2.820   8.441  0.00  0.00    +0.000 A 
ATOM     23  C   UNL     1      45.962   3.694   7.370  0.00  0.00    +0.000 A 
ATOM     24  C   UNL     1      46.693   3.277   6.262  0.00  0.00    +0.000 A 
ATOM     25  C   UNL     1      47.168   1.974   6.191  0.00  0.00    +0.000 A 
ATOM     26  C   UNL     1      46.889   1.079   7.221  0.00  0.00    +0.000 A 
ATOM     27  C   UNL     1      46.142   1.494   8.326  0.00  0.00    +0.000 A 
ENDBRANCH  20  22
ENDBRANCH  15  16
ENDBRANCH   1  15
TORSDOF 5
ENDMDL
MODEL 5
REMARK VINA RESULT:    -7.146      3.400      6.851
REMARK INTER + INTRA:         -10.251
REMARK INTER:                  -9.101
REMARK INTRA:                  -1.149
REMARK UNBOUND:                -1.016
REMARK  Name = 
REMARK  5 active torsions:
REMARK  status: ('A' for Active; 'I' for Inactive)
REMARK    1  A    between atoms: C_2  and  C_4
REMARK    2  A    between atoms: N_8  and  C_9
REMARK    3  A    between atoms: C_9  and  C_10
REMARK    4  A    between atoms: C_10  and  C_11
REMARK    5  A    between atoms: C_15  and  C_16
REMARK                            x       y       z     vdW  Elec       q    Type
REMARK                         _______ _______ _______ _____ _____    ______ ____
ROOT
ATOM      1  C   UNL     1      46.669   3.955  13.649  0.00  0.00    +0.000 C 
ENDROOT
BRANCH   1   6
ATOM      2  C   UNL     1      49.066   8.213  12.241  0.00  0.00    +0.000 A 
ATOM      3  C   UNL     1      48.023   7.531  11.623  0.00  0.00    +0.000 A 
ATOM      4  C   UNL     1      47.411   6.473  12.293  0.00  0.00    +0.000 A 
ATOM      5  C   UNL     1      47.844   6.106  13.563  0.00  0.00    +0.000 A 
ATOM      6  N   UNL     1      47.218   5.128  14.319  0.00  0.00    +0.000 N 
ATOM      7  N   UNL     1      48.872   6.747  14.163  0.00  0.00    +0.000 NA
ATOM      8  C   UNL     1      49.463   7.772  13.494  0.00  0.00    +0.000 A 
ATOM      9  H   UNL     1      47.786   4.957  15.145  0.00  0.00    +0.000 HD
BRANCH   2  11
ATOM     10  N   UNL     1      48.979  10.372  11.132  0.00  0.00    +0.000 N 
ATOM     11  C   UNL     1      49.758   9.352  11.606  0.00  0.00    +0.000 C 
ATOM     12  O   UNL     1      50.979   9.400  11.528  0.00  0.00    +0.000 OA
ATOM     13  H   UNL     1      49.463  11.190  10.783  0.00  0.00    +0.000 HD
ATOM     14  H   UNL     1      48.009  10.485  11.398  0.00  0.00    +0.000 HD
ENDBRANCH   2  11
ENDBRANCH   1   6
BRANCH   1  15
ATOM     15  C   UNL     1      45.135   4.006  13.642  0.00  0.00    +0.000 C 
BRANCH  15  16
ATOM     16  C   UNL     1      44.603   4.191  12.238  0.00  0.00    +0.000 A 
ATOM     17  C   UNL     1      43.674   5.194  11.948  0.00  0.00    +0.000 A 
ATOM     18  C   UNL     1      43.246   5.396  10.641  0.00  0.00    +0.000 A 
ATOM     19  C   UNL     1      43.775   4.621   9.608  0.00  0.00    +0.000 A 
ATOM     20  C   UNL     1      44.758   3.646   9.852  0.00  0.00    +0.000 A 
ATOM     21  C   UNL     1      45.125   3.419  11.190  0.00  0.00    +0.000 A 
BRANCH  20  22
ATOM     22  C   UNL     1      45.488   2.989   8.746  0.00  0.00    +0.000 A 
ATOM     23  C   UNL     1      46.072   3.766   7.725  0.00  0.00    +0.000 A 
ATOM     24  C   UNL     1      46.886   3.194   6.751  0.00  0.00    +0.000 A 
ATOM     25  C   UNL     1      47.142   1.829   6.770  0.00  0.00    +0.000 A 
ATOM     26  C   UNL     1      46.560   1.030   7.751  0.00  0.00    +0.000 A 
ATOM     27  C   UNL     1      45.730   1.602   8.719  0.00  0.00    +0.000 A 
ENDBRANCH  20  22
ENDBRANCH  15  16
ENDBRANCH   1  15
TORSDOF 5
ENDMDL
MODEL 6
REMARK VINA RESULT:    -7.044      4.403      7.611
REMARK INTER + INTRA:         -10.119
REMARK INTER:                  -9.202
REMARK INTRA:                  -0.917
REMARK UNBOUND:                -1.016
REMARK  Name = 
REMARK  5 active torsions:
REMARK  status: ('A' for Active; 'I' for Inactive)
REMARK    1  A    between atoms: C_2  and  C_4
REMARK    2  A    between atoms: N_8  and  C_9
REMARK    3  A    between atoms: C_9  and  C_10
REMARK    4  A    between atoms: C_10  and  C_11
REMARK    5  A    between atoms: C_15  and  C_16
REMARK                            x       y       z     vdW  Elec       q    Type
REMARK                         _______ _______ _______ _____ _____    ______ ____
ROOT
ATOM      1  C   UNL     1      49.137   8.393  13.751  0.00  0.00    +0.000 C 
ENDROOT
BRANCH   1   6
ATOM      2  C   UNL     1      48.182   4.491  16.870  0.00  0.00    +0.000 A 
ATOM      3  C   UNL     1      47.485   4.926  15.748  0.00  0.00    +0.000 A 
ATOM      4  C   UNL     1      48.041   5.923  14.946  0.00  0.00    +0.000 A 
ATOM      5  C   UNL     1      49.277   6.473  15.271  0.00  0.00    +0.000 A 
ATOM      6  N   UNL     1      49.924   7.396  14.467  0.00  0.00    +0.000 N 
ATOM      7  N   UNL     1      49.952   6.074  16.372  0.00  0.00    +0.000 NA
ATOM      8  C   UNL     1      49.393   5.106  17.147  0.00  0.00    +0.000 A 
ATOM      9  H   UNL     1      50.739   7.736  14.972  0.00  0.00    +0.000 HD
BRANCH   2  11
ATOM     10  N   UNL     1      48.354   3.210  18.927  0.00  0.00    +0.000 N 
ATOM     11  C   UNL     1      47.671   3.431  17.762  0.00  0.00    +0.000 C 
ATOM     12  O   UNL     1      46.662   2.793  17.489  0.00  0.00    +0.000 OA
ATOM     13  H   UNL     1      47.946   2.550  19.575  0.00  0.00    +0.000 HD
ATOM     14  H   UNL     1      49.025   3.872  19.297  0.00  0.00    +0.000 HD
ENDBRANCH   2  11
ENDBRANCH   1   6
BRANCH   1  15
ATOM     15  C   UNL     1      48.878   7.941  12.308  0.00  0.00    +0.000 C 
BRANCH  15  16
ATOM     16  C   UNL     1      47.403   7.719  12.062  0.00  0.00    +0.000 A 
ATOM     17  C   UNL     1      46.475   8.741  12.282  0.00  0.00    +0.000 A 
ATOM     18  C   UNL     1      45.131   8.542  11.987  0.00  0.00    +0.000 A 
ATOM     19  C   UNL     1      44.711   7.333  11.431  0.00  0.00    +0.000 A 
ATOM     20  C   UNL     1      45.625   6.306  11.135  0.00  0.00    +0.000 A 
ATOM     21  C   UNL     1      46.967   6.508  11.504  0.00  0.00    +0.000 A 
BRANCH  20  22
ATOM     22  C   UNL     1      45.230   5.124  10.338  0.00  0.00    +0.000 A 
ATOM     23  C   UNL     1      45.667   4.994   9.004  0.00  0.00    +0.000 A 
ATOM     24  C   UNL     1      45.437   3.832   8.273  0.00  0.00    +0.000 A 
ATOM     25  C   UNL     1      44.764   2.765   8.855  0.00  0.00    +0.000 A 
ATOM     26  C   UNL     1      44.298   2.871  10.162  0.00  0.00    +0.000 A 
ATOM     27  C   UNL     1      44.516   4.044  10.891  0.00  0.00    +0.000 A 
ENDBRANCH  20  22
ENDBRANCH  15  16
ENDBRANCH   1  15
TORSDOF 5
ENDMDL
MODEL 7
REMARK VINA RESULT:    -6.673      4.020      6.428
REMARK INTER + INTRA:          -9.639
REMARK INTER:                  -8.258
REMARK INTRA:                  -1.381
REMARK UNBOUND:                -1.016
REMARK  Name = 
REMARK  5 active torsions:
REMARK  status: ('A' for Active; 'I' for Inactive)
REMARK    1  A    between atoms: C_2  and  C_4
REMARK    2  A    between atoms: N_8  and  C_9
REMARK    3  A    between atoms: C_9  and  C_10
REMARK    4  A    between atoms: C_10  and  C_11
REMARK    5  A    between atoms: C_15  and  C_16
REMARK                            x       y       z     vdW  Elec       q    Type
REMARK                         _______ _______ _______ _____ _____    ______ ____
ROOT
ATOM      1  C   UNL     1      48.183   8.416  13.707  0.00  0.00    +0.000 C 
ENDROOT
BRANCH   1   6
ATOM      2  C   UNL     1      45.151   4.511  12.510  0.00  0.00    +0.000 A 
ATOM      3  C   UNL     1      46.353   4.525  13.210  0.00  0.00    +0.000 A 
ATOM      4  C   UNL     1      46.919   5.749  13.566  0.00  0.00    +0.000 A 
ATOM      5  C   UNL     1      46.286   6.938  13.222  0.00  0.00    +0.000 A 
ATOM      6  N   UNL     1      46.746   8.181  13.626  0.00  0.00    +0.000 N 
ATOM      7  N   UNL     1      45.130   6.937  12.521  0.00  0.00    +0.000 NA
ATOM      8  C   UNL     1      44.594   5.736  12.175  0.00  0.00    +0.000 A 
ATOM      9  H   UNL     1      46.194   8.890  13.151  0.00  0.00    +0.000 HD
BRANCH   2  11
ATOM     10  N   UNL     1      44.805   2.741  10.884  0.00  0.00    +0.000 N 
ATOM     11  C   UNL     1      44.480   3.260  12.107  0.00  0.00    +0.000 C 
ATOM     12  O   UNL     1      43.684   2.691  12.844  0.00  0.00    +0.000 OA
ATOM     13  H   UNL     1      44.414   1.837  10.654  0.00  0.00    +0.000 HD
ATOM     14  H   UNL     1      45.625   3.037  10.368  0.00  0.00    +0.000 HD
ENDBRANCH   2  11
ENDBRANCH   1   6
BRANCH   1  15
ATOM     15  C   UNL     1      48.514   9.334  14.890  0.00  0.00    +0.000 C 
BRANCH  15  16
ATOM     16  C   UNL     1      48.510   8.568  16.193  0.00  0.00    +0.000 A 
ATOM     17  C   UNL     1      48.019   9.148  17.366  0.00  0.00    +0.000 A 
ATOM     18  C   UNL     1      47.958   8.407  18.542  0.00  0.00    +0.000 A 
ATOM     19  C   UNL     1      48.350   7.068  18.542  0.00  0.00    +0.000 A 
ATOM     20  C   UNL     1      48.789   6.432  17.366  0.00  0.00    +0.000 A 
ATOM     21  C   UNL     1      48.902   7.222  16.208  0.00  0.00    +0.000 A 
BRANCH  20  22
ATOM     22  C   UNL     1      48.983   4.967  17.305  0.00  0.00    +0.000 A 
ATOM     23  C   UNL     1      47.975   4.144  16.762  0.00  0.00    +0.000 A 
ATOM     24  C   UNL     1      48.180   2.783  16.556  0.00  0.00    +0.000 A 
ATOM     25  C   UNL     1      49.400   2.204  16.884  0.00  0.00    +0.000 A 
ATOM     26  C   UNL     1      50.407   2.985  17.444  0.00  0.00    +0.000 A 
ATOM     27  C   UNL     1      50.195   4.349  17.666  0.00  0.00    +0.000 A 
ENDBRANCH  20  22
ENDBRANCH  15  16
ENDBRANCH   1  15
TORSDOF 5
ENDMDL
MODEL 8
REMARK VINA RESULT:    -6.650      5.390      8.014
REMARK INTER + INTRA:          -9.611
REMARK INTER:                  -8.821
REMARK INTRA:                  -0.790
REMARK UNBOUND:                -1.016
REMARK  Name = 
REMARK  5 active torsions:
REMARK  status: ('A' for Active; 'I' for Inactive)
REMARK    1  A    between atoms: C_2  and  C_4
REMARK    2  A    between atoms: N_8  and  C_9
REMARK    3  A    between atoms: C_9  and  C_10
REMARK    4  A    between atoms: C_10  and  C_11
REMARK    5  A    between atoms: C_15  and  C_16
REMARK                            x       y       z     vdW  Elec       q    Type
REMARK                         _______ _______ _______ _____ _____    ______ ____
ROOT
ATOM      1  C   UNL     1      48.833   6.890  16.368  0.00  0.00    +0.000 C 
ENDROOT
BRANCH   1   6
ATOM      2  C   UNL     1      51.234   2.539  17.452  0.00  0.00    +0.000 A 
ATOM      3  C   UNL     1      51.627   3.855  17.676  0.00  0.00    +0.000 A 
ATOM      4  C   UNL     1      50.717   4.885  17.447  0.00  0.00    +0.000 A 
ATOM      5  C   UNL     1      49.432   4.596  16.998  0.00  0.00    +0.000 A 
ATOM      6  N   UNL     1      48.454   5.564  16.842  0.00  0.00    +0.000 N 
ATOM      7  N   UNL     1      49.047   3.323  16.754  0.00  0.00    +0.000 NA
ATOM      8  C   UNL     1      49.949   2.330  16.975  0.00  0.00    +0.000 A 
ATOM      9  H   UNL     1      47.652   5.131  16.390  0.00  0.00    +0.000 HD
BRANCH   2  11
ATOM     10  N   UNL     1      51.562   0.228  18.123  0.00  0.00    +0.000 N 
ATOM     11  C   UNL     1      52.133   1.391  17.682  0.00  0.00    +0.000 C 
ATOM     12  O   UNL     1      53.335   1.461  17.463  0.00  0.00    +0.000 OA
ATOM     13  H   UNL     1      52.167  -0.580  18.189  0.00  0.00    +0.000 HD
ATOM     14  H   UNL     1      50.564   0.059  18.073  0.00  0.00    +0.000 HD
ENDBRANCH   2  11
ENDBRANCH   1   6
BRANCH   1  15
ATOM     15  C   UNL     1      49.110   6.865  14.859  0.00  0.00    +0.000 C 
BRANCH  15  16
ATOM     16  C   UNL     1      47.859   7.180  14.070  0.00  0.00    +0.000 A 
ATOM     17  C   UNL     1      47.419   8.498  13.916  0.00  0.00    +0.000 A 
ATOM     18  C   UNL     1      46.306   8.777  13.131  0.00  0.00    +0.000 A 
ATOM     19  C   UNL     1      45.649   7.744  12.461  0.00  0.00    +0.000 A 
ATOM     20  C   UNL     1      46.101   6.415  12.541  0.00  0.00    +0.000 A 
ATOM     21  C   UNL     1      47.189   6.151  13.393  0.00  0.00    +0.000 A 
BRANCH  20  22
ATOM     22  C   UNL     1      45.559   5.359  11.658  0.00  0.00    +0.000 A 
ATOM     23  C   UNL     1      45.525   5.554  10.262  0.00  0.00    +0.000 A 
ATOM     24  C   UNL     1      45.159   4.530   9.393  0.00  0.00    +0.000 A 
ATOM     25  C   UNL     1      44.817   3.281   9.894  0.00  0.00    +0.000 A 
ATOM     26  C   UNL     1      44.817   3.063  11.269  0.00  0.00    +0.000 A 
ATOM     27  C   UNL     1      45.170   4.095  12.142  0.00  0.00    +0.000 A 
ENDBRANCH  20  22
ENDBRANCH  15  16
ENDBRANCH   1  15
TORSDOF 5
ENDMDL
MODEL 9
REMARK VINA RESULT:    -6.103      5.405      8.503
REMARK INTER + INTRA:          -8.904
REMARK INTER:                  -8.339
REMARK INTRA:                  -0.564
REMARK UNBOUND:                -1.016
REMARK  Name = 
REMARK  5 active torsions:
REMARK  status: ('A' for Active; 'I' for Inactive)
REMARK    1  A    between atoms: C_2  and  C_4
REMARK    2  A    between atoms: N_8  and  C_9
REMARK    3  A    between atoms: C_9  and  C_10
REMARK    4  A    between atoms: C_10  and  C_11
REMARK    5  A    between atoms: C_15  and  C_16
REMARK                            x       y       z     vdW  Elec       q    Type
REMARK                         _______ _______ _______ _____ _____    ______ ____
ROOT
ATOM      1  C   UNL     1      48.538   6.340  14.187  0.00  0.00    +0.000 C 
ENDROOT
BRANCH   1   6
ATOM      2  C   UNL     1      48.965   4.916  19.051  0.00  0.00    +0.000 A 
ATOM      3  C   UNL     1      49.508   6.014  18.392  0.00  0.00    +0.000 A 
ATOM      4  C   UNL     1      49.106   6.291  17.086  0.00  0.00    +0.000 A 
ATOM      5  C   UNL     1      48.174   5.475  16.453  0.00  0.00    +0.000 A 
ATOM      6  N   UNL     1      47.665   5.749  15.195  0.00  0.00    +0.000 N 
ATOM      7  N   UNL     1      47.658   4.392  17.075  0.00  0.00    +0.000 NA
ATOM      8  C   UNL     1      48.065   4.131  18.347  0.00  0.00    +0.000 A 
ATOM      9  H   UNL     1      47.104   4.953  14.902  0.00  0.00    +0.000 HD
BRANCH   2  11
ATOM     10  N   UNL     1      50.657   4.565  20.757  0.00  0.00    +0.000 N 
ATOM     11  C   UNL     1      49.327   4.562  20.437  0.00  0.00    +0.000 C 
ATOM     12  O   UNL     1      48.475   4.301  21.277  0.00  0.00    +0.000 OA
ATOM     13  H   UNL     1      50.891   4.413  21.730  0.00  0.00    +0.000 HD
ATOM     14  H   UNL     1      51.356   5.010  20.175  0.00  0.00    +0.000 HD
ENDBRANCH   2  11
ENDBRANCH   1   6
BRANCH   1  15
ATOM     15  C   UNL     1      48.007   7.712  13.750  0.00  0.00    +0.000 C 
BRANCH  15  16
ATOM     16  C   UNL     1      46.759   7.571  12.909  0.00  0.00    +0.000 A 
ATOM     17  C   UNL     1      45.900   8.655  12.709  0.00  0.00    +0.000 A 
ATOM     18  C   UNL     1      44.793   8.528  11.877  0.00  0.00    +0.000 A 
ATOM     19  C   UNL     1      44.560   7.327  11.207  0.00  0.00    +0.000 A 
ATOM     20  C   UNL     1      45.437   6.235  11.333  0.00  0.00    +0.000 A 
ATOM     21  C   UNL     1      46.512   6.368  12.230  0.00  0.00    +0.000 A 
BRANCH  20  22
ATOM     22  C   UNL     1      45.329   5.050  10.454  0.00  0.00    +0.000 A 
ATOM     23  C   UNL     1      44.714   3.873  10.928  0.00  0.00    +0.000 A 
ATOM     24  C   UNL     1      44.465   2.793  10.086  0.00  0.00    +0.000 A 
ATOM     25  C   UNL     1      44.823   2.857   8.745  0.00  0.00    +0.000 A 
ATOM     26  C   UNL     1      45.455   3.996   8.252  0.00  0.00    +0.000 A 
ATOM     27  C   UNL     1      45.718   5.074   9.101  0.00  0.00    +0.000 A 
ENDBRANCH  20  22
ENDBRANCH  15  16
ENDBRANCH   1  15
TORSDOF 5
ENDMDL
