MODEL 1
REMARK VINA RESULT:    -7.638      0.000      0.000
REMARK INTER + INTRA:         -12.364
REMARK INTER:                 -11.211
REMARK INTRA:                  -1.153
REMARK UNBOUND:                -1.153
REMARK  Name = 
REMARK  9 active torsions:
REMARK  status: ('A' for Active; 'I' for Inactive)
REMARK    1  A    between atoms: C_1  and  O_2
REMARK    2  A    between atoms: O_2  and  C_3
REMARK    3  A    between atoms: C_7  and  C_8
REMARK    4  A    between atoms: C_8  and  C_9
REMARK    5  A    between atoms: C_9  and  N_10
REMARK    6  A    between atoms: N_10  and  C_11
REMARK    7  A    between atoms: C_14  and  C_15
REMARK    8  A    between atoms: C_15  and  N_16
REMARK    9  A    between atoms: C_17  and  C_19
REMARK                            x       y       z     vdW  Elec       q    Type
REMARK                         _______ _______ _______ _____ _____    ______ ____
ROOT
ATOM      1  C   UNL     1      46.626   5.403  12.740  0.00  0.00    +0.000 A 
ATOM      2  C   UNL     1      46.647   4.765  13.986  0.00  0.00    +0.000 A 
ATOM      3  C   UNL     1      47.423   5.262  15.041  0.00  0.00    +0.000 A 
ATOM      4  C   UNL     1      48.202   6.412  14.872  0.00  0.00    +0.000 A 
ATOM      5  C   UNL     1      48.268   6.989  13.599  0.00  0.00    +0.000 A 
ATOM      6  C   UNL     1      47.498   6.480  12.547  0.00  0.00    +0.000 A 
ENDROOT
BRANCH   1   7
ATOM      7  N   UNL     1      45.841   4.987  11.651  0.00  0.00    +0.000 N 
ATOM      8  H   UNL     1      46.200   4.102  11.292  0.00  0.00    +0.000 HD
BRANCH   7   9
ATOM      9  C   UNL     1      44.385   4.970  11.837  0.00  0.00    +0.000 C 
BRANCH   9  10
ATOM     10  C   UNL     1      43.668   4.864  10.491  0.00  0.00    +0.000 C 
BRANCH  10  15
ATOM     11  C   UNL     1      45.776   3.587   7.764  0.00  0.00    +0.000 A 
ATOM     12  C   UNL     1      45.809   2.215   7.946  0.00  0.00    +0.000 A 
ATOM     13  C   UNL     1      45.090   1.676   9.008  0.00  0.00    +0.000 A 
ATOM     14  C   UNL     1      44.370   2.524   9.845  0.00  0.00    +0.000 A 
ATOM     15  C   UNL     1      44.387   3.893   9.590  0.00  0.00    +0.000 A 
ATOM     16  N   UNL     1      45.085   4.430   8.563  0.00  0.00    +0.000 NA
BRANCH  11  18
ATOM     17  C   UNL     1      46.866   3.091   5.763  0.00  0.00    +0.000 C 
ATOM     18  O   UNL     1      46.513   4.092   6.714  0.00  0.00    +0.000 OA
ENDBRANCH  11  18
ENDBRANCH  10  15
ENDBRANCH   9  10
ENDBRANCH   7   9
ENDBRANCH   1   7
BRANCH   4  19
ATOM     19  C   UNL     1      48.961   7.012  16.026  0.00  0.00    +0.000 C 
BRANCH  19  20
ATOM     20  N   UNL     1      50.040   6.162  16.454  0.00  0.00    +0.000 N 
ATOM     21  C   UNL     1      49.969   5.469  17.636  0.00  0.00    +0.000 C 
ATOM     22  O   UNL     1      48.967   5.496  18.347  0.00  0.00    +0.000 OA
ATOM     23  H   UNL     1      50.944   6.315  16.016  0.00  0.00    +0.000 HD
BRANCH  21  24
ATOM     24  C   UNL     1      51.129   4.641  17.980  0.00  0.00    +0.000 A 
ATOM     25  C   UNL     1      52.230   5.224  18.592  0.00  0.00    +0.000 A 
ATOM     26  S   UNL     1      53.466   4.114  18.979  0.00  0.00    +0.000 S 
ATOM     27  C   UNL     1      52.595   2.823  18.293  0.00  0.00    +0.000 A 
ATOM     28  N   UNL     1      53.110   1.566  18.267  0.00  0.00    +0.000 NA
ATOM     29  C   UNL     1      52.361   0.692  17.689  0.00  0.00    +0.000 A 
ATOM     30  N   UNL     1      51.137   0.961  17.129  0.00  0.00    +0.000 N 
ATOM     31  C   UNL     1      50.565   2.209  17.152  0.00  0.00    +0.000 A 
ATOM     32  O   UNL     1      49.452   2.407  16.675  0.00  0.00    +0.000 OA
ATOM     33  C   UNL     1      51.373   3.232  17.788  0.00  0.00    +0.000 A 
ATOM     34  H   UNL     1      50.598   0.229  16.689  0.00  0.00    +0.000 HD
ENDBRANCH  21  24
ENDBRANCH  19  20
ENDBRANCH   4  19
TORSDOF 8
ENDMDL
MODEL 2
REMARK VINA RESULT:    -7.603      2.794      3.183
REMARK INTER + INTRA:         -12.312
REMARK INTER:                 -10.723
REMARK INTRA:                  -1.590
REMARK UNBOUND:                -1.153
REMARK  Name = 
REMARK  9 active torsions:
REMARK  status: ('A' for Active; 'I' for Inactive)
REMARK    1  A    between atoms: C_1  and  O_2
REMARK    2  A    between atoms: O_2  and  C_3
REMARK    3  A    between atoms: C_7  and  C_8
REMARK    4  A    between atoms: C_8  and  C_9
REMARK    5  A    between atoms: C_9  and  N_10
REMARK    6  A    between atoms: N_10  and  C_11
REMARK    7  A    between atoms: C_14  and  C_15
REMARK    8  A    between atoms: C_15  and  N_16
REMARK    9  A    between atoms: C_17  and  C_19
REMARK                            x       y       z     vdW  Elec       q    Type
REMARK                         _______ _______ _______ _____ _____    ______ ____
ROOT
ATOM      1  C   UNL     1      44.764   5.025  12.997  0.00  0.00    +0.000 A 
ATOM      2  C   UNL     1      45.893   4.298  13.391  0.00  0.00    +0.000 A 
ATOM      3  C   UNL     1      47.132   4.926  13.570  0.00  0.00    +0.000 A 
ATOM      4  C   UNL     1      47.272   6.301  13.354  0.00  0.00    +0.000 A 
ATOM      5  C   UNL     1      46.174   7.011  12.856  0.00  0.00    +0.000 A 
ATOM      6  C   UNL     1      44.941   6.373  12.670  0.00  0.00    +0.000 A 
ENDROOT
BRANCH   1   7
ATOM      7  N   UNL     1      43.482   4.472  12.838  0.00  0.00    +0.000 N 
ATOM      8  H   UNL     1      42.802   5.035  13.349  0.00  0.00    +0.000 HD
BRANCH   7   9
ATOM      9  C   UNL     1      43.045   4.166  11.470  0.00  0.00    +0.000 C 
BRANCH   9  10
ATOM     10  C   UNL     1      43.695   2.875  10.970  0.00  0.00    +0.000 C 
BRANCH  10  15
ATOM     11  C   UNL     1      46.049   2.333   8.200  0.00  0.00    +0.000 A 
ATOM     12  C   UNL     1      46.323   3.597   7.707  0.00  0.00    +0.000 A 
ATOM     13  C   UNL     1      45.719   4.687   8.324  0.00  0.00    +0.000 A 
ATOM     14  C   UNL     1      44.866   4.474   9.404  0.00  0.00    +0.000 A 
ATOM     15  C   UNL     1      44.647   3.170   9.839  0.00  0.00    +0.000 A 
ATOM     16  N   UNL     1      45.225   2.101   9.246  0.00  0.00    +0.000 NA
BRANCH  11  18
ATOM     17  C   UNL     1      47.725   1.680   6.716  0.00  0.00    +0.000 C 
ATOM     18  O   UNL     1      46.650   1.271   7.556  0.00  0.00    +0.000 OA
ENDBRANCH  11  18
ENDBRANCH  10  15
ENDBRANCH   9  10
ENDBRANCH   7   9
ENDBRANCH   1   7
BRANCH   4  19
ATOM     19  C   UNL     1      48.573   7.004  13.640  0.00  0.00    +0.000 C 
BRANCH  19  20
ATOM     20  N   UNL     1      49.007   6.792  14.995  0.00  0.00    +0.000 N 
ATOM     21  C   UNL     1      48.791   7.741  15.962  0.00  0.00    +0.000 C 
ATOM     22  O   UNL     1      48.172   8.777  15.731  0.00  0.00    +0.000 OA
ATOM     23  H   UNL     1      49.712   6.077  15.144  0.00  0.00    +0.000 HD
BRANCH  21  24
ATOM     24  C   UNL     1      49.283   7.427  17.307  0.00  0.00    +0.000 A 
ATOM     25  C   UNL     1      50.213   8.264  17.909  0.00  0.00    +0.000 A 
ATOM     26  S   UNL     1      50.635   7.791  19.493  0.00  0.00    +0.000 S 
ATOM     27  C   UNL     1      49.630   6.421  19.410  0.00  0.00    +0.000 A 
ATOM     28  N   UNL     1      49.545   5.549  20.449  0.00  0.00    +0.000 NA
ATOM     29  C   UNL     1      48.774   4.539  20.240  0.00  0.00    +0.000 A 
ATOM     30  N   UNL     1      48.077   4.316  19.079  0.00  0.00    +0.000 N 
ATOM     31  C   UNL     1      48.111   5.180  18.011  0.00  0.00    +0.000 A 
ATOM     32  O   UNL     1      47.446   4.970  17.002  0.00  0.00    +0.000 OA
ATOM     33  C   UNL     1      48.971   6.333  18.195  0.00  0.00    +0.000 A 
ATOM     34  H   UNL     1      47.487   3.503  18.977  0.00  0.00    +0.000 HD
ENDBRANCH  21  24
ENDBRANCH  19  20
ENDBRANCH   4  19
TORSDOF 8
ENDMDL
MODEL 3
REMARK VINA RESULT:    -7.503      2.982      8.808
REMARK INTER + INTRA:         -12.164
REMARK INTER:                 -10.569
REMARK INTRA:                  -1.595
REMARK UNBOUND:                -1.153
REMARK  Name = 
REMARK  9 active torsions:
REMARK  status: ('A' for Active; 'I' for Inactive)
REMARK    1  A    between atoms: C_1  and  O_2
REMARK    2  A    between atoms: O_2  and  C_3
REMARK    3  A    between atoms: C_7  and  C_8
REMARK    4  A    between atoms: C_8  and  C_9
REMARK    5  A    between atoms: C_9  and  N_10
REMARK    6  A    between atoms: N_10  and  C_11
REMARK    7  A    between atoms: C_14  and  C_15
REMARK    8  A    between atoms: C_15  and  N_16
REMARK    9  A    between atoms: C_17  and  C_19
REMARK                            x       y       z     vdW  Elec       q    Type
REMARK                         _______ _______ _______ _____ _____    ______ ____
ROOT
ATOM      1  C   UNL     1      49.287   8.175  15.837  0.00  0.00    +0.000 A 
ATOM      2  C   UNL     1      48.319   9.082  15.391  0.00  0.00    +0.000 A 
ATOM      3  C   UNL     1      47.821   9.024  14.083  0.00  0.00    +0.000 A 
ATOM      4  C   UNL     1      48.285   8.056  13.186  0.00  0.00    +0.000 A 
ATOM      5  C   UNL     1      49.329   7.218  13.594  0.00  0.00    +0.000 A 
ATOM      6  C   UNL     1      49.829   7.290  14.900  0.00  0.00    +0.000 A 
ENDROOT
BRANCH   1   7
ATOM      7  N   UNL     1      49.802   8.146  17.145  0.00  0.00    +0.000 N 
ATOM      8  H   UNL     1      49.989   9.099  17.458  0.00  0.00    +0.000 HD
BRANCH   7   9
ATOM      9  C   UNL     1      49.064   7.360  18.142  0.00  0.00    +0.000 C 
BRANCH   9  10
ATOM     10  C   UNL     1      49.805   6.061  18.463  0.00  0.00    +0.000 C 
BRANCH  10  15
ATOM     11  C   UNL     1      49.383   2.792  16.839  0.00  0.00    +0.000 A 
ATOM     12  C   UNL     1      48.025   2.685  16.591  0.00  0.00    +0.000 A 
ATOM     13  C   UNL     1      47.205   3.746  16.959  0.00  0.00    +0.000 A 
ATOM     14  C   UNL     1      47.769   4.868  17.560  0.00  0.00    +0.000 A 
ATOM     15  C   UNL     1      49.145   4.896  17.771  0.00  0.00    +0.000 A 
ATOM     16  N   UNL     1      49.954   3.870  17.421  0.00  0.00    +0.000 NA
BRANCH  11  18
ATOM     17  C   UNL     1      51.319   1.578  17.305  0.00  0.00    +0.000 C 
ATOM     18  O   UNL     1      50.167   1.716  16.479  0.00  0.00    +0.000 OA
ENDBRANCH  11  18
ENDBRANCH  10  15
ENDBRANCH   9  10
ENDBRANCH   7   9
ENDBRANCH   1   7
BRANCH   4  19
ATOM     19  C   UNL     1      47.686   7.921  11.811  0.00  0.00    +0.000 C 
BRANCH  19  20
ATOM     20  N   UNL     1      46.993   6.670  11.652  0.00  0.00    +0.000 N 
ATOM     21  C   UNL     1      45.625   6.605  11.731  0.00  0.00    +0.000 C 
ATOM     22  O   UNL     1      44.933   7.609  11.881  0.00  0.00    +0.000 OA
ATOM     23  H   UNL     1      47.542   5.824  11.768  0.00  0.00    +0.000 HD
BRANCH  21  24
ATOM     24  C   UNL     1      45.023   5.278  11.564  0.00  0.00    +0.000 A 
ATOM     25  C   UNL     1      44.369   4.683  12.634  0.00  0.00    +0.000 A 
ATOM     26  S   UNL     1      43.674   3.171  12.256  0.00  0.00    +0.000 S 
ATOM     27  C   UNL     1      44.269   3.236  10.663  0.00  0.00    +0.000 A 
ATOM     28  N   UNL     1      44.047   2.217   9.791  0.00  0.00    +0.000 NA
ATOM     29  C   UNL     1      44.581   2.381   8.630  0.00  0.00    +0.000 A 
ATOM     30  N   UNL     1      45.322   3.474   8.258  0.00  0.00    +0.000 N 
ATOM     31  C   UNL     1      45.553   4.539   9.095  0.00  0.00    +0.000 A 
ATOM     32  O   UNL     1      46.188   5.518   8.719  0.00  0.00    +0.000 OA
ATOM     33  C   UNL     1      44.976   4.401  10.419  0.00  0.00    +0.000 A 
ATOM     34  H   UNL     1      45.715   3.542   7.331  0.00  0.00    +0.000 HD
ENDBRANCH  21  24
ENDBRANCH  19  20
ENDBRANCH   4  19
TORSDOF 8
ENDMDL
MODEL 4
REMARK VINA RESULT:    -7.481      2.134      2.979
REMARK INTER + INTRA:         -12.133
REMARK INTER:                 -10.866
REMARK INTRA:                  -1.267
REMARK UNBOUND:                -1.153
REMARK  Name = 
REMARK  9 active torsions:
REMARK  status: ('A' for Active; 'I' for Inactive)
REMARK    1  A    between atoms: C_1  and  O_2
REMARK    2  A    between atoms: O_2  and  C_3
REMARK    3  A    between atoms: C_7  and  C_8
REMARK    4  A    between atoms: C_8  and  C_9
REMARK    5  A    between atoms: C_9  and  N_10
REMARK    6  A    between atoms: N_10  and  C_11
REMARK    7  A    between atoms: C_14  and  C_15
REMARK    8  A    between atoms: C_15  and  N_16
REMARK    9  A    between atoms: C_17  and  C_19
REMARK                            x       y       z     vdW  Elec       q    Type
REMARK                         _______ _______ _______ _____ _____    ______ ____
ROOT
ATOM      1  C   UNL     1      44.963   4.784  13.177  0.00  0.00    +0.000 A 
ATOM      2  C   UNL     1      44.835   6.156  12.929  0.00  0.00    +0.000 A 
ATOM      3  C   UNL     1      45.964   6.973  12.785  0.00  0.00    +0.000 A 
ATOM      4  C   UNL     1      47.251   6.437  12.890  0.00  0.00    +0.000 A 
ATOM      5  C   UNL     1      47.383   5.090  13.245  0.00  0.00    +0.000 A 
ATOM      6  C   UNL     1      46.250   4.281  13.398  0.00  0.00    +0.000 A 
ENDROOT
BRANCH   1   7
ATOM      7  N   UNL     1      43.880   3.896  13.291  0.00  0.00    +0.000 N 
ATOM      8  H   UNL     1      43.066   4.396  13.649  0.00  0.00    +0.000 HD
BRANCH   7   9
ATOM      9  C   UNL     1      43.563   3.067  12.122  0.00  0.00    +0.000 C 
BRANCH   9  10
ATOM     10  C   UNL     1      43.329   3.939  10.887  0.00  0.00    +0.000 C 
BRANCH  10  15
ATOM     11  C   UNL     1      45.512   2.009   8.648  0.00  0.00    +0.000 A 
ATOM     12  C   UNL     1      46.135   2.953   7.849  0.00  0.00    +0.000 A 
ATOM     13  C   UNL     1      45.837   4.294   8.064  0.00  0.00    +0.000 A 
ATOM     14  C   UNL     1      44.932   4.640   9.064  0.00  0.00    +0.000 A 
ATOM     15  C   UNL     1      44.353   3.629   9.826  0.00  0.00    +0.000 A 
ATOM     16  N   UNL     1      44.631   2.320   9.624  0.00  0.00    +0.000 NA
BRANCH  11  18
ATOM     17  C   UNL     1      46.950   0.538   7.549  0.00  0.00    +0.000 C 
ATOM     18  O   UNL     1      45.815   0.687   8.397  0.00  0.00    +0.000 OA
ENDBRANCH  11  18
ENDBRANCH  10  15
ENDBRANCH   9  10
ENDBRANCH   7   9
ENDBRANCH   1   7
BRANCH   4  19
ATOM     19  C   UNL     1      48.469   7.285  12.638  0.00  0.00    +0.000 C 
BRANCH  19  20
ATOM     20  N   UNL     1      49.529   6.985  13.564  0.00  0.00    +0.000 N 
ATOM     21  C   UNL     1      49.585   7.591  14.794  0.00  0.00    +0.000 C 
ATOM     22  O   UNL     1      48.711   8.364  15.179  0.00  0.00    +0.000 OA
ATOM     23  H   UNL     1      50.362   6.551  13.181  0.00  0.00    +0.000 HD
BRANCH  21  24
ATOM     24  C   UNL     1      50.712   7.220  15.655  0.00  0.00    +0.000 A 
ATOM     25  C   UNL     1      51.894   7.945  15.588  0.00  0.00    +0.000 A 
ATOM     26  S   UNL     1      53.081   7.423  16.696  0.00  0.00    +0.000 S 
ATOM     27  C   UNL     1      52.077   6.174  17.266  0.00  0.00    +0.000 A 
ATOM     28  N   UNL     1      52.506   5.314  18.227  0.00  0.00    +0.000 NA
ATOM     29  C   UNL     1      51.658   4.397  18.542  0.00  0.00    +0.000 A 
ATOM     30  N   UNL     1      50.414   4.257  17.980  0.00  0.00    +0.000 N 
ATOM     31  C   UNL     1      49.927   5.115  17.024  0.00  0.00    +0.000 A 
ATOM     32  O   UNL     1      48.796   4.984  16.569  0.00  0.00    +0.000 OA
ATOM     33  C   UNL     1      50.848   6.164  16.630  0.00  0.00    +0.000 A 
ATOM     34  H   UNL     1      49.795   3.514  18.271  0.00  0.00    +0.000 HD
ENDBRANCH  21  24
ENDBRANCH  19  20
ENDBRANCH   4  19
TORSDOF 8
ENDMDL
MODEL 5
REMARK VINA RESULT:    -7.468      2.624      3.684
REMARK INTER + INTRA:         -12.114
REMARK INTER:                 -11.267
REMARK INTRA:                  -0.848
REMARK UNBOUND:                -1.153
REMARK  Name = 
REMARK  9 active torsions:
REMARK  status: ('A' for Active; 'I' for Inactive)
REMARK    1  A    between atoms: C_1  and  O_2
REMARK    2  A    between atoms: O_2  and  C_3
REMARK    3  A    between atoms: C_7  and  C_8
REMARK    4  A    between atoms: C_8  and  C_9
REMARK    5  A    between atoms: C_9  and  N_10
REMARK    6  A    between atoms: N_10  and  C_11
REMARK    7  A    between atoms: C_14  and  C_15
REMARK    8  A    between atoms: C_15  and  N_16
REMARK    9  A    between atoms: C_17  and  C_19
REMARK                            x       y       z     vdW  Elec       q    Type
REMARK                         _______ _______ _______ _____ _____    ______ ____
ROOT
ATOM      1  C   UNL     1      44.743   4.785  11.624  0.00  0.00    +0.000 A 
ATOM      2  C   UNL     1      45.055   6.097  11.248  0.00  0.00    +0.000 A 
ATOM      3  C   UNL     1      46.105   6.794  11.860  0.00  0.00    +0.000 A 
ATOM      4  C   UNL     1      46.867   6.196  12.868  0.00  0.00    +0.000 A 
ATOM      5  C   UNL     1      46.489   4.927  13.322  0.00  0.00    +0.000 A 
ATOM      6  C   UNL     1      45.432   4.240  12.713  0.00  0.00    +0.000 A 
ENDROOT
BRANCH   1   7
ATOM      7  N   UNL     1      43.733   4.010  11.028  0.00  0.00    +0.000 N 
ATOM      8  H   UNL     1      42.947   4.610  10.778  0.00  0.00    +0.000 HD
BRANCH   7   9
ATOM      9  C   UNL     1      44.129   3.114   9.935  0.00  0.00    +0.000 C 
BRANCH   9  10
ATOM     10  C   UNL     1      44.722   3.909   8.771  0.00  0.00    +0.000 C 
BRANCH  10  15
ATOM     11  C   UNL     1      46.688   0.985   7.726  0.00  0.00    +0.000 A 
ATOM     12  C   UNL     1      47.381   1.399   6.601  0.00  0.00    +0.000 A 
ATOM     13  C   UNL     1      47.209   2.710   6.170  0.00  0.00    +0.000 A 
ATOM     14  C   UNL     1      46.354   3.554   6.874  0.00  0.00    +0.000 A 
ATOM     15  C   UNL     1      45.697   3.059   7.998  0.00  0.00    +0.000 A 
ATOM     16  N   UNL     1      45.853   1.785   8.426  0.00  0.00    +0.000 NA
BRANCH  11  18
ATOM     17  C   UNL     1      46.545  -1.252   7.085  0.00  0.00    +0.000 C 
ATOM     18  O   UNL     1      46.866  -0.325   8.118  0.00  0.00    +0.000 OA
ENDBRANCH  11  18
ENDBRANCH  10  15
ENDBRANCH   9  10
ENDBRANCH   7   9
ENDBRANCH   1   7
BRANCH   4  19
ATOM     19  C   UNL     1      48.059   6.898  13.462  0.00  0.00    +0.000 C 
BRANCH  19  20
ATOM     20  N   UNL     1      47.974   6.974  14.896  0.00  0.00    +0.000 N 
ATOM     21  C   UNL     1      49.086   6.802  15.680  0.00  0.00    +0.000 C 
ATOM     22  O   UNL     1      50.203   6.634  15.198  0.00  0.00    +0.000 OA
ATOM     23  H   UNL     1      47.051   6.870  15.306  0.00  0.00    +0.000 HD
BRANCH  21  24
ATOM     24  C   UNL     1      48.884   6.889  17.130  0.00  0.00    +0.000 A 
ATOM     25  C   UNL     1      48.626   8.122  17.713  0.00  0.00    +0.000 A 
ATOM     26  S   UNL     1      48.355   8.041  19.395  0.00  0.00    +0.000 S 
ATOM     27  C   UNL     1      48.627   6.361  19.412  0.00  0.00    +0.000 A 
ATOM     28  N   UNL     1      48.573   5.654  20.572  0.00  0.00    +0.000 NA
ATOM     29  C   UNL     1      48.831   4.399  20.446  0.00  0.00    +0.000 A 
ATOM     30  N   UNL     1      49.142   3.780  19.261  0.00  0.00    +0.000 N 
ATOM     31  C   UNL     1      49.185   4.447  18.060  0.00  0.00    +0.000 A 
ATOM     32  O   UNL     1      49.429   3.856  17.013  0.00  0.00    +0.000 OA
ATOM     33  C   UNL     1      48.907   5.867  18.149  0.00  0.00    +0.000 A 
ATOM     34  H   UNL     1      49.335   2.790  19.228  0.00  0.00    +0.000 HD
ENDBRANCH  21  24
ENDBRANCH  19  20
ENDBRANCH   4  19
TORSDOF 8
ENDMDL
MODEL 6
REMARK VINA RESULT:    -7.403      3.617      8.660
REMARK INTER + INTRA:         -12.018
REMARK INTER:                  -9.963
REMARK INTRA:                  -2.055
REMARK UNBOUND:                -1.153
REMARK  Name = 
REMARK  9 active torsions:
REMARK  status: ('A' for Active; 'I' for Inactive)
REMARK    1  A    between atoms: C_1  and  O_2
REMARK    2  A    between atoms: O_2  and  C_3
REMARK    3  A    between atoms: C_7  and  C_8
REMARK    4  A    between atoms: C_8  and  C_9
REMARK    5  A    between atoms: C_9  and  N_10
REMARK    6  A    between atoms: N_10  and  C_11
REMARK    7  A    between atoms: C_14  and  C_15
REMARK    8  A    between atoms: C_15  and  N_16
REMARK    9  A    between atoms: C_17  and  C_19
REMARK                            x       y       z     vdW  Elec       q    Type
REMARK                         _______ _______ _______ _____ _____    ______ ____
ROOT
ATOM      1  C   UNL     1      49.818   7.073  18.732  0.00  0.00    +0.000 A 
ATOM      2  C   UNL     1      48.763   7.973  18.542  0.00  0.00    +0.000 A 
ATOM      3  C   UNL     1      48.382   8.382  17.257  0.00  0.00    +0.000 A 
ATOM      4  C   UNL     1      49.054   7.903  16.129  0.00  0.00    +0.000 A 
ATOM      5  C   UNL     1      50.178   7.090  16.319  0.00  0.00    +0.000 A 
ATOM      6  C   UNL     1      50.558   6.694  17.607  0.00  0.00    +0.000 A 
ENDROOT
BRANCH   1   7
ATOM      7  N   UNL     1      50.227   6.586  19.985  0.00  0.00    +0.000 N 
ATOM      8  H   UNL     1      49.758   7.110  20.724  0.00  0.00    +0.000 HD
BRANCH   7   9
ATOM      9  C   UNL     1      50.164   5.135  20.197  0.00  0.00    +0.000 C 
BRANCH   9  10
ATOM     10  C   UNL     1      48.723   4.634  20.087  0.00  0.00    +0.000 C 
BRANCH  10  15
ATOM     11  C   UNL     1      49.126   2.657  17.015  0.00  0.00    +0.000 A 
ATOM     12  C   UNL     1      48.023   2.968  16.239  0.00  0.00    +0.000 A 
ATOM     13  C   UNL     1      47.106   3.886  16.739  0.00  0.00    +0.000 A 
ATOM     14  C   UNL     1      47.323   4.455  17.991  0.00  0.00    +0.000 A 
ATOM     15  C   UNL     1      48.461   4.090  18.706  0.00  0.00    +0.000 A 
ATOM     16  N   UNL     1      49.359   3.196  18.233  0.00  0.00    +0.000 NA
BRANCH  11  18
ATOM     17  C   UNL     1      51.195   1.614  17.278  0.00  0.00    +0.000 C 
ATOM     18  O   UNL     1      50.008   1.731  16.499  0.00  0.00    +0.000 OA
ENDBRANCH  11  18
ENDBRANCH  10  15
ENDBRANCH   9  10
ENDBRANCH   7   9
ENDBRANCH   1   7
BRANCH   4  19
ATOM     19  C   UNL     1      48.592   8.258  14.740  0.00  0.00    +0.000 C 
BRANCH  19  20
ATOM     20  N   UNL     1      47.542   7.384  14.288  0.00  0.00    +0.000 N 
ATOM     21  C   UNL     1      47.783   6.422  13.340  0.00  0.00    +0.000 C 
ATOM     22  O   UNL     1      48.905   6.227  12.881  0.00  0.00    +0.000 OA
ATOM     23  H   UNL     1      46.589   7.682  14.469  0.00  0.00    +0.000 HD
BRANCH  21  24
ATOM     24  C   UNL     1      46.639   5.594  12.945  0.00  0.00    +0.000 A 
ATOM     25  C   UNL     1      46.694   4.218  13.126  0.00  0.00    +0.000 A 
ATOM     26  S   UNL     1      45.262   3.411  12.672  0.00  0.00    +0.000 S 
ATOM     27  C   UNL     1      44.538   4.865  12.166  0.00  0.00    +0.000 A 
ATOM     28  N   UNL     1      43.287   4.877  11.636  0.00  0.00    +0.000 NA
ATOM     29  C   UNL     1      42.874   6.039  11.265  0.00  0.00    +0.000 A 
ATOM     30  N   UNL     1      43.602   7.198  11.374  0.00  0.00    +0.000 N 
ATOM     31  C   UNL     1      44.859   7.240  11.925  0.00  0.00    +0.000 A 
ATOM     32  O   UNL     1      45.467   8.299  12.042  0.00  0.00    +0.000 OA
ATOM     33  C   UNL     1      45.372   5.953  12.354  0.00  0.00    +0.000 A 
ATOM     34  H   UNL     1      43.220   8.080  11.063  0.00  0.00    +0.000 HD
ENDBRANCH  21  24
ENDBRANCH  19  20
ENDBRANCH   4  19
TORSDOF 8
ENDMDL
MODEL 7
REMARK VINA RESULT:    -7.002      1.819      2.964
REMARK INTER + INTRA:         -11.430
REMARK INTER:                 -10.225
REMARK INTRA:                  -1.205
REMARK UNBOUND:                -1.153
REMARK  Name = 
REMARK  9 active torsions:
REMARK  status: ('A' for Active; 'I' for Inactive)
REMARK    1  A    between atoms: C_1  and  O_2
REMARK    2  A    between atoms: O_2  and  C_3
REMARK    3  A    between atoms: C_7  and  C_8
REMARK    4  A    between atoms: C_8  and  C_9
REMARK    5  A    between atoms: C_9  and  N_10
REMARK    6  A    between atoms: N_10  and  C_11
REMARK    7  A    between atoms: C_14  and  C_15
REMARK    8  A    between atoms: C_15  and  N_16
REMARK    9  A    between atoms: C_17  and  C_19
REMARK                            x       y       z     vdW  Elec       q    Type
REMARK                         _______ _______ _______ _____ _____    ______ ____
ROOT
ATOM      1  C   UNL     1      47.593   6.036  14.209  0.00  0.00    +0.000 A 
ATOM      2  C   UNL     1      48.325   6.369  15.354  0.00  0.00    +0.000 A 
ATOM      3  C   UNL     1      48.435   5.476  16.428  0.00  0.00    +0.000 A 
ATOM      4  C   UNL     1      47.808   4.227  16.383  0.00  0.00    +0.000 A 
ATOM      5  C   UNL     1      46.986   3.935  15.289  0.00  0.00    +0.000 A 
ATOM      6  C   UNL     1      46.873   4.837  14.224  0.00  0.00    +0.000 A 
ENDROOT
BRANCH   1   7
ATOM      7  N   UNL     1      47.474   6.862  13.078  0.00  0.00    +0.000 N 
ATOM      8  H   UNL     1      48.265   6.702  12.455  0.00  0.00    +0.000 HD
BRANCH   7   9
ATOM      9  C   UNL     1      46.188   6.851  12.369  0.00  0.00    +0.000 C 
BRANCH   9  10
ATOM     10  C   UNL     1      46.404   6.802  10.855  0.00  0.00    +0.000 C 
BRANCH  10  15
ATOM     11  C   UNL     1      45.475   4.194   8.439  0.00  0.00    +0.000 A 
ATOM     12  C   UNL     1      44.644   3.334   9.137  0.00  0.00    +0.000 A 
ATOM     13  C   UNL     1      44.360   3.631  10.466  0.00  0.00    +0.000 A 
ATOM     14  C   UNL     1      44.914   4.770  11.044  0.00  0.00    +0.000 A 
ATOM     15  C   UNL     1      45.736   5.585  10.270  0.00  0.00    +0.000 A 
ATOM     16  N   UNL     1      46.025   5.305   8.978  0.00  0.00    +0.000 NA
BRANCH  11  18
ATOM     17  C   UNL     1      46.563   2.696   7.022  0.00  0.00    +0.000 C 
ATOM     18  O   UNL     1      45.752   3.862   7.129  0.00  0.00    +0.000 OA
ENDBRANCH  11  18
ENDBRANCH  10  15
ENDBRANCH   9  10
ENDBRANCH   7   9
ENDBRANCH   1   7
BRANCH   4  19
ATOM     19  C   UNL     1      48.000   3.222  17.487  0.00  0.00    +0.000 C 
BRANCH  19  20
ATOM     20  N   UNL     1      49.391   3.036  17.803  0.00  0.00    +0.000 N 
ATOM     21  C   UNL     1      50.182   2.205  17.051  0.00  0.00    +0.000 C 
ATOM     22  O   UNL     1      49.758   1.633  16.050  0.00  0.00    +0.000 OA
ATOM     23  H   UNL     1      49.688   3.299  18.738  0.00  0.00    +0.000 HD
BRANCH  21  24
ATOM     24  C   UNL     1      51.583   2.082  17.467  0.00  0.00    +0.000 A 
ATOM     25  C   UNL     1      52.130   0.822  17.667  0.00  0.00    +0.000 A 
ATOM     26  S   UNL     1      53.783   0.852  18.088  0.00  0.00    +0.000 S 
ATOM     27  C   UNL     1      53.811   2.553  18.072  0.00  0.00    +0.000 A 
ATOM     28  N   UNL     1      54.944   3.238  18.378  0.00  0.00    +0.000 NA
ATOM     29  C   UNL     1      54.817   4.520  18.360  0.00  0.00    +0.000 A 
ATOM     30  N   UNL     1      53.653   5.185  18.064  0.00  0.00    +0.000 N 
ATOM     31  C   UNL     1      52.490   4.537  17.724  0.00  0.00    +0.000 A 
ATOM     32  O   UNL     1      51.478   5.163  17.428  0.00  0.00    +0.000 OA
ATOM     33  C   UNL     1      52.580   3.090  17.736  0.00  0.00    +0.000 A 
ATOM     34  H   UNL     1      53.618   6.194  18.067  0.00  0.00    +0.000 HD
ENDBRANCH  21  24
ENDBRANCH  19  20
ENDBRANCH   4  19
TORSDOF 8
ENDMDL
MODEL 8
REMARK VINA RESULT:    -6.843      5.366      6.129
REMARK INTER + INTRA:         -11.197
REMARK INTER:                  -9.756
REMARK INTRA:                  -1.440
REMARK UNBOUND:                -1.153
REMARK  Name = 
REMARK  9 active torsions:
REMARK  status: ('A' for Active; 'I' for Inactive)
REMARK    1  A    between atoms: C_1  and  O_2
REMARK    2  A    between atoms: O_2  and  C_3
REMARK    3  A    between atoms: C_7  and  C_8
REMARK    4  A    between atoms: C_8  and  C_9
REMARK    5  A    between atoms: C_9  and  N_10
REMARK    6  A    between atoms: N_10  and  C_11
REMARK    7  A    between atoms: C_14  and  C_15
REMARK    8  A    between atoms: C_15  and  N_16
REMARK    9  A    between atoms: C_17  and  C_19
REMARK                            x       y       z     vdW  Elec       q    Type
REMARK                         _______ _______ _______ _____ _____    ______ ____
ROOT
ATOM      1  C   UNL     1      44.826   5.105  12.422  0.00  0.00    +0.000 A 
ATOM      2  C   UNL     1      46.059   5.392  13.018  0.00  0.00    +0.000 A 
ATOM      3  C   UNL     1      46.558   6.701  13.057  0.00  0.00    +0.000 A 
ATOM      4  C   UNL     1      45.833   7.756  12.494  0.00  0.00    +0.000 A 
ATOM      5  C   UNL     1      44.653   7.458  11.802  0.00  0.00    +0.000 A 
ATOM      6  C   UNL     1      44.167   6.145  11.759  0.00  0.00    +0.000 A 
ENDROOT
BRANCH   1   7
ATOM      7  N   UNL     1      44.245   3.826  12.383  0.00  0.00    +0.000 N 
ATOM      8  H   UNL     1      43.745   3.652  13.255  0.00  0.00    +0.000 HD
BRANCH   7   9
ATOM      9  C   UNL     1      43.446   3.486  11.199  0.00  0.00    +0.000 C 
BRANCH   9  10
ATOM     10  C   UNL     1      43.999   2.234  10.514  0.00  0.00    +0.000 C 
BRANCH  10  15
ATOM     11  C   UNL     1      46.425   1.913   7.773  0.00  0.00    +0.000 A 
ATOM     12  C   UNL     1      46.626   3.203   7.315  0.00  0.00    +0.000 A 
ATOM     13  C   UNL     1      45.943   4.237   7.946  0.00  0.00    +0.000 A 
ATOM     14  C   UNL     1      45.089   3.944   9.006  0.00  0.00    +0.000 A 
ATOM     15  C   UNL     1      44.947   2.618   9.407  0.00  0.00    +0.000 A 
ATOM     16  N   UNL     1      45.602   1.602   8.799  0.00  0.00    +0.000 NA
BRANCH  11  18
ATOM     17  C   UNL     1      46.799  -0.385   7.631  0.00  0.00    +0.000 C 
ATOM     18  O   UNL     1      47.103   0.907   7.114  0.00  0.00    +0.000 OA
ENDBRANCH  11  18
ENDBRANCH  10  15
ENDBRANCH   9  10
ENDBRANCH   7   9
ENDBRANCH   1   7
BRANCH   4  19
ATOM     19  C   UNL     1      46.310   9.179  12.617  0.00  0.00    +0.000 C 
BRANCH  19  20
ATOM     20  N   UNL     1      47.572   9.377  11.955  0.00  0.00    +0.000 N 
ATOM     21  C   UNL     1      48.629   9.960  12.608  0.00  0.00    +0.000 C 
ATOM     22  O   UNL     1      48.565  10.282  13.792  0.00  0.00    +0.000 OA
ATOM     23  H   UNL     1      47.568   9.343  10.941  0.00  0.00    +0.000 HD
BRANCH  21  24
ATOM     24  C   UNL     1      49.865  10.123  11.837  0.00  0.00    +0.000 A 
ATOM     25  C   UNL     1      50.316  11.399  11.525  0.00  0.00    +0.000 A 
ATOM     26  S   UNL     1      51.796  11.414  10.678  0.00  0.00    +0.000 S 
ATOM     27  C   UNL     1      51.859   9.714  10.650  0.00  0.00    +0.000 A 
ATOM     28  N   UNL     1      52.883   9.060  10.039  0.00  0.00    +0.000 NA
ATOM     29  C   UNL     1      52.789   7.776  10.064  0.00  0.00    +0.000 A 
ATOM     30  N   UNL     1      51.759   7.079  10.645  0.00  0.00    +0.000 N 
ATOM     31  C   UNL     1      50.717   7.694  11.296  0.00  0.00    +0.000 A 
ATOM     32  O   UNL     1      49.832   7.040  11.838  0.00  0.00    +0.000 OA
ATOM     33  C   UNL     1      50.773   9.143  11.291  0.00  0.00    +0.000 A 
ATOM     34  H   UNL     1      51.744   6.070  10.631  0.00  0.00    +0.000 HD
ENDBRANCH  21  24
ENDBRANCH  19  20
ENDBRANCH   4  19
TORSDOF 8
ENDMDL
MODEL 9
REMARK VINA RESULT:    -6.823      3.028      3.632
REMARK INTER + INTRA:         -11.166
REMARK INTER:                 -10.061
REMARK INTRA:                  -1.106
REMARK UNBOUND:                -1.153
REMARK  Name = 
REMARK  9 active torsions:
REMARK  status: ('A' for Active; 'I' for Inactive)
REMARK    1  A    between atoms: C_1  and  O_2
REMARK    2  A    between atoms: O_2  and  C_3
REMARK    3  A    between atoms: C_7  and  C_8
REMARK    4  A    between atoms: C_8  and  C_9
REMARK    5  A    between atoms: C_9  and  N_10
REMARK    6  A    between atoms: N_10  and  C_11
REMARK    7  A    between atoms: C_14  and  C_15
REMARK    8  A    between atoms: C_15  and  N_16
REMARK    9  A    between atoms: C_17  and  C_19
REMARK                            x       y       z     vdW  Elec       q    Type
REMARK                         _______ _______ _______ _____ _____    ______ ____
ROOT
ATOM      1  C   UNL     1      44.737   5.959  12.872  0.00  0.00    +0.000 A 
ATOM      2  C   UNL     1      45.113   7.288  12.649  0.00  0.00    +0.000 A 
ATOM      3  C   UNL     1      46.457   7.678  12.700  0.00  0.00    +0.000 A 
ATOM      4  C   UNL     1      47.460   6.745  12.982  0.00  0.00    +0.000 A 
ATOM      5  C   UNL     1      47.079   5.440  13.312  0.00  0.00    +0.000 A 
ATOM      6  C   UNL     1      45.732   5.060  13.269  0.00  0.00    +0.000 A 
ENDROOT
BRANCH   1   7
ATOM      7  N   UNL     1      43.415   5.486  12.795  0.00  0.00    +0.000 N 
ATOM      8  H   UNL     1      42.768   6.271  12.871  0.00  0.00    +0.000 HD
BRANCH   7   9
ATOM      9  C   UNL     1      43.084   4.589  11.681  0.00  0.00    +0.000 C 
BRANCH   9  10
ATOM     10  C   UNL     1      43.577   5.168  10.354  0.00  0.00    +0.000 C 
BRANCH  10  15
ATOM     11  C   UNL     1      45.778   3.650   7.834  0.00  0.00    +0.000 A 
ATOM     12  C   UNL     1      45.786   2.297   8.129  0.00  0.00    +0.000 A 
ATOM     13  C   UNL     1      45.017   1.855   9.200  0.00  0.00    +0.000 A 
ATOM     14  C   UNL     1      44.274   2.776   9.933  0.00  0.00    +0.000 A 
ATOM     15  C   UNL     1      44.319   4.119   9.567  0.00  0.00    +0.000 A 
ATOM     16  N   UNL     1      45.066   4.563   8.530  0.00  0.00    +0.000 NA
BRANCH  11  18
ATOM     17  C   UNL     1      46.922   2.984   5.914  0.00  0.00    +0.000 C 
ATOM     18  O   UNL     1      46.565   4.059   6.777  0.00  0.00    +0.000 OA
ENDBRANCH  11  18
ENDBRANCH  10  15
ENDBRANCH   9  10
ENDBRANCH   7   9
ENDBRANCH   1   7
BRANCH   4  19
ATOM     19  C   UNL     1      48.915   7.132  12.942  0.00  0.00    +0.000 C 
BRANCH  19  20
ATOM     20  N   UNL     1      49.579   6.838  14.184  0.00  0.00    +0.000 N 
ATOM     21  C   UNL     1      49.889   7.836  15.073  0.00  0.00    +0.000 C 
ATOM     22  O   UNL     1      49.567   9.005  14.878  0.00  0.00    +0.000 OA
ATOM     23  H   UNL     1      50.055   5.944  14.248  0.00  0.00    +0.000 HD
BRANCH  21  24
ATOM     24  C   UNL     1      50.575   7.426  16.303  0.00  0.00    +0.000 A 
ATOM     25  C   UNL     1      51.800   6.777  16.221  0.00  0.00    +0.000 A 
ATOM     26  S   UNL     1      52.490   6.424  17.741  0.00  0.00    +0.000 S 
ATOM     27  C   UNL     1      51.150   7.078  18.561  0.00  0.00    +0.000 A 
ATOM     28  N   UNL     1      51.087   7.069  19.919  0.00  0.00    +0.000 NA
ATOM     29  C   UNL     1      50.004   7.565  20.408  0.00  0.00    +0.000 A 
ATOM     30  N   UNL     1      48.969   8.070  19.661  0.00  0.00    +0.000 N 
ATOM     31  C   UNL     1      48.997   8.123  18.288  0.00  0.00    +0.000 A 
ATOM     32  O   UNL     1      48.071   8.616  17.652  0.00  0.00    +0.000 OA
ATOM     33  C   UNL     1      50.196   7.571  17.688  0.00  0.00    +0.000 A 
ATOM     34  H   UNL     1      48.144   8.445  20.106  0.00  0.00    +0.000 HD
ENDBRANCH  21  24
ENDBRANCH  19  20
ENDBRANCH   4  19
TORSDOF 8
ENDMDL
