MODEL 1
REMARK VINA RESULT:    -7.521      0.000      0.000
REMARK INTER + INTRA:         -10.352
REMARK INTER:                  -9.719
REMARK INTRA:                  -0.632
REMARK UNBOUND:                -0.632
REMARK  Name = 
REMARK  5 active torsions:
REMARK  status: ('A' for Active; 'I' for Inactive)
REMARK    1  A    between atoms: C_2  and  C_4
REMARK    2  A    between atoms: C_8  and  N_9
REMARK    3  A    between atoms: N_9  and  C_10
REMARK    4  A    between atoms: C_10  and  C_11
REMARK    5  A    between atoms: C_15  and  N_16
REMARK                            x       y       z     vdW  Elec       q    Type
REMARK                         _______ _______ _______ _____ _____    ______ ____
ROOT
ATOM      1  N   UNL     1      44.270   4.722   9.159  0.00  0.00    +0.000 N 
ATOM      2  H   UNL     1      44.207   5.482   8.492  0.00  0.00    +0.000 HD
ENDROOT
BRANCH   1   7
ATOM      3  C   UNL     1      46.404   2.636   7.251  0.00  0.00    +0.000 A 
ATOM      4  N   UNL     1      46.265   1.394   7.749  0.00  0.00    +0.000 NA
ATOM      5  C   UNL     1      45.416   1.283   8.773  0.00  0.00    +0.000 A 
ATOM      6  C   UNL     1      44.725   2.349   9.300  0.00  0.00    +0.000 A 
ATOM      7  C   UNL     1      44.915   3.590   8.716  0.00  0.00    +0.000 A 
ATOM      8  N   UNL     1      45.760   3.752   7.684  0.00  0.00    +0.000 NA
BRANCH   3  10
ATOM      9  N   UNL     1      48.706   2.542   6.405  0.00  0.00    +0.000 N 
ATOM     10  C   UNL     1      47.389   2.803   6.114  0.00  0.00    +0.000 C 
ATOM     11  O   UNL     1      47.069   3.140   4.978  0.00  0.00    +0.000 OA
ATOM     12  H   UNL     1      49.387   2.606   5.664  0.00  0.00    +0.000 HD
ATOM     13  H   UNL     1      48.973   2.223   7.330  0.00  0.00    +0.000 HD
ENDBRANCH   3  10
ENDBRANCH   1   7
BRANCH   1  14
ATOM     14  C   UNL     1      43.582   4.806  10.425  0.00  0.00    +0.000 C 
BRANCH  14  15
ATOM     15  C   UNL     1      44.525   4.934  11.584  0.00  0.00    +0.000 A 
ATOM     16  C   UNL     1      44.616   3.940  12.547  0.00  0.00    +0.000 A 
ATOM     17  N   UNL     1      45.506   3.954  13.557  0.00  0.00    +0.000 NA
ATOM     18  C   UNL     1      46.349   5.017  13.605  0.00  0.00    +0.000 A 
ATOM     19  C   UNL     1      46.361   6.098  12.716  0.00  0.00    +0.000 A 
ATOM     20  C   UNL     1      45.398   6.026  11.700  0.00  0.00    +0.000 A 
BRANCH  19  21
ATOM     21  N   UNL     1      47.241   7.149  12.822  0.00  0.00    +0.000 N 
ATOM     22  C   UNL     1      46.834   8.494  13.262  0.00  0.00    +0.000 C 
ATOM     23  C   UNL     1      47.364   9.542  12.272  0.00  0.00    +0.000 C 
ATOM     24  O   UNL     1      48.787   9.429  12.097  0.00  0.00    +0.000 OA
ATOM     25  C   UNL     1      49.130   8.122  11.606  0.00  0.00    +0.000 C 
ATOM     26  C   UNL     1      48.685   7.015  12.579  0.00  0.00    +0.000 C 
ENDBRANCH  19  21
ENDBRANCH  14  15
ENDBRANCH   1  14
TORSDOF 5
ENDMDL
MODEL 2
REMARK VINA RESULT:    -7.361      2.000      2.863
REMARK INTER + INTRA:         -10.145
REMARK INTER:                  -9.464
REMARK INTRA:                  -0.682
REMARK UNBOUND:                -0.632
REMARK  Name = 
REMARK  5 active torsions:
REMARK  status: ('A' for Active; 'I' for Inactive)
REMARK    1  A    between atoms: C_2  and  C_4
REMARK    2  A    between atoms: C_8  and  N_9
REMARK    3  A    between atoms: N_9  and  C_10
REMARK    4  A    between atoms: C_10  and  C_11
REMARK    5  A    between atoms: C_15  and  N_16
REMARK                            x       y       z     vdW  Elec       q    Type
REMARK                         _______ _______ _______ _____ _____    ______ ____
ROOT
ATOM      1  N   UNL     1      44.270   4.867   9.233  0.00  0.00    +0.000 N 
ATOM      2  H   UNL     1      44.154   5.541   8.485  0.00  0.00    +0.000 HD
ENDROOT
BRANCH   1   7
ATOM      3  C   UNL     1      46.384   2.545   7.594  0.00  0.00    +0.000 A 
ATOM      4  N   UNL     1      46.065   1.332   8.080  0.00  0.00    +0.000 NA
ATOM      5  C   UNL     1      45.097   1.324   9.000  0.00  0.00    +0.000 A 
ATOM      6  C   UNL     1      44.462   2.463   9.438  0.00  0.00    +0.000 A 
ATOM      7  C   UNL     1      44.843   3.668   8.873  0.00  0.00    +0.000 A 
ATOM      8  N   UNL     1      45.812   3.727   7.945  0.00  0.00    +0.000 NA
BRANCH   3  10
ATOM      9  N   UNL     1      47.302   3.401   5.485  0.00  0.00    +0.000 N 
ATOM     10  C   UNL     1      47.504   2.592   6.577  0.00  0.00    +0.000 C 
ATOM     11  O   UNL     1      48.554   1.966   6.689  0.00  0.00    +0.000 OA
ATOM     12  H   UNL     1      48.041   3.487   4.804  0.00  0.00    +0.000 HD
ATOM     13  H   UNL     1      46.455   3.953   5.405  0.00  0.00    +0.000 HD
ENDBRANCH   3  10
ENDBRANCH   1   7
BRANCH   1  14
ATOM     14  C   UNL     1      43.719   5.128  10.540  0.00  0.00    +0.000 C 
BRANCH  14  15
ATOM     15  C   UNL     1      44.631   5.960  11.393  0.00  0.00    +0.000 A 
ATOM     16  C   UNL     1      44.515   7.341  11.430  0.00  0.00    +0.000 A 
ATOM     17  N   UNL     1      45.240   8.133  12.242  0.00  0.00    +0.000 NA
ATOM     18  C   UNL     1      46.126   7.509  13.061  0.00  0.00    +0.000 A 
ATOM     19  C   UNL     1      46.361   6.131  13.120  0.00  0.00    +0.000 A 
ATOM     20  C   UNL     1      45.584   5.369  12.236  0.00  0.00    +0.000 A 
BRANCH  19  21
ATOM     21  N   UNL     1      47.277   5.560  13.972  0.00  0.00    +0.000 N 
ATOM     22  C   UNL     1      47.223   4.146  14.379  0.00  0.00    +0.000 C 
ATOM     23  C   UNL     1      47.336   4.046  15.907  0.00  0.00    +0.000 C 
ATOM     24  O   UNL     1      48.515   4.712  16.393  0.00  0.00    +0.000 OA
ATOM     25  C   UNL     1      48.493   6.102  16.026  0.00  0.00    +0.000 C 
ATOM     26  C   UNL     1      48.442   6.286  14.499  0.00  0.00    +0.000 C 
ENDBRANCH  19  21
ENDBRANCH  14  15
ENDBRANCH   1  14
TORSDOF 5
ENDMDL
MODEL 3
REMARK VINA RESULT:    -7.078      4.293      8.060
REMARK INTER + INTRA:          -9.779
REMARK INTER:                  -9.095
REMARK INTRA:                  -0.685
REMARK UNBOUND:                -0.632
REMARK  Name = 
REMARK  5 active torsions:
REMARK  status: ('A' for Active; 'I' for Inactive)
REMARK    1  A    between atoms: C_2  and  C_4
REMARK    2  A    between atoms: C_8  and  N_9
REMARK    3  A    between atoms: N_9  and  C_10
REMARK    4  A    between atoms: C_10  and  C_11
REMARK    5  A    between atoms: C_15  and  N_16
REMARK                            x       y       z     vdW  Elec       q    Type
REMARK                         _______ _______ _______ _____ _____    ______ ____
ROOT
ATOM      1  N   UNL     1      48.242   6.589  16.182  0.00  0.00    +0.000 N 
ATOM      2  H   UNL     1      47.588   7.306  16.473  0.00  0.00    +0.000 HD
ENDROOT
BRANCH   1   7
ATOM      3  C   UNL     1      49.249   3.461  17.503  0.00  0.00    +0.000 A 
ATOM      4  N   UNL     1      48.962   3.494  18.817  0.00  0.00    +0.000 NA
ATOM      5  C   UNL     1      48.413   4.630  19.252  0.00  0.00    +0.000 A 
ATOM      6  C   UNL     1      48.153   5.704  18.433  0.00  0.00    +0.000 A 
ATOM      7  C   UNL     1      48.466   5.580  17.090  0.00  0.00    +0.000 A 
ATOM      8  N   UNL     1      49.020   4.456  16.606  0.00  0.00    +0.000 NA
BRANCH   3  10
ATOM      9  N   UNL     1      50.908   1.672  17.765  0.00  0.00    +0.000 N 
ATOM     10  C   UNL     1      49.908   2.200  16.986  0.00  0.00    +0.000 C 
ATOM     11  O   UNL     1      49.590   1.644  15.939  0.00  0.00    +0.000 OA
ATOM     12  H   UNL     1      51.346   0.811  17.473  0.00  0.00    +0.000 HD
ATOM     13  H   UNL     1      51.150   2.102  18.651  0.00  0.00    +0.000 HD
ENDBRANCH   3  10
ENDBRANCH   1   7
BRANCH   1  14
ATOM     14  C   UNL     1      48.983   6.736  14.952  0.00  0.00    +0.000 C 
BRANCH  14  15
ATOM     15  C   UNL     1      48.101   6.679  13.740  0.00  0.00    +0.000 A 
ATOM     16  C   UNL     1      48.413   7.393  12.593  0.00  0.00    +0.000 A 
ATOM     17  N   UNL     1      47.714   7.311  11.446  0.00  0.00    +0.000 NA
ATOM     18  C   UNL     1      46.649   6.470  11.446  0.00  0.00    +0.000 A 
ATOM     19  C   UNL     1      46.208   5.702  12.529  0.00  0.00    +0.000 A 
ATOM     20  C   UNL     1      46.970   5.849  13.695  0.00  0.00    +0.000 A 
BRANCH  19  21
ATOM     21  N   UNL     1      45.115   4.869  12.465  0.00  0.00    +0.000 N 
ATOM     22  C   UNL     1      45.211   3.448  12.093  0.00  0.00    +0.000 C 
ATOM     23  C   UNL     1      44.177   3.131  11.002  0.00  0.00    +0.000 C 
ATOM     24  O   UNL     1      42.849   3.504  11.410  0.00  0.00    +0.000 OA
ATOM     25  C   UNL     1      42.789   4.911  11.702  0.00  0.00    +0.000 C 
ATOM     26  C   UNL     1      43.758   5.297  12.834  0.00  0.00    +0.000 C 
ENDBRANCH  19  21
ENDBRANCH  14  15
ENDBRANCH   1  14
TORSDOF 5
ENDMDL
MODEL 4
REMARK VINA RESULT:    -7.011      3.285      7.809
REMARK INTER + INTRA:          -9.692
REMARK INTER:                  -9.146
REMARK INTRA:                  -0.546
REMARK UNBOUND:                -0.632
REMARK  Name = 
REMARK  5 active torsions:
REMARK  status: ('A' for Active; 'I' for Inactive)
REMARK    1  A    between atoms: C_2  and  C_4
REMARK    2  A    between atoms: C_8  and  N_9
REMARK    3  A    between atoms: N_9  and  C_10
REMARK    4  A    between atoms: C_10  and  C_11
REMARK    5  A    between atoms: C_15  and  N_16
REMARK                            x       y       z     vdW  Elec       q    Type
REMARK                         _______ _______ _______ _____ _____    ______ ____
ROOT
ATOM      1  N   UNL     1      47.326   5.409  13.519  0.00  0.00    +0.000 N 
ATOM      2  H   UNL     1      47.902   4.884  12.872  0.00  0.00    +0.000 HD
ENDROOT
BRANCH   1   7
ATOM      3  C   UNL     1      47.936   4.534  16.897  0.00  0.00    +0.000 A 
ATOM      4  N   UNL     1      48.682   5.526  17.417  0.00  0.00    +0.000 NA
ATOM      5  C   UNL     1      48.981   6.516  16.573  0.00  0.00    +0.000 A 
ATOM      6  C   UNL     1      48.572   6.538  15.260  0.00  0.00    +0.000 A 
ATOM      7  C   UNL     1      47.795   5.484  14.811  0.00  0.00    +0.000 A 
ATOM      8  N   UNL     1      47.468   4.465  15.623  0.00  0.00    +0.000 NA
BRANCH   3  10
ATOM      9  N   UNL     1      48.445   3.207  18.898  0.00  0.00    +0.000 N 
ATOM     10  C   UNL     1      47.611   3.378  17.819  0.00  0.00    +0.000 C 
ATOM     11  O   UNL     1      46.661   2.620  17.652  0.00  0.00    +0.000 OA
ATOM     12  H   UNL     1      48.239   2.470  19.555  0.00  0.00    +0.000 HD
ATOM     13  H   UNL     1      49.208   3.853  19.065  0.00  0.00    +0.000 HD
ENDBRANCH   3  10
ENDBRANCH   1   7
BRANCH   1  14
ATOM     14  C   UNL     1      46.032   5.899  13.110  0.00  0.00    +0.000 C 
BRANCH  14  15
ATOM     15  C   UNL     1      45.213   4.850  12.416  0.00  0.00    +0.000 A 
ATOM     16  C   UNL     1      44.059   4.344  12.994  0.00  0.00    +0.000 A 
ATOM     17  N   UNL     1      43.234   3.473  12.383  0.00  0.00    +0.000 NA
ATOM     18  C   UNL     1      43.583   3.089  11.129  0.00  0.00    +0.000 A 
ATOM     19  C   UNL     1      44.722   3.502  10.429  0.00  0.00    +0.000 A 
ATOM     20  C   UNL     1      45.544   4.395  11.131  0.00  0.00    +0.000 A 
BRANCH  19  21
ATOM     21  N   UNL     1      45.021   3.072   9.158  0.00  0.00    +0.000 N 
ATOM     22  C   UNL     1      45.104   1.648   8.792  0.00  0.00    +0.000 C 
ATOM     23  C   UNL     1      46.417   1.386   8.039  0.00  0.00    +0.000 C 
ATOM     24  O   UNL     1      46.555   2.254   6.901  0.00  0.00    +0.000 OA
ATOM     25  C   UNL     1      46.532   3.631   7.314  0.00  0.00    +0.000 C 
ATOM     26  C   UNL     1      45.215   3.989   8.025  0.00  0.00    +0.000 C 
ENDBRANCH  19  21
ENDBRANCH  14  15
ENDBRANCH   1  14
TORSDOF 5
ENDMDL
MODEL 5
REMARK VINA RESULT:    -6.862      3.456      7.724
REMARK INTER + INTRA:          -9.501
REMARK INTER:                  -8.780
REMARK INTRA:                  -0.721
REMARK UNBOUND:                -0.632
REMARK  Name = 
REMARK  5 active torsions:
REMARK  status: ('A' for Active; 'I' for Inactive)
REMARK    1  A    between atoms: C_2  and  C_4
REMARK    2  A    between atoms: C_8  and  N_9
REMARK    3  A    between atoms: N_9  and  C_10
REMARK    4  A    between atoms: C_10  and  C_11
REMARK    5  A    between atoms: C_15  and  N_16
REMARK                            x       y       z     vdW  Elec       q    Type
REMARK                         _______ _______ _______ _____ _____    ______ ____
ROOT
ATOM      1  N   UNL     1      48.929   7.429  14.518  0.00  0.00    +0.000 N 
ATOM      2  H   UNL     1      49.342   8.349  14.610  0.00  0.00    +0.000 HD
ENDROOT
BRANCH   1   7
ATOM      3  C   UNL     1      48.230   4.758  16.738  0.00  0.00    +0.000 A 
ATOM      4  N   UNL     1      48.325   5.263  17.981  0.00  0.00    +0.000 NA
ATOM      5  C   UNL     1      48.643   6.558  18.047  0.00  0.00    +0.000 A 
ATOM      6  C   UNL     1      48.867   7.338  16.936  0.00  0.00    +0.000 A 
ATOM      7  C   UNL     1      48.734   6.740  15.694  0.00  0.00    +0.000 A 
ATOM      8  N   UNL     1      48.415   5.441  15.577  0.00  0.00    +0.000 NA
BRANCH   3  10
ATOM      9  N   UNL     1      47.007   2.788  17.542  0.00  0.00    +0.000 N 
ATOM     10  C   UNL     1      47.908   3.283  16.630  0.00  0.00    +0.000 C 
ATOM     11  O   UNL     1      48.395   2.538  15.784  0.00  0.00    +0.000 OA
ATOM     12  H   UNL     1      46.739   1.818  17.479  0.00  0.00    +0.000 HD
ATOM     13  H   UNL     1      46.570   3.405  18.218  0.00  0.00    +0.000 HD
ENDBRANCH   3  10
ENDBRANCH   1   7
BRANCH   1  14
ATOM     14  C   UNL     1      48.714   6.854  13.212  0.00  0.00    +0.000 C 
BRANCH  14  15
ATOM     15  C   UNL     1      47.309   7.050  12.722  0.00  0.00    +0.000 A 
ATOM     16  C   UNL     1      46.707   8.299  12.754  0.00  0.00    +0.000 A 
ATOM     17  N   UNL     1      45.488   8.556  12.246  0.00  0.00    +0.000 NA
ATOM     18  C   UNL     1      44.838   7.510  11.675  0.00  0.00    +0.000 A 
ATOM     19  C   UNL     1      45.313   6.196  11.585  0.00  0.00    +0.000 A 
ATOM     20  C   UNL     1      46.580   5.997  12.149  0.00  0.00    +0.000 A 
BRANCH  19  21
ATOM     21  N   UNL     1      44.602   5.178  10.995  0.00  0.00    +0.000 N 
ATOM     22  C   UNL     1      43.303   4.708  11.504  0.00  0.00    +0.000 C 
ATOM     23  C   UNL     1      43.325   3.179  11.639  0.00  0.00    +0.000 C 
ATOM     24  O   UNL     1      43.691   2.546  10.401  0.00  0.00    +0.000 OA
ATOM     25  C   UNL     1      44.993   2.986   9.977  0.00  0.00    +0.000 C 
ATOM     26  C   UNL     1      45.033   4.510   9.759  0.00  0.00    +0.000 C 
ENDBRANCH  19  21
ENDBRANCH  14  15
ENDBRANCH   1  14
TORSDOF 5
ENDMDL
MODEL 6
REMARK VINA RESULT:    -6.716      3.183      7.865
REMARK INTER + INTRA:          -9.312
REMARK INTER:                  -8.858
REMARK INTRA:                  -0.454
REMARK UNBOUND:                -0.632
REMARK  Name = 
REMARK  5 active torsions:
REMARK  status: ('A' for Active; 'I' for Inactive)
REMARK    1  A    between atoms: C_2  and  C_4
REMARK    2  A    between atoms: C_8  and  N_9
REMARK    3  A    between atoms: N_9  and  C_10
REMARK    4  A    between atoms: C_10  and  C_11
REMARK    5  A    between atoms: C_15  and  N_16
REMARK                            x       y       z     vdW  Elec       q    Type
REMARK                         _______ _______ _______ _____ _____    ______ ____
ROOT
ATOM      1  N   UNL     1      46.703   3.916  14.711  0.00  0.00    +0.000 N 
ATOM      2  H   UNL     1      46.330   2.990  14.538  0.00  0.00    +0.000 HD
ENDROOT
BRANCH   1   7
ATOM      3  C   UNL     1      49.023   5.241  17.036  0.00  0.00    +0.000 A 
ATOM      4  N   UNL     1      48.987   4.433  18.112  0.00  0.00    +0.000 NA
ATOM      5  C   UNL     1      48.133   3.410  18.027  0.00  0.00    +0.000 A 
ATOM      6  C   UNL     1      47.335   3.182  16.929  0.00  0.00    +0.000 A 
ATOM      7  C   UNL     1      47.448   4.054  15.860  0.00  0.00    +0.000 A 
ATOM      8  N   UNL     1      48.293   5.098  15.900  0.00  0.00    +0.000 NA
BRANCH   3  10
ATOM      9  N   UNL     1      51.219   6.253  16.610  0.00  0.00    +0.000 N 
ATOM     10  C   UNL     1      49.954   6.432  17.117  0.00  0.00    +0.000 C 
ATOM     11  O   UNL     1      49.633   7.517  17.593  0.00  0.00    +0.000 OA
ATOM     12  H   UNL     1      51.856   7.035  16.612  0.00  0.00    +0.000 HD
ATOM     13  H   UNL     1      51.479   5.372  16.179  0.00  0.00    +0.000 HD
ENDBRANCH   3  10
ENDBRANCH   1   7
BRANCH   1  14
ATOM     14  C   UNL     1      46.329   5.022  13.864  0.00  0.00    +0.000 C 
BRANCH  14  15
ATOM     15  C   UNL     1      45.232   4.666  12.905  0.00  0.00    +0.000 A 
ATOM     16  C   UNL     1      43.904   4.932  13.206  0.00  0.00    +0.000 A 
ATOM     17  N   UNL     1      42.885   4.721  12.351  0.00  0.00    +0.000 NA
ATOM     18  C   UNL     1      43.213   4.220  11.132  0.00  0.00    +0.000 A 
ATOM     19  C   UNL     1      44.502   3.891  10.698  0.00  0.00    +0.000 A 
ATOM     20  C   UNL     1      45.511   4.119  11.643  0.00  0.00    +0.000 A 
BRANCH  19  21
ATOM     21  N   UNL     1      44.767   3.383   9.448  0.00  0.00    +0.000 N 
ATOM     22  C   UNL     1      44.716   1.944   9.140  0.00  0.00    +0.000 C 
ATOM     23  C   UNL     1      46.003   1.527   8.412  0.00  0.00    +0.000 C 
ATOM     24  O   UNL     1      46.230   2.331   7.242  0.00  0.00    +0.000 OA
ATOM     25  C   UNL     1      46.337   3.720   7.599  0.00  0.00    +0.000 C 
ATOM     26  C   UNL     1      45.054   4.231   8.282  0.00  0.00    +0.000 C 
ENDBRANCH  19  21
ENDBRANCH  14  15
ENDBRANCH   1  14
TORSDOF 5
ENDMDL
MODEL 7
REMARK VINA RESULT:    -6.688      2.202      2.793
REMARK INTER + INTRA:          -9.275
REMARK INTER:                  -8.747
REMARK INTRA:                  -0.529
REMARK UNBOUND:                -0.632
REMARK  Name = 
REMARK  5 active torsions:
REMARK  status: ('A' for Active; 'I' for Inactive)
REMARK    1  A    between atoms: C_2  and  C_4
REMARK    2  A    between atoms: C_8  and  N_9
REMARK    3  A    between atoms: N_9  and  C_10
REMARK    4  A    between atoms: C_10  and  C_11
REMARK    5  A    between atoms: C_15  and  N_16
REMARK                            x       y       z     vdW  Elec       q    Type
REMARK                         _______ _______ _______ _____ _____    ______ ____
ROOT
ATOM      1  N   UNL     1      44.731   5.103   9.523  0.00  0.00    +0.000 N 
ATOM      2  H   UNL     1      44.817   5.858   8.852  0.00  0.00    +0.000 HD
ENDROOT
BRANCH   1   7
ATOM      3  C   UNL     1      46.377   2.585   7.654  0.00  0.00    +0.000 A 
ATOM      4  N   UNL     1      45.884   1.410   8.084  0.00  0.00    +0.000 NA
ATOM      5  C   UNL     1      44.964   1.496   9.047  0.00  0.00    +0.000 A 
ATOM      6  C   UNL     1      44.539   2.691   9.580  0.00  0.00    +0.000 A 
ATOM      7  C   UNL     1      45.088   3.855   9.068  0.00  0.00    +0.000 A 
ATOM      8  N   UNL     1      46.017   3.818   8.098  0.00  0.00    +0.000 NA
BRANCH   3  10
ATOM      9  N   UNL     1      47.289   3.354   5.508  0.00  0.00    +0.000 N 
ATOM     10  C   UNL     1      47.450   2.519   6.588  0.00  0.00    +0.000 C 
ATOM     11  O   UNL     1      48.429   1.782   6.651  0.00  0.00    +0.000 OA
ATOM     12  H   UNL     1      48.002   3.365   4.795  0.00  0.00    +0.000 HD
ATOM     13  H   UNL     1      46.504   3.995   5.468  0.00  0.00    +0.000 HD
ENDBRANCH   3  10
ENDBRANCH   1   7
BRANCH   1  14
ATOM     14  C   UNL     1      44.125   5.341  10.811  0.00  0.00    +0.000 C 
BRANCH  14  15
ATOM     15  C   UNL     1      44.843   6.397  11.598  0.00  0.00    +0.000 A 
ATOM     16  C   UNL     1      45.804   6.058  12.539  0.00  0.00    +0.000 A 
ATOM     17  N   UNL     1      46.547   6.958  13.210  0.00  0.00    +0.000 NA
ATOM     18  C   UNL     1      46.317   8.265  12.922  0.00  0.00    +0.000 A 
ATOM     19  C   UNL     1      45.373   8.753  12.011  0.00  0.00    +0.000 A 
ATOM     20  C   UNL     1      44.624   7.762  11.363  0.00  0.00    +0.000 A 
BRANCH  19  21
ATOM     21  N   UNL     1      45.187  10.093  11.767  0.00  0.00    +0.000 N 
ATOM     22  C   UNL     1      43.864  10.684  11.500  0.00  0.00    +0.000 C 
ATOM     23  C   UNL     1      43.934  11.554  10.237  0.00  0.00    +0.000 C 
ATOM     24  O   UNL     1      44.968  12.548  10.339  0.00  0.00    +0.000 OA
ATOM     25  C   UNL     1      46.249  11.923  10.535  0.00  0.00    +0.000 C 
ATOM     26  C   UNL     1      46.277  11.078  11.821  0.00  0.00    +0.000 C 
ENDBRANCH  19  21
ENDBRANCH  14  15
ENDBRANCH   1  14
TORSDOF 5
ENDMDL
MODEL 8
REMARK VINA RESULT:    -6.503      3.880      7.573
REMARK INTER + INTRA:          -9.037
REMARK INTER:                  -8.329
REMARK INTRA:                  -0.708
REMARK UNBOUND:                -0.632
REMARK  Name = 
REMARK  5 active torsions:
REMARK  status: ('A' for Active; 'I' for Inactive)
REMARK    1  A    between atoms: C_2  and  C_4
REMARK    2  A    between atoms: C_8  and  N_9
REMARK    3  A    between atoms: N_9  and  C_10
REMARK    4  A    between atoms: C_10  and  C_11
REMARK    5  A    between atoms: C_15  and  N_16
REMARK                            x       y       z     vdW  Elec       q    Type
REMARK                         _______ _______ _______ _____ _____    ______ ____
ROOT
ATOM      1  N   UNL     1      46.547   9.727  12.906  0.00  0.00    +0.000 N 
ATOM      2  H   UNL     1      46.270   9.769  13.880  0.00  0.00    +0.000 HD
ENDROOT
BRANCH   1   7
ATOM      3  C   UNL     1      43.670  10.989  11.270  0.00  0.00    +0.000 A 
ATOM      4  N   UNL     1      44.112  11.847  10.333  0.00  0.00    +0.000 NA
ATOM      5  C   UNL     1      45.438  11.992  10.274  0.00  0.00    +0.000 A 
ATOM      6  C   UNL     1      46.308  11.326  11.105  0.00  0.00    +0.000 A 
ATOM      7  C   UNL     1      45.768  10.449  12.031  0.00  0.00    +0.000 A 
ATOM      8  N   UNL     1      44.441  10.270  12.128  0.00  0.00    +0.000 NA
BRANCH   3  10
ATOM      9  N   UNL     1      41.586  11.364  12.512  0.00  0.00    +0.000 N 
ATOM     10  C   UNL     1      42.169  10.831  11.388  0.00  0.00    +0.000 C 
ATOM     11  O   UNL     1      41.474  10.272  10.544  0.00  0.00    +0.000 OA
ATOM     12  H   UNL     1      40.583  11.311  12.608  0.00  0.00    +0.000 HD
ATOM     13  H   UNL     1      42.148  11.862  13.194  0.00  0.00    +0.000 HD
ENDBRANCH   3  10
ENDBRANCH   1   7
BRANCH   1  14
ATOM     14  C   UNL     1      47.601   8.835  12.488  0.00  0.00    +0.000 C 
BRANCH  14  15
ATOM     15  C   UNL     1      47.403   7.435  12.989  0.00  0.00    +0.000 A 
ATOM     16  C   UNL     1      48.268   6.878  13.919  0.00  0.00    +0.000 A 
ATOM     17  N   UNL     1      48.092   5.665  14.475  0.00  0.00    +0.000 NA
ATOM     18  C   UNL     1      46.991   4.974  14.081  0.00  0.00    +0.000 A 
ATOM     19  C   UNL     1      46.044   5.402  13.144  0.00  0.00    +0.000 A 
ATOM     20  C   UNL     1      46.299   6.665  12.593  0.00  0.00    +0.000 A 
BRANCH  19  21
ATOM     21  N   UNL     1      44.950   4.651  12.785  0.00  0.00    +0.000 N 
ATOM     22  C   UNL     1      45.058   3.294  12.221  0.00  0.00    +0.000 C 
ATOM     23  C   UNL     1      44.207   3.197  10.947  0.00  0.00    +0.000 C 
ATOM     24  O   UNL     1      42.843   3.582  11.193  0.00  0.00    +0.000 OA
ATOM     25  C   UNL     1      42.783   4.933  11.680  0.00  0.00    +0.000 C 
ATOM     26  C   UNL     1      43.565   5.098  12.996  0.00  0.00    +0.000 C 
ENDBRANCH  19  21
ENDBRANCH  14  15
ENDBRANCH   1  14
TORSDOF 5
ENDMDL
MODEL 9
REMARK VINA RESULT:    -6.489      3.132      4.775
REMARK INTER + INTRA:          -9.018
REMARK INTER:                  -8.345
REMARK INTRA:                  -0.673
REMARK UNBOUND:                -0.632
REMARK  Name = 
REMARK  5 active torsions:
REMARK  status: ('A' for Active; 'I' for Inactive)
REMARK    1  A    between atoms: C_2  and  C_4
REMARK    2  A    between atoms: C_8  and  N_9
REMARK    3  A    between atoms: N_9  and  C_10
REMARK    4  A    between atoms: C_10  and  C_11
REMARK    5  A    between atoms: C_15  and  N_16
REMARK                            x       y       z     vdW  Elec       q    Type
REMARK                         _______ _______ _______ _____ _____    ______ ____
ROOT
ATOM      1  N   UNL     1      45.240   6.259  11.998  0.00  0.00    +0.000 N 
ATOM      2  H   UNL     1      44.753   6.835  12.674  0.00  0.00    +0.000 HD
ENDROOT
BRANCH   1   7
ATOM      3  C   UNL     1      44.379   3.314  10.229  0.00  0.00    +0.000 A 
ATOM      4  N   UNL     1      43.533   2.629  11.020  0.00  0.00    +0.000 NA
ATOM      5  C   UNL     1      43.262   3.203  12.195  0.00  0.00    +0.000 A 
ATOM      6  C   UNL     1      43.801   4.405  12.590  0.00  0.00    +0.000 A 
ATOM      7  C   UNL     1      44.651   5.050  11.708  0.00  0.00    +0.000 A 
ATOM      8  N   UNL     1      44.954   4.512  10.515  0.00  0.00    +0.000 NA
BRANCH   3  10
ATOM      9  N   UNL     1      44.438   3.395   7.777  0.00  0.00    +0.000 N 
ATOM     10  C   UNL     1      44.737   2.672   8.906  0.00  0.00    +0.000 C 
ATOM     11  O   UNL     1      45.273   1.572   8.804  0.00  0.00    +0.000 OA
ATOM     12  H   UNL     1      44.695   3.017   6.878  0.00  0.00    +0.000 HD
ATOM     13  H   UNL     1      44.032   4.321   7.853  0.00  0.00    +0.000 HD
ENDBRANCH   3  10
ENDBRANCH   1   7
BRANCH   1  14
ATOM     14  C   UNL     1      46.541   6.651  11.512  0.00  0.00    +0.000 C 
BRANCH  14  15
ATOM     15  C   UNL     1      47.563   6.738  12.607  0.00  0.00    +0.000 A 
ATOM     16  C   UNL     1      48.626   7.625  12.525  0.00  0.00    +0.000 A 
ATOM     17  N   UNL     1      49.521   7.815  13.513  0.00  0.00    +0.000 NA
ATOM     18  C   UNL     1      49.340   7.081  14.641  0.00  0.00    +0.000 A 
ATOM     19  C   UNL     1      48.326   6.142  14.858  0.00  0.00    +0.000 A 
ATOM     20  C   UNL     1      47.442   5.982  13.783  0.00  0.00    +0.000 A 
BRANCH  19  21
ATOM     21  N   UNL     1      48.200   5.427  16.026  0.00  0.00    +0.000 N 
ATOM     22  C   UNL     1      48.900   5.792  17.269  0.00  0.00    +0.000 C 
ATOM     23  C   UNL     1      49.611   4.558  17.842  0.00  0.00    +0.000 C 
ATOM     24  O   UNL     1      48.698   3.462  18.027  0.00  0.00    +0.000 OA
ATOM     25  C   UNL     1      48.088   3.099  16.776  0.00  0.00    +0.000 C 
ATOM     26  C   UNL     1      47.300   4.273  16.167  0.00  0.00    +0.000 C 
ENDBRANCH  19  21
ENDBRANCH  14  15
ENDBRANCH   1  14
TORSDOF 5
ENDMDL
