MODEL 1
REMARK VINA RESULT:    -7.672      0.000      0.000
REMARK INTER + INTRA:         -13.508
REMARK INTER:                 -11.709
REMARK INTRA:                  -1.799
REMARK UNBOUND:                -1.799
REMARK  Name = 
REMARK  10 active torsions:
REMARK  status: ('A' for Active; 'I' for Inactive)
REMARK    1  A    between atoms: C_1  and  C_2
REMARK    2  A    between atoms: C_2  and  C_3
REMARK    3  A    between atoms: C_3  and  C_4
REMARK    4  A    between atoms: C_3  and  N_11
REMARK    5  A    between atoms: C_4  and  C_5
REMARK    6  A    between atoms: N_11  and  C_12
REMARK    7  A    between atoms: C_12  and  C_13
REMARK    8  A    between atoms: C_16  and  C_17
REMARK    9  A    between atoms: C_17  and  N_18
REMARK   10  A    between atoms: C_19  and  C_21
REMARK                            x       y       z     vdW  Elec       q    Type
REMARK                         _______ _______ _______ _____ _____    ______ ____
ROOT
ATOM      1  C   UNL     1      45.691   6.725  11.103  0.00  0.00    +0.000 A 
ATOM      2  C   UNL     1      47.049   6.476  11.351  0.00  0.00    +0.000 A 
ATOM      3  C   UNL     1      47.713   7.116  12.402  0.00  0.00    +0.000 A 
ATOM      4  C   UNL     1      47.035   8.022  13.224  0.00  0.00    +0.000 A 
ATOM      5  C   UNL     1      45.689   8.302  12.957  0.00  0.00    +0.000 A 
ATOM      6  C   UNL     1      45.022   7.651  11.916  0.00  0.00    +0.000 A 
ENDROOT
BRANCH   1   7
ATOM      7  C   UNL     1      44.958   6.035   9.972  0.00  0.00    +0.000 C 
BRANCH   7   8
ATOM      8  N   UNL     1      44.120   4.939  10.460  0.00  0.00    +0.000 NA
ATOM      9  H   UNL     1      43.683   5.222  11.333  0.00  0.00    +0.000 HD
BRANCH   8  10
ATOM     10  C   UNL     1      44.833   3.663  10.649  0.00  0.00    +0.000 C 
BRANCH  10  12
ATOM     11  C   UNL     1      43.604   4.109  12.882  0.00  0.00    +0.000 C 
ATOM     12  C   UNL     1      44.579   3.228  12.112  0.00  0.00    +0.000 C 
ENDBRANCH  10  12
BRANCH  10  13
ATOM     13  C   UNL     1      44.512   2.558   9.605  0.00  0.00    +0.000 C 
BRANCH  13  14
ATOM     14  C   UNL     1      45.509   2.375   8.485  0.00  0.00    +0.000 A 
ATOM     15  C   UNL     1      45.750   3.400   7.573  0.00  0.00    +0.000 A 
ATOM     16  C   UNL     1      46.666   3.195   6.546  0.00  0.00    +0.000 A 
ATOM     17  C   UNL     1      47.319   1.974   6.452  0.00  0.00    +0.000 A 
ATOM     18  C   UNL     1      47.019   1.004   7.391  0.00  0.00    +0.000 A 
ATOM     19  N   UNL     1      46.120   1.169   8.385  0.00  0.00    +0.000 NA
ENDBRANCH  13  14
ENDBRANCH  10  13
ENDBRANCH   8  10
ENDBRANCH   7   8
ENDBRANCH   1   7
BRANCH   4  20
ATOM     20  C   UNL     1      47.751   8.724  14.347  0.00  0.00    +0.000 C 
BRANCH  20  21
ATOM     21  N   UNL     1      47.989   7.825  15.448  0.00  0.00    +0.000 N 
ATOM     22  C   UNL     1      49.209   7.223  15.618  0.00  0.00    +0.000 C 
ATOM     23  O   UNL     1      50.159   7.462  14.877  0.00  0.00    +0.000 OA
ATOM     24  H   UNL     1      47.173   7.458  15.928  0.00  0.00    +0.000 HD
BRANCH  22  25
ATOM     25  C   UNL     1      49.345   6.321  16.768  0.00  0.00    +0.000 A 
ATOM     26  C   UNL     1      50.273   6.612  17.759  0.00  0.00    +0.000 A 
ATOM     27  S   UNL     1      50.277   5.493  19.044  0.00  0.00    +0.000 S 
ATOM     28  C   UNL     1      49.073   4.551  18.298  0.00  0.00    +0.000 A 
ATOM     29  N   UNL     1      48.627   3.405  18.880  0.00  0.00    +0.000 NA
ATOM     30  C   UNL     1      47.735   2.771  18.193  0.00  0.00    +0.000 A 
ATOM     31  N   UNL     1      47.242   3.186  16.983  0.00  0.00    +0.000 N 
ATOM     32  C   UNL     1      47.648   4.348  16.368  0.00  0.00    +0.000 A 
ATOM     33  O   UNL     1      47.165   4.703  15.298  0.00  0.00    +0.000 OA
ATOM     34  C   UNL     1      48.660   5.092  17.095  0.00  0.00    +0.000 A 
ATOM     35  H   UNL     1      46.540   2.648  16.496  0.00  0.00    +0.000 HD
ENDBRANCH  22  25
ENDBRANCH  20  21
ENDBRANCH   4  20
TORSDOF 9
ENDMDL
MODEL 2
REMARK VINA RESULT:    -7.474      2.620      3.231
REMARK INTER + INTRA:         -13.205
REMARK INTER:                 -11.826
REMARK INTRA:                  -1.379
REMARK UNBOUND:                -1.799
REMARK  Name = 
REMARK  10 active torsions:
REMARK  status: ('A' for Active; 'I' for Inactive)
REMARK    1  A    between atoms: C_1  and  C_2
REMARK    2  A    between atoms: C_2  and  C_3
REMARK    3  A    between atoms: C_3  and  C_4
REMARK    4  A    between atoms: C_3  and  N_11
REMARK    5  A    between atoms: C_4  and  C_5
REMARK    6  A    between atoms: N_11  and  C_12
REMARK    7  A    between atoms: C_12  and  C_13
REMARK    8  A    between atoms: C_16  and  C_17
REMARK    9  A    between atoms: C_17  and  N_18
REMARK   10  A    between atoms: C_19  and  C_21
REMARK                            x       y       z     vdW  Elec       q    Type
REMARK                         _______ _______ _______ _____ _____    ______ ____
ROOT
ATOM      1  C   UNL     1      46.410   4.416  13.477  0.00  0.00    +0.000 A 
ATOM      2  C   UNL     1      46.890   5.692  13.148  0.00  0.00    +0.000 A 
ATOM      3  C   UNL     1      47.734   6.385  14.021  0.00  0.00    +0.000 A 
ATOM      4  C   UNL     1      48.113   5.819  15.243  0.00  0.00    +0.000 A 
ATOM      5  C   UNL     1      47.606   4.561  15.592  0.00  0.00    +0.000 A 
ATOM      6  C   UNL     1      46.774   3.862  14.714  0.00  0.00    +0.000 A 
ENDROOT
BRANCH   1   7
ATOM      7  C   UNL     1      45.499   3.652  12.539  0.00  0.00    +0.000 C 
BRANCH   7   8
ATOM      8  N   UNL     1      45.495   4.233  11.196  0.00  0.00    +0.000 NA
ATOM      9  H   UNL     1      45.646   5.236  11.271  0.00  0.00    +0.000 HD
BRANCH   8  10
ATOM     10  C   UNL     1      44.270   3.969  10.420  0.00  0.00    +0.000 C 
BRANCH  10  12
ATOM     11  C   UNL     1      43.625   6.305  11.329  0.00  0.00    +0.000 C 
ATOM     12  C   UNL     1      43.171   4.887  11.006  0.00  0.00    +0.000 C 
ENDBRANCH  10  12
BRANCH  10  13
ATOM     13  C   UNL     1      44.419   4.079   8.878  0.00  0.00    +0.000 C 
BRANCH  13  14
ATOM     14  C   UNL     1      45.462   3.197   8.234  0.00  0.00    +0.000 A 
ATOM     15  C   UNL     1      46.298   3.694   7.237  0.00  0.00    +0.000 A 
ATOM     16  C   UNL     1      47.241   2.851   6.656  0.00  0.00    +0.000 A 
ATOM     17  C   UNL     1      47.327   1.533   7.083  0.00  0.00    +0.000 A 
ATOM     18  C   UNL     1      46.457   1.112   8.072  0.00  0.00    +0.000 A 
ATOM     19  N   UNL     1      45.520   1.903   8.638  0.00  0.00    +0.000 NA
ENDBRANCH  13  14
ENDBRANCH  10  13
ENDBRANCH   8  10
ENDBRANCH   7   8
ENDBRANCH   1   7
BRANCH   4  20
ATOM     20  C   UNL     1      49.010   6.568  16.191  0.00  0.00    +0.000 C 
BRANCH  20  21
ATOM     21  N   UNL     1      50.086   5.730  16.655  0.00  0.00    +0.000 N 
ATOM     22  C   UNL     1      50.212   5.410  17.981  0.00  0.00    +0.000 C 
ATOM     23  O   UNL     1      49.392   5.777  18.818  0.00  0.00    +0.000 OA
ATOM     24  H   UNL     1      50.874   5.603  16.027  0.00  0.00    +0.000 HD
BRANCH  22  25
ATOM     25  C   UNL     1      51.347   4.553  18.348  0.00  0.00    +0.000 A 
ATOM     26  C   UNL     1      52.383   5.079  19.108  0.00  0.00    +0.000 A 
ATOM     27  S   UNL     1      53.601   3.948  19.485  0.00  0.00    +0.000 S 
ATOM     28  C   UNL     1      52.811   2.725  18.602  0.00  0.00    +0.000 A 
ATOM     29  N   UNL     1      53.353   1.482  18.499  0.00  0.00    +0.000 NA
ATOM     30  C   UNL     1      52.667   0.660  17.777  0.00  0.00    +0.000 A 
ATOM     31  N   UNL     1      51.483   0.967  17.157  0.00  0.00    +0.000 N 
ATOM     32  C   UNL     1      50.888   2.204  17.252  0.00  0.00    +0.000 A 
ATOM     33  O   UNL     1      49.813   2.435  16.707  0.00  0.00    +0.000 OA
ATOM     34  C   UNL     1      51.626   3.169  18.045  0.00  0.00    +0.000 A 
ATOM     35  H   UNL     1      50.990   0.278  16.608  0.00  0.00    +0.000 HD
ENDBRANCH  22  25
ENDBRANCH  20  21
ENDBRANCH   4  20
TORSDOF 9
ENDMDL
MODEL 3
REMARK VINA RESULT:    -7.418      0.934      1.284
REMARK INTER + INTRA:         -13.120
REMARK INTER:                 -11.518
REMARK INTRA:                  -1.601
REMARK UNBOUND:                -1.799
REMARK  Name = 
REMARK  10 active torsions:
REMARK  status: ('A' for Active; 'I' for Inactive)
REMARK    1  A    between atoms: C_1  and  C_2
REMARK    2  A    between atoms: C_2  and  C_3
REMARK    3  A    between atoms: C_3  and  C_4
REMARK    4  A    between atoms: C_3  and  N_11
REMARK    5  A    between atoms: C_4  and  C_5
REMARK    6  A    between atoms: N_11  and  C_12
REMARK    7  A    between atoms: C_12  and  C_13
REMARK    8  A    between atoms: C_16  and  C_17
REMARK    9  A    between atoms: C_17  and  N_18
REMARK   10  A    between atoms: C_19  and  C_21
REMARK                            x       y       z     vdW  Elec       q    Type
REMARK                         _______ _______ _______ _____ _____    ______ ____
ROOT
ATOM      1  C   UNL     1      46.281   6.712  11.410  0.00  0.00    +0.000 A 
ATOM      2  C   UNL     1      45.453   7.627  12.076  0.00  0.00    +0.000 A 
ATOM      3  C   UNL     1      45.950   8.410  13.124  0.00  0.00    +0.000 A 
ATOM      4  C   UNL     1      47.283   8.291  13.529  0.00  0.00    +0.000 A 
ATOM      5  C   UNL     1      48.103   7.352  12.892  0.00  0.00    +0.000 A 
ATOM      6  C   UNL     1      47.611   6.580  11.836  0.00  0.00    +0.000 A 
ENDROOT
BRANCH   1   7
ATOM      7  C   UNL     1      45.759   5.861  10.271  0.00  0.00    +0.000 C 
BRANCH   7   8
ATOM      8  N   UNL     1      44.608   5.056  10.682  0.00  0.00    +0.000 NA
ATOM      9  H   UNL     1      44.255   5.413  11.566  0.00  0.00    +0.000 HD
BRANCH   8  10
ATOM     10  C   UNL     1      44.885   3.613  10.801  0.00  0.00    +0.000 C 
BRANCH  10  12
ATOM     11  C   UNL     1      43.447   4.205  12.870  0.00  0.00    +0.000 C 
ATOM     12  C   UNL     1      44.307   3.164  12.165  0.00  0.00    +0.000 C 
ENDBRANCH  10  12
BRANCH  10  13
ATOM     13  C   UNL     1      44.410   2.741   9.606  0.00  0.00    +0.000 C 
BRANCH  13  14
ATOM     14  C   UNL     1      45.419   2.487   8.511  0.00  0.00    +0.000 A 
ATOM     15  C   UNL     1      45.688   3.460   7.551  0.00  0.00    +0.000 A 
ATOM     16  C   UNL     1      46.616   3.189   6.549  0.00  0.00    +0.000 A 
ATOM     17  C   UNL     1      47.251   1.955   6.528  0.00  0.00    +0.000 A 
ATOM     18  C   UNL     1      46.925   1.039   7.512  0.00  0.00    +0.000 A 
ATOM     19  N   UNL     1      46.014   1.269   8.483  0.00  0.00    +0.000 NA
ENDBRANCH  13  14
ENDBRANCH  10  13
ENDBRANCH   8  10
ENDBRANCH   7   8
ENDBRANCH   1   7
BRANCH   4  20
ATOM     20  C   UNL     1      47.817   9.122  14.665  0.00  0.00    +0.000 C 
BRANCH  20  21
ATOM     21  N   UNL     1      47.989   8.324  15.852  0.00  0.00    +0.000 N 
ATOM     22  C   UNL     1      49.203   8.247  16.483  0.00  0.00    +0.000 C 
ATOM     23  O   UNL     1      50.176   8.891  16.099  0.00  0.00    +0.000 OA
ATOM     24  H   UNL     1      47.272   7.632  16.050  0.00  0.00    +0.000 HD
BRANCH  22  25
ATOM     25  C   UNL     1      49.271   7.402  17.682  0.00  0.00    +0.000 A 
ATOM     26  C   UNL     1      49.708   7.949  18.881  0.00  0.00    +0.000 A 
ATOM     27  S   UNL     1      49.689   6.851  20.184  0.00  0.00    +0.000 S 
ATOM     28  C   UNL     1      49.144   5.589  19.181  0.00  0.00    +0.000 A 
ATOM     29  N   UNL     1      48.943   4.340  19.682  0.00  0.00    +0.000 NA
ATOM     30  C   UNL     1      48.559   3.471  18.807  0.00  0.00    +0.000 A 
ATOM     31  N   UNL     1      48.347   3.741  17.479  0.00  0.00    +0.000 N 
ATOM     32  C   UNL     1      48.517   4.993  16.934  0.00  0.00    +0.000 A 
ATOM     33  O   UNL     1      48.292   5.204  15.747  0.00  0.00    +0.000 OA
ATOM     34  C   UNL     1      48.961   6.005  17.875  0.00  0.00    +0.000 A 
ATOM     35  H   UNL     1      48.042   3.018  16.845  0.00  0.00    +0.000 HD
ENDBRANCH  22  25
ENDBRANCH  20  21
ENDBRANCH   4  20
TORSDOF 9
ENDMDL
MODEL 4
REMARK VINA RESULT:    -6.995      2.332      3.032
REMARK INTER + INTRA:         -12.475
REMARK INTER:                 -11.199
REMARK INTRA:                  -1.276
REMARK UNBOUND:                -1.799
REMARK  Name = 
REMARK  10 active torsions:
REMARK  status: ('A' for Active; 'I' for Inactive)
REMARK    1  A    between atoms: C_1  and  C_2
REMARK    2  A    between atoms: C_2  and  C_3
REMARK    3  A    between atoms: C_3  and  C_4
REMARK    4  A    between atoms: C_3  and  N_11
REMARK    5  A    between atoms: C_4  and  C_5
REMARK    6  A    between atoms: N_11  and  C_12
REMARK    7  A    between atoms: C_12  and  C_13
REMARK    8  A    between atoms: C_16  and  C_17
REMARK    9  A    between atoms: C_17  and  N_18
REMARK   10  A    between atoms: C_19  and  C_21
REMARK                            x       y       z     vdW  Elec       q    Type
REMARK                         _______ _______ _______ _____ _____    ______ ____
ROOT
ATOM      1  C   UNL     1      46.326   7.383  12.278  0.00  0.00    +0.000 A 
ATOM      2  C   UNL     1      47.371   6.460  12.126  0.00  0.00    +0.000 A 
ATOM      3  C   UNL     1      48.510   6.529  12.935  0.00  0.00    +0.000 A 
ATOM      4  C   UNL     1      48.629   7.524  13.910  0.00  0.00    +0.000 A 
ATOM      5  C   UNL     1      47.605   8.471  14.040  0.00  0.00    +0.000 A 
ATOM      6  C   UNL     1      46.461   8.393  13.241  0.00  0.00    +0.000 A 
ENDROOT
BRANCH   1   7
ATOM      7  C   UNL     1      45.085   7.317  11.412  0.00  0.00    +0.000 C 
BRANCH   7   8
ATOM      8  N   UNL     1      45.183   6.259  10.406  0.00  0.00    +0.000 NA
ATOM      9  H   UNL     1      44.865   6.624   9.512  0.00  0.00    +0.000 HD
BRANCH   8  10
ATOM     10  C   UNL     1      44.439   5.030  10.739  0.00  0.00    +0.000 C 
BRANCH  10  12
ATOM     11  C   UNL     1      43.178   4.653  12.968  0.00  0.00    +0.000 C 
ATOM     12  C   UNL     1      43.284   5.455  11.677  0.00  0.00    +0.000 C 
ENDBRANCH  10  12
BRANCH  10  13
ATOM     13  C   UNL     1      43.976   4.181   9.523  0.00  0.00    +0.000 C 
BRANCH  13  14
ATOM     14  C   UNL     1      45.060   3.505   8.718  0.00  0.00    +0.000 A 
ATOM     15  C   UNL     1      45.301   2.139   8.853  0.00  0.00    +0.000 A 
ATOM     16  C   UNL     1      46.314   1.550   8.104  0.00  0.00    +0.000 A 
ATOM     17  C   UNL     1      47.064   2.335   7.239  0.00  0.00    +0.000 A 
ATOM     18  C   UNL     1      46.769   3.684   7.166  0.00  0.00    +0.000 A 
ATOM     19  N   UNL     1      45.805   4.286   7.896  0.00  0.00    +0.000 NA
ENDBRANCH  13  14
ENDBRANCH  10  13
ENDBRANCH   8  10
ENDBRANCH   7   8
ENDBRANCH   1   7
BRANCH   4  20
ATOM     20  C   UNL     1      49.859   7.610  14.774  0.00  0.00    +0.000 C 
BRANCH  20  21
ATOM     21  N   UNL     1      49.512   7.568  16.172  0.00  0.00    +0.000 N 
ATOM     22  C   UNL     1      49.010   6.428  16.742  0.00  0.00    +0.000 C 
ATOM     23  O   UNL     1      48.885   5.385  16.106  0.00  0.00    +0.000 OA
ATOM     24  H   UNL     1      49.406   8.460  16.646  0.00  0.00    +0.000 HD
BRANCH  22  25
ATOM     25  C   UNL     1      48.684   6.494  18.172  0.00  0.00    +0.000 A 
ATOM     26  C   UNL     1      48.923   5.389  18.980  0.00  0.00    +0.000 A 
ATOM     27  S   UNL     1      48.531   5.641  20.619  0.00  0.00    +0.000 S 
ATOM     28  C   UNL     1      47.980   7.219  20.300  0.00  0.00    +0.000 A 
ATOM     29  N   UNL     1      47.475   7.994  21.297  0.00  0.00    +0.000 NA
ATOM     30  C   UNL     1      47.065   9.157  20.913  0.00  0.00    +0.000 A 
ATOM     31  N   UNL     1      47.124   9.618  19.623  0.00  0.00    +0.000 N 
ATOM     32  C   UNL     1      47.647   8.877  18.587  0.00  0.00    +0.000 A 
ATOM     33  O   UNL     1      47.709   9.333  17.450  0.00  0.00    +0.000 OA
ATOM     34  C   UNL     1      48.111   7.556  18.965  0.00  0.00    +0.000 A 
ATOM     35  H   UNL     1      46.791  10.541  19.385  0.00  0.00    +0.000 HD
ENDBRANCH  22  25
ENDBRANCH  20  21
ENDBRANCH   4  20
TORSDOF 9
ENDMDL
MODEL 5
REMARK VINA RESULT:    -6.899      2.941      8.209
REMARK INTER + INTRA:         -12.328
REMARK INTER:                 -10.237
REMARK INTRA:                  -2.091
REMARK UNBOUND:                -1.799
REMARK  Name = 
REMARK  10 active torsions:
REMARK  status: ('A' for Active; 'I' for Inactive)
REMARK    1  A    between atoms: C_1  and  C_2
REMARK    2  A    between atoms: C_2  and  C_3
REMARK    3  A    between atoms: C_3  and  C_4
REMARK    4  A    between atoms: C_3  and  N_11
REMARK    5  A    between atoms: C_4  and  C_5
REMARK    6  A    between atoms: N_11  and  C_12
REMARK    7  A    between atoms: C_12  and  C_13
REMARK    8  A    between atoms: C_16  and  C_17
REMARK    9  A    between atoms: C_17  and  N_18
REMARK   10  A    between atoms: C_19  and  C_21
REMARK                            x       y       z     vdW  Elec       q    Type
REMARK                         _______ _______ _______ _____ _____    ______ ____
ROOT
ATOM      1  C   UNL     1      49.032   7.904  16.531  0.00  0.00    +0.000 A 
ATOM      2  C   UNL     1      49.307   6.804  15.707  0.00  0.00    +0.000 A 
ATOM      3  C   UNL     1      48.893   6.790  14.371  0.00  0.00    +0.000 A 
ATOM      4  C   UNL     1      48.193   7.874  13.832  0.00  0.00    +0.000 A 
ATOM      5  C   UNL     1      47.884   8.959  14.662  0.00  0.00    +0.000 A 
ATOM      6  C   UNL     1      48.310   8.980  15.993  0.00  0.00    +0.000 A 
ENDROOT
BRANCH   1   7
ATOM      7  C   UNL     1      49.479   7.935  17.978  0.00  0.00    +0.000 C 
BRANCH   7   8
ATOM      8  N   UNL     1      48.341   8.044  18.892  0.00  0.00    +0.000 NA
ATOM      9  H   UNL     1      48.516   8.803  19.546  0.00  0.00    +0.000 HD
BRANCH   8  10
ATOM     10  C   UNL     1      48.034   6.807  19.633  0.00  0.00    +0.000 C 
BRANCH  10  12
ATOM     11  C   UNL     1      47.338   6.107  22.026  0.00  0.00    +0.000 C 
ATOM     12  C   UNL     1      47.534   7.243  21.032  0.00  0.00    +0.000 C 
ENDBRANCH  10  12
BRANCH  10  13
ATOM     13  C   UNL     1      47.080   5.816  18.911  0.00  0.00    +0.000 C 
BRANCH  13  14
ATOM     14  C   UNL     1      47.728   4.661  18.184  0.00  0.00    +0.000 A 
ATOM     15  C   UNL     1      49.026   4.262  18.497  0.00  0.00    +0.000 A 
ATOM     16  C   UNL     1      49.597   3.202  17.800  0.00  0.00    +0.000 A 
ATOM     17  C   UNL     1      48.862   2.565  16.809  0.00  0.00    +0.000 A 
ATOM     18  C   UNL     1      47.584   3.025  16.553  0.00  0.00    +0.000 A 
ATOM     19  N   UNL     1      47.012   4.064  17.199  0.00  0.00    +0.000 NA
ENDBRANCH  13  14
ENDBRANCH  10  13
ENDBRANCH   8  10
ENDBRANCH   7   8
ENDBRANCH   1   7
BRANCH   4  20
ATOM     20  C   UNL     1      47.735   7.857  12.399  0.00  0.00    +0.000 C 
BRANCH  20  21
ATOM     21  N   UNL     1      47.021   6.641  12.100  0.00  0.00    +0.000 N 
ATOM     22  C   UNL     1      45.654   6.585  12.187  0.00  0.00    +0.000 C 
ATOM     23  O   UNL     1      44.980   7.572  12.468  0.00  0.00    +0.000 OA
ATOM     24  H   UNL     1      47.562   5.783  12.080  0.00  0.00    +0.000 HD
BRANCH  22  25
ATOM     25  C   UNL     1      45.026   5.297  11.866  0.00  0.00    +0.000 A 
ATOM     26  C   UNL     1      44.339   4.606  12.857  0.00  0.00    +0.000 A 
ATOM     27  S   UNL     1      43.633   3.153  12.315  0.00  0.00    +0.000 S 
ATOM     28  C   UNL     1      44.262   3.369  10.749  0.00  0.00    +0.000 A 
ATOM     29  N   UNL     1      44.040   2.444   9.776  0.00  0.00    +0.000 NA
ATOM     30  C   UNL     1      44.599   2.716   8.644  0.00  0.00    +0.000 A 
ATOM     31  N   UNL     1      45.350   3.836   8.394  0.00  0.00    +0.000 N 
ATOM     32  C   UNL     1      45.581   4.808   9.340  0.00  0.00    +0.000 A 
ATOM     33  O   UNL     1      46.235   5.811   9.073  0.00  0.00    +0.000 OA
ATOM     34  C   UNL     1      44.984   4.543  10.635  0.00  0.00    +0.000 A 
ATOM     35  H   UNL     1      45.758   3.995   7.485  0.00  0.00    +0.000 HD
ENDBRANCH  22  25
ENDBRANCH  20  21
ENDBRANCH   4  20
TORSDOF 9
ENDMDL
MODEL 6
REMARK VINA RESULT:    -6.866      3.686      9.107
REMARK INTER + INTRA:         -12.278
REMARK INTER:                  -9.645
REMARK INTRA:                  -2.633
REMARK UNBOUND:                -1.799
REMARK  Name = 
REMARK  10 active torsions:
REMARK  status: ('A' for Active; 'I' for Inactive)
REMARK    1  A    between atoms: C_1  and  C_2
REMARK    2  A    between atoms: C_2  and  C_3
REMARK    3  A    between atoms: C_3  and  C_4
REMARK    4  A    between atoms: C_3  and  N_11
REMARK    5  A    between atoms: C_4  and  C_5
REMARK    6  A    between atoms: N_11  and  C_12
REMARK    7  A    between atoms: C_12  and  C_13
REMARK    8  A    between atoms: C_16  and  C_17
REMARK    9  A    between atoms: C_17  and  N_18
REMARK   10  A    between atoms: C_19  and  C_21
REMARK                            x       y       z     vdW  Elec       q    Type
REMARK                         _______ _______ _______ _____ _____    ______ ____
ROOT
ATOM      1  C   UNL     1      48.117   5.451  20.432  0.00  0.00    +0.000 A 
ATOM      2  C   UNL     1      48.865   4.334  20.031  0.00  0.00    +0.000 A 
ATOM      3  C   UNL     1      48.660   3.748  18.777  0.00  0.00    +0.000 A 
ATOM      4  C   UNL     1      47.699   4.264  17.901  0.00  0.00    +0.000 A 
ATOM      5  C   UNL     1      46.925   5.356  18.312  0.00  0.00    +0.000 A 
ATOM      6  C   UNL     1      47.140   5.950  19.558  0.00  0.00    +0.000 A 
ENDROOT
BRANCH   1   7
ATOM      7  C   UNL     1      48.333   6.098  21.784  0.00  0.00    +0.000 C 
BRANCH   7   8
ATOM      8  N   UNL     1      49.396   7.102  21.739  0.00  0.00    +0.000 NA
ATOM      9  H   UNL     1      49.531   7.481  22.673  0.00  0.00    +0.000 HD
BRANCH   8  10
ATOM     10  C   UNL     1      49.159   8.200  20.784  0.00  0.00    +0.000 C 
BRANCH  10  12
ATOM     11  C   UNL     1      47.374   9.715  21.889  0.00  0.00    +0.000 C 
ATOM     12  C   UNL     1      48.853   9.461  21.629  0.00  0.00    +0.000 C 
ENDBRANCH  10  12
BRANCH  10  13
ATOM     13  C   UNL     1      50.273   8.415  19.724  0.00  0.00    +0.000 C 
BRANCH  13  14
ATOM     14  C   UNL     1      50.037   7.808  18.361  0.00  0.00    +0.000 A 
ATOM     15  C   UNL     1      50.831   6.759  17.902  0.00  0.00    +0.000 A 
ATOM     16  C   UNL     1      50.594   6.230  16.637  0.00  0.00    +0.000 A 
ATOM     17  C   UNL     1      49.572   6.759  15.861  0.00  0.00    +0.000 A 
ATOM     18  C   UNL     1      48.833   7.804  16.384  0.00  0.00    +0.000 A 
ATOM     19  N   UNL     1      49.055   8.350  17.599  0.00  0.00    +0.000 NA
ENDBRANCH  13  14
ENDBRANCH  10  13
ENDBRANCH   8  10
ENDBRANCH   7   8
ENDBRANCH   1   7
BRANCH   4  20
ATOM     20  C   UNL     1      47.466   3.628  16.557  0.00  0.00    +0.000 C 
BRANCH  20  21
ATOM     21  N   UNL     1      46.832   4.552  15.652  0.00  0.00    +0.000 N 
ATOM     22  C   UNL     1      46.788   4.305  14.305  0.00  0.00    +0.000 C 
ATOM     23  O   UNL     1      47.237   3.270  13.820  0.00  0.00    +0.000 OA
ATOM     24  H   UNL     1      46.655   5.489  16.000  0.00  0.00    +0.000 HD
BRANCH  22  25
ATOM     25  C   UNL     1      46.123   5.313  13.470  0.00  0.00    +0.000 A 
ATOM     26  C   UNL     1      46.753   6.528  13.232  0.00  0.00    +0.000 A 
ATOM     27  S   UNL     1      45.871   7.570  12.212  0.00  0.00    +0.000 S 
ATOM     28  C   UNL     1      44.590   6.456  12.093  0.00  0.00    +0.000 A 
ATOM     29  N   UNL     1      43.478   6.749  11.366  0.00  0.00    +0.000 NA
ATOM     30  C   UNL     1      42.571   5.830  11.385  0.00  0.00    +0.000 A 
ATOM     31  N   UNL     1      42.681   4.639  12.056  0.00  0.00    +0.000 N 
ATOM     32  C   UNL     1      43.796   4.291  12.785  0.00  0.00    +0.000 A 
ATOM     33  O   UNL     1      43.871   3.205  13.350  0.00  0.00    +0.000 OA
ATOM     34  C   UNL     1      44.841   5.297  12.806  0.00  0.00    +0.000 A 
ATOM     35  H   UNL     1      41.938   3.957  12.029  0.00  0.00    +0.000 HD
ENDBRANCH  22  25
ENDBRANCH  20  21
ENDBRANCH   4  20
TORSDOF 9
ENDMDL
MODEL 7
REMARK VINA RESULT:    -6.737      3.730      9.049
REMARK INTER + INTRA:         -12.081
REMARK INTER:                  -8.909
REMARK INTRA:                  -3.172
REMARK UNBOUND:                -1.799
REMARK  Name = 
REMARK  10 active torsions:
REMARK  status: ('A' for Active; 'I' for Inactive)
REMARK    1  A    between atoms: C_1  and  C_2
REMARK    2  A    between atoms: C_2  and  C_3
REMARK    3  A    between atoms: C_3  and  C_4
REMARK    4  A    between atoms: C_3  and  N_11
REMARK    5  A    between atoms: C_4  and  C_5
REMARK    6  A    between atoms: N_11  and  C_12
REMARK    7  A    between atoms: C_12  and  C_13
REMARK    8  A    between atoms: C_16  and  C_17
REMARK    9  A    between atoms: C_17  and  N_18
REMARK   10  A    between atoms: C_19  and  C_21
REMARK                            x       y       z     vdW  Elec       q    Type
REMARK                         _______ _______ _______ _____ _____    ______ ____
ROOT
ATOM      1  C   UNL     1      50.695   4.949  19.023  0.00  0.00    +0.000 A 
ATOM      2  C   UNL     1      49.424   5.522  19.173  0.00  0.00    +0.000 A 
ATOM      3  C   UNL     1      48.330   5.036  18.449  0.00  0.00    +0.000 A 
ATOM      4  C   UNL     1      48.486   3.971  17.557  0.00  0.00    +0.000 A 
ATOM      5  C   UNL     1      49.760   3.419  17.376  0.00  0.00    +0.000 A 
ATOM      6  C   UNL     1      50.850   3.895  18.110  0.00  0.00    +0.000 A 
ENDROOT
BRANCH   1   7
ATOM      7  C   UNL     1      51.887   5.461  19.805  0.00  0.00    +0.000 C 
BRANCH   7   8
ATOM      8  N   UNL     1      52.089   6.896  19.604  0.00  0.00    +0.000 NA
ATOM      9  H   UNL     1      51.240   7.296  19.212  0.00  0.00    +0.000 HD
BRANCH   8  10
ATOM     10  C   UNL     1      53.242   7.237  18.752  0.00  0.00    +0.000 C 
BRANCH  10  12
ATOM     11  C   UNL     1      54.408   5.591  17.130  0.00  0.00    +0.000 C 
ATOM     12  C   UNL     1      54.058   5.934  18.572  0.00  0.00    +0.000 C 
ENDBRANCH  10  12
BRANCH  10  13
ATOM     13  C   UNL     1      52.896   7.946  17.414  0.00  0.00    +0.000 C 
BRANCH  13  14
ATOM     14  C   UNL     1      51.455   7.883  16.967  0.00  0.00    +0.000 A 
ATOM     15  C   UNL     1      51.055   6.987  15.977  0.00  0.00    +0.000 A 
ATOM     16  C   UNL     1      49.722   6.962  15.581  0.00  0.00    +0.000 A 
ATOM     17  C   UNL     1      48.819   7.830  16.179  0.00  0.00    +0.000 A 
ATOM     18  C   UNL     1      49.294   8.695  17.148  0.00  0.00    +0.000 A 
ATOM     19  N   UNL     1      50.586   8.754  17.537  0.00  0.00    +0.000 NA
ENDBRANCH  13  14
ENDBRANCH  10  13
ENDBRANCH   8  10
ENDBRANCH   7   8
ENDBRANCH   1   7
BRANCH   4  20
ATOM     20  C   UNL     1      47.314   3.454  16.765  0.00  0.00    +0.000 C 
BRANCH  20  21
ATOM     21  N   UNL     1      46.863   4.436  15.812  0.00  0.00    +0.000 N 
ATOM     22  C   UNL     1      46.895   4.180  14.466  0.00  0.00    +0.000 C 
ATOM     23  O   UNL     1      47.256   3.095  14.020  0.00  0.00    +0.000 OA
ATOM     24  H   UNL     1      46.771   5.391  16.143  0.00  0.00    +0.000 HD
BRANCH  22  25
ATOM     25  C   UNL     1      46.417   5.250  13.580  0.00  0.00    +0.000 A 
ATOM     26  C   UNL     1      47.248   6.328  13.301  0.00  0.00    +0.000 A 
ATOM     27  S   UNL     1      46.564   7.459  12.225  0.00  0.00    +0.000 S 
ATOM     28  C   UNL     1      45.113   6.574  12.133  0.00  0.00    +0.000 A 
ATOM     29  N   UNL     1      44.073   7.020  11.378  0.00  0.00    +0.000 NA
ATOM     30  C   UNL     1      43.023   6.270  11.421  0.00  0.00    +0.000 A 
ATOM     31  N   UNL     1      42.923   5.108  12.143  0.00  0.00    +0.000 N 
ATOM     32  C   UNL     1      43.956   4.609  12.902  0.00  0.00    +0.000 A 
ATOM     33  O   UNL     1      43.840   3.551  13.513  0.00  0.00    +0.000 OA
ATOM     34  C   UNL     1      45.157   5.422  12.897  0.00  0.00    +0.000 A 
ATOM     35  H   UNL     1      42.074   4.562  12.132  0.00  0.00    +0.000 HD
ENDBRANCH  22  25
ENDBRANCH  20  21
ENDBRANCH   4  20
TORSDOF 9
ENDMDL
MODEL 8
REMARK VINA RESULT:    -6.304      3.209      5.791
REMARK INTER + INTRA:         -11.419
REMARK INTER:                  -9.648
REMARK INTRA:                  -1.771
REMARK UNBOUND:                -1.799
REMARK  Name = 
REMARK  10 active torsions:
REMARK  status: ('A' for Active; 'I' for Inactive)
REMARK    1  A    between atoms: C_1  and  C_2
REMARK    2  A    between atoms: C_2  and  C_3
REMARK    3  A    between atoms: C_3  and  C_4
REMARK    4  A    between atoms: C_3  and  N_11
REMARK    5  A    between atoms: C_4  and  C_5
REMARK    6  A    between atoms: N_11  and  C_12
REMARK    7  A    between atoms: C_12  and  C_13
REMARK    8  A    between atoms: C_16  and  C_17
REMARK    9  A    between atoms: C_17  and  N_18
REMARK   10  A    between atoms: C_19  and  C_21
REMARK                            x       y       z     vdW  Elec       q    Type
REMARK                         _______ _______ _______ _____ _____    ______ ____
ROOT
ATOM      1  C   UNL     1      47.819   6.113  14.582  0.00  0.00    +0.000 A 
ATOM      2  C   UNL     1      47.250   4.843  14.410  0.00  0.00    +0.000 A 
ATOM      3  C   UNL     1      47.368   3.866  15.404  0.00  0.00    +0.000 A 
ATOM      4  C   UNL     1      48.062   4.136  16.588  0.00  0.00    +0.000 A 
ATOM      5  C   UNL     1      48.664   5.390  16.748  0.00  0.00    +0.000 A 
ATOM      6  C   UNL     1      48.534   6.372  15.762  0.00  0.00    +0.000 A 
ENDROOT
BRANCH   1   7
ATOM      7  C   UNL     1      47.695   7.183  13.517  0.00  0.00    +0.000 C 
BRANCH   7   8
ATOM      8  N   UNL     1      46.487   7.988  13.698  0.00  0.00    +0.000 NA
ATOM      9  H   UNL     1      45.713   7.371  13.933  0.00  0.00    +0.000 HD
BRANCH   8  10
ATOM     10  C   UNL     1      46.128   8.820  12.535  0.00  0.00    +0.000 C 
BRANCH  10  12
ATOM     11  C   UNL     1      47.528  10.738  11.506  0.00  0.00    +0.000 C 
ATOM     12  C   UNL     1      47.460   9.264  11.884  0.00  0.00    +0.000 C 
ENDBRANCH  10  12
BRANCH  10  13
ATOM     13  C   UNL     1      45.130   8.176  11.535  0.00  0.00    +0.000 C 
BRANCH  13  14
ATOM     14  C   UNL     1      44.898   6.689  11.673  0.00  0.00    +0.000 A 
ATOM     15  C   UNL     1      45.374   5.803  10.709  0.00  0.00    +0.000 A 
ATOM     16  C   UNL     1      45.134   4.441  10.861  0.00  0.00    +0.000 A 
ATOM     17  C   UNL     1      44.425   3.995  11.968  0.00  0.00    +0.000 A 
ATOM     18  C   UNL     1      43.979   4.938  12.876  0.00  0.00    +0.000 A 
ATOM     19  N   UNL     1      44.180   6.267  12.743  0.00  0.00    +0.000 NA
ENDBRANCH  13  14
ENDBRANCH  10  13
ENDBRANCH   8  10
ENDBRANCH   7   8
ENDBRANCH   1   7
BRANCH   4  20
ATOM     20  C   UNL     1      48.202   3.082  17.653  0.00  0.00    +0.000 C 
BRANCH  20  21
ATOM     21  N   UNL     1      49.589   2.848  17.967  0.00  0.00    +0.000 N 
ATOM     22  C   UNL     1      50.389   2.113  17.132  0.00  0.00    +0.000 C 
ATOM     23  O   UNL     1      49.977   1.670  16.063  0.00  0.00    +0.000 OA
ATOM     24  H   UNL     1      49.878   3.017  18.926  0.00  0.00    +0.000 HD
BRANCH  22  25
ATOM     25  C   UNL     1      51.785   1.930  17.548  0.00  0.00    +0.000 A 
ATOM     26  C   UNL     1      52.284   0.646  17.721  0.00  0.00    +0.000 A 
ATOM     27  S   UNL     1      53.929   0.603  18.163  0.00  0.00    +0.000 S 
ATOM     28  C   UNL     1      54.022   2.302  18.188  0.00  0.00    +0.000 A 
ATOM     29  N   UNL     1      55.180   2.930  18.524  0.00  0.00    +0.000 NA
ATOM     30  C   UNL     1      55.104   4.220  18.532  0.00  0.00    +0.000 A 
ATOM     31  N   UNL     1      53.976   4.937  18.225  0.00  0.00    +0.000 N 
ATOM     32  C   UNL     1      52.790   4.343  17.859  0.00  0.00    +0.000 A 
ATOM     33  O   UNL     1      51.808   5.017  17.563  0.00  0.00    +0.000 OA
ATOM     34  C   UNL     1      52.819   2.893  17.845  0.00  0.00    +0.000 A 
ATOM     35  H   UNL     1      53.981   5.946  18.245  0.00  0.00    +0.000 HD
ENDBRANCH  22  25
ENDBRANCH  20  21
ENDBRANCH   4  20
TORSDOF 9
ENDMDL
MODEL 9
REMARK VINA RESULT:    -6.207      3.317      7.935
REMARK INTER + INTRA:         -11.271
REMARK INTER:                  -8.969
REMARK INTRA:                  -2.302
REMARK UNBOUND:                -1.799
REMARK  Name = 
REMARK  10 active torsions:
REMARK  status: ('A' for Active; 'I' for Inactive)
REMARK    1  A    between atoms: C_1  and  C_2
REMARK    2  A    between atoms: C_2  and  C_3
REMARK    3  A    between atoms: C_3  and  C_4
REMARK    4  A    between atoms: C_3  and  N_11
REMARK    5  A    between atoms: C_4  and  C_5
REMARK    6  A    between atoms: N_11  and  C_12
REMARK    7  A    between atoms: C_12  and  C_13
REMARK    8  A    between atoms: C_16  and  C_17
REMARK    9  A    between atoms: C_17  and  N_18
REMARK   10  A    between atoms: C_19  and  C_21
REMARK                            x       y       z     vdW  Elec       q    Type
REMARK                         _______ _______ _______ _____ _____    ______ ____
ROOT
ATOM      1  C   UNL     1      49.725   7.964  17.369  0.00  0.00    +0.000 A 
ATOM      2  C   UNL     1      50.230   7.120  16.369  0.00  0.00    +0.000 A 
ATOM      3  C   UNL     1      49.922   7.343  15.023  0.00  0.00    +0.000 A 
ATOM      4  C   UNL     1      49.100   8.411  14.650  0.00  0.00    +0.000 A 
ATOM      5  C   UNL     1      48.563   9.234  15.648  0.00  0.00    +0.000 A 
ATOM      6  C   UNL     1      48.883   9.020  16.992  0.00  0.00    +0.000 A 
ENDROOT
BRANCH   1   7
ATOM      7  C   UNL     1      50.055   7.737  18.830  0.00  0.00    +0.000 C 
BRANCH   7   8
ATOM      8  N   UNL     1      48.874   7.891  19.681  0.00  0.00    +0.000 NA
ATOM      9  H   UNL     1      49.104   8.508  20.455  0.00  0.00    +0.000 HD
BRANCH   8  10
ATOM     10  C   UNL     1      48.325   6.624  20.197  0.00  0.00    +0.000 C 
BRANCH  10  12
ATOM     11  C   UNL     1      47.270   8.329  21.835  0.00  0.00    +0.000 C 
ATOM     12  C   UNL     1      47.806   6.919  21.626  0.00  0.00    +0.000 C 
ENDBRANCH  10  12
BRANCH  10  13
ATOM     13  C   UNL     1      47.278   5.929  19.285  0.00  0.00    +0.000 C 
BRANCH  13  14
ATOM     14  C   UNL     1      47.771   4.771  18.449  0.00  0.00    +0.000 A 
ATOM     15  C   UNL     1      49.066   4.281  18.606  0.00  0.00    +0.000 A 
ATOM     16  C   UNL     1      49.493   3.221  17.813  0.00  0.00    +0.000 A 
ATOM     17  C   UNL     1      48.620   2.675  16.882  0.00  0.00    +0.000 A 
ATOM     18  C   UNL     1      47.353   3.222  16.780  0.00  0.00    +0.000 A 
ATOM     19  N   UNL     1      46.920   4.263  17.524  0.00  0.00    +0.000 NA
ENDBRANCH  13  14
ENDBRANCH  10  13
ENDBRANCH   8  10
ENDBRANCH   7   8
ENDBRANCH   1   7
BRANCH   4  20
ATOM     20  C   UNL     1      48.755   8.646  13.203  0.00  0.00    +0.000 C 
BRANCH  20  21
ATOM     21  N   UNL     1      47.804   7.670  12.735  0.00  0.00    +0.000 N 
ATOM     22  C   UNL     1      46.456   7.908  12.800  0.00  0.00    +0.000 C 
ATOM     23  O   UNL     1      46.005   8.975  13.208  0.00  0.00    +0.000 OA
ATOM     24  H   UNL     1      48.144   6.723  12.602  0.00  0.00    +0.000 HD
BRANCH  22  25
ATOM     25  C   UNL     1      45.574   6.847  12.300  0.00  0.00    +0.000 A 
ATOM     26  C   UNL     1      44.476   7.181  11.517  0.00  0.00    +0.000 A 
ATOM     27  S   UNL     1      43.579   5.834  10.983  0.00  0.00    +0.000 S 
ATOM     28  C   UNL     1      44.596   4.758  11.821  0.00  0.00    +0.000 A 
ATOM     29  N   UNL     1      44.360   3.418  11.798  0.00  0.00    +0.000 NA
ATOM     30  C   UNL     1      45.188   2.719  12.500  0.00  0.00    +0.000 A 
ATOM     31  N   UNL     1      46.238   3.238  13.214  0.00  0.00    +0.000 N 
ATOM     32  C   UNL     1      46.527   4.583  13.247  0.00  0.00    +0.000 A 
ATOM     33  O   UNL     1      47.492   5.010  13.874  0.00  0.00    +0.000 OA
ATOM     34  C   UNL     1      45.617   5.415  12.483  0.00  0.00    +0.000 A 
ATOM     35  H   UNL     1      46.855   2.638  13.740  0.00  0.00    +0.000 HD
ENDBRANCH  22  25
ENDBRANCH  20  21
ENDBRANCH   4  20
TORSDOF 9
ENDMDL
