MODEL 1
REMARK VINA RESULT:    -8.693      0.000      0.000
REMARK INTER + INTRA:         -12.893
REMARK INTER:                 -11.742
REMARK INTRA:                  -1.152
REMARK UNBOUND:                -1.152
REMARK  Name = 
REMARK  6 active torsions:
REMARK  status: ('A' for Active; 'I' for Inactive)
REMARK    1  A    between atoms: C_2  and  C_19
REMARK    2  A    between atoms: N_3  and  C_4
REMARK    3  A    between atoms: C_4  and  C_5
REMARK    4  A    between atoms: C_8  and  C_9
REMARK    5  A    between atoms: C_9  and  N_10
REMARK    6  A    between atoms: N_10  and  C_11
REMARK                            x       y       z     vdW  Elec       q    Type
REMARK                         _______ _______ _______ _____ _____    ______ ____
ROOT
ATOM      1  C   UNL     1      46.827   7.954  13.201  0.00  0.00    +0.000 C 
ENDROOT
BRANCH   1   2
ATOM      2  C   UNL     1      46.101   6.945  12.352  0.00  0.00    +0.000 A 
ATOM      3  C   UNL     1      44.932   6.317  12.809  0.00  0.00    +0.000 A 
ATOM      4  C   UNL     1      44.266   5.380  12.010  0.00  0.00    +0.000 A 
ATOM      5  C   UNL     1      44.734   5.086  10.723  0.00  0.00    +0.000 A 
ATOM      6  C   UNL     1      45.888   5.736  10.264  0.00  0.00    +0.000 A 
ATOM      7  C   UNL     1      46.570   6.644  11.070  0.00  0.00    +0.000 A 
BRANCH   5   8
ATOM      8  C   UNL     1      44.073   4.060   9.831  0.00  0.00    +0.000 C 
BRANCH   8   9
ATOM      9  N   UNL     1      44.362   4.262   8.416  0.00  0.00    +0.000 NA
ATOM     10  H   UNL     1      44.909   5.113   8.307  0.00  0.00    +0.000 HD
BRANCH   9  11
ATOM     11  C   UNL     1      45.036   3.128   7.762  0.00  0.00    +0.000 C 
ATOM     12  C   UNL     1      45.542   2.025   8.714  0.00  0.00    +0.000 C 
ATOM     13  C   UNL     1      46.333   0.942   7.978  0.00  0.00    +0.000 C 
ATOM     14  C   UNL     1      47.500   1.551   7.212  0.00  0.00    +0.000 C 
ATOM     15  C   UNL     1      47.011   2.605   6.226  0.00  0.00    +0.000 C 
ATOM     16  C   UNL     1      46.200   3.696   6.925  0.00  0.00    +0.000 C 
ENDBRANCH   9  11
ENDBRANCH   8   9
ENDBRANCH   5   8
ENDBRANCH   1   2
BRANCH   1  19
ATOM     17  O   UNL     1      49.207   6.522  13.489  0.00  0.00    +0.000 OA
ATOM     18  C   UNL     1      48.517   6.769  14.498  0.00  0.00    +0.000 C 
ATOM     19  N   UNL     1      47.328   7.434  14.438  0.00  0.00    +0.000 N 
ATOM     20  H   UNL     1      46.899   7.770  15.293  0.00  0.00    +0.000 HD
BRANCH  18  21
ATOM     21  C   UNL     1      48.929   6.327  15.823  0.00  0.00    +0.000 A 
ATOM     22  C   UNL     1      49.815   7.038  16.618  0.00  0.00    +0.000 A 
ATOM     23  S   UNL     1      50.051   6.312  18.153  0.00  0.00    +0.000 S 
ATOM     24  C   UNL     1      48.980   5.040  17.782  0.00  0.00    +0.000 A 
ATOM     25  N   UNL     1      48.702   4.055  18.676  0.00  0.00    +0.000 NA
ATOM     26  C   UNL     1      47.865   3.169  18.246  0.00  0.00    +0.000 A 
ATOM     27  N   UNL     1      47.287   3.171  17.004  0.00  0.00    +0.000 N 
ATOM     28  C   UNL     1      47.586   4.093  16.042  0.00  0.00    +0.000 A 
ATOM     29  O   UNL     1      47.180   3.942  14.894  0.00  0.00    +0.000 OA
ATOM     30  C   UNL     1      48.480   5.144  16.499  0.00  0.00    +0.000 A 
ATOM     31  H   UNL     1      46.683   2.414  16.716  0.00  0.00    +0.000 HD
ENDBRANCH  18  21
ENDBRANCH   1  19
TORSDOF 6
ENDMDL
MODEL 2
REMARK VINA RESULT:    -8.145      1.967      2.670
REMARK INTER + INTRA:         -12.154
REMARK INTER:                 -11.425
REMARK INTRA:                  -0.729
REMARK UNBOUND:                -1.152
REMARK  Name = 
REMARK  6 active torsions:
REMARK  status: ('A' for Active; 'I' for Inactive)
REMARK    1  A    between atoms: C_2  and  C_19
REMARK    2  A    between atoms: N_3  and  C_4
REMARK    3  A    between atoms: C_4  and  C_5
REMARK    4  A    between atoms: C_8  and  C_9
REMARK    5  A    between atoms: C_9  and  N_10
REMARK    6  A    between atoms: N_10  and  C_11
REMARK                            x       y       z     vdW  Elec       q    Type
REMARK                         _______ _______ _______ _____ _____    ______ ____
ROOT
ATOM      1  C   UNL     1      45.768   4.331  14.866  0.00  0.00    +0.000 C 
ENDROOT
BRANCH   1   2
ATOM      2  C   UNL     1      45.699   4.555  13.380  0.00  0.00    +0.000 A 
ATOM      3  C   UNL     1      46.261   5.697  12.789  0.00  0.00    +0.000 A 
ATOM      4  C   UNL     1      46.190   5.894  11.405  0.00  0.00    +0.000 A 
ATOM      5  C   UNL     1      45.591   4.931  10.582  0.00  0.00    +0.000 A 
ATOM      6  C   UNL     1      45.054   3.781  11.176  0.00  0.00    +0.000 A 
ATOM      7  C   UNL     1      45.095   3.598  12.557  0.00  0.00    +0.000 A 
BRANCH   5   8
ATOM      8  C   UNL     1      45.457   5.107   9.087  0.00  0.00    +0.000 C 
BRANCH   8   9
ATOM      9  N   UNL     1      44.567   4.128   8.473  0.00  0.00    +0.000 NA
ATOM     10  H   UNL     1      43.893   4.615   7.887  0.00  0.00    +0.000 HD
BRANCH   9  11
ATOM     11  C   UNL     1      45.253   3.076   7.706  0.00  0.00    +0.000 C 
ATOM     12  C   UNL     1      45.799   1.900   8.542  0.00  0.00    +0.000 C 
ATOM     13  C   UNL     1      46.600   0.909   7.696  0.00  0.00    +0.000 C 
ATOM     14  C   UNL     1      47.741   1.613   6.974  0.00  0.00    +0.000 C 
ATOM     15  C   UNL     1      47.214   2.744   6.099  0.00  0.00    +0.000 C 
ATOM     16  C   UNL     1      46.392   3.746   6.910  0.00  0.00    +0.000 C 
ENDBRANCH   9  11
ENDBRANCH   8   9
ENDBRANCH   5   8
ENDBRANCH   1   2
BRANCH   1  19
ATOM     17  O   UNL     1      46.631   3.390  17.349  0.00  0.00    +0.000 OA
ATOM     18  C   UNL     1      47.405   4.078  16.655  0.00  0.00    +0.000 C 
ATOM     19  N   UNL     1      47.050   4.602  15.446  0.00  0.00    +0.000 N 
ATOM     20  H   UNL     1      47.762   4.993  14.841  0.00  0.00    +0.000 HD
BRANCH  18  21
ATOM     21  C   UNL     1      48.749   4.400  17.113  0.00  0.00    +0.000 A 
ATOM     22  C   UNL     1      49.112   5.655  17.576  0.00  0.00    +0.000 A 
ATOM     23  S   UNL     1      50.738   5.715  18.116  0.00  0.00    +0.000 S 
ATOM     24  C   UNL     1      50.985   4.071  17.740  0.00  0.00    +0.000 A 
ATOM     25  N   UNL     1      52.173   3.455  17.971  0.00  0.00    +0.000 NA
ATOM     26  C   UNL     1      52.197   2.206  17.639  0.00  0.00    +0.000 A 
ATOM     27  N   UNL     1      51.147   1.519  17.090  0.00  0.00    +0.000 N 
ATOM     28  C   UNL     1      49.956   2.104  16.769  0.00  0.00    +0.000 A 
ATOM     29  O   UNL     1      49.120   1.487  16.116  0.00  0.00    +0.000 OA
ATOM     30  C   UNL     1      49.862   3.496  17.178  0.00  0.00    +0.000 A 
ATOM     31  H   UNL     1      51.256   0.556  16.803  0.00  0.00    +0.000 HD
ENDBRANCH  18  21
ENDBRANCH   1  19
TORSDOF 6
ENDMDL
MODEL 3
REMARK VINA RESULT:    -8.118      1.605      2.052
REMARK INTER + INTRA:         -12.117
REMARK INTER:                 -11.278
REMARK INTRA:                  -0.839
REMARK UNBOUND:                -1.152
REMARK  Name = 
REMARK  6 active torsions:
REMARK  status: ('A' for Active; 'I' for Inactive)
REMARK    1  A    between atoms: C_2  and  C_19
REMARK    2  A    between atoms: N_3  and  C_4
REMARK    3  A    between atoms: C_4  and  C_5
REMARK    4  A    between atoms: C_8  and  C_9
REMARK    5  A    between atoms: C_9  and  N_10
REMARK    6  A    between atoms: N_10  and  C_11
REMARK                            x       y       z     vdW  Elec       q    Type
REMARK                         _______ _______ _______ _____ _____    ______ ____
ROOT
ATOM      1  C   UNL     1      48.117   6.526  13.480  0.00  0.00    +0.000 C 
ENDROOT
BRANCH   1   2
ATOM      2  C   UNL     1      47.032   5.756  12.777  0.00  0.00    +0.000 A 
ATOM      3  C   UNL     1      46.578   4.523  13.271  0.00  0.00    +0.000 A 
ATOM      4  C   UNL     1      45.569   3.816  12.607  0.00  0.00    +0.000 A 
ATOM      5  C   UNL     1      44.967   4.349  11.460  0.00  0.00    +0.000 A 
ATOM      6  C   UNL     1      45.408   5.592  10.986  0.00  0.00    +0.000 A 
ATOM      7  C   UNL     1      46.435   6.282  11.627  0.00  0.00    +0.000 A 
BRANCH   5   8
ATOM      8  C   UNL     1      43.897   3.614  10.686  0.00  0.00    +0.000 C 
BRANCH   8   9
ATOM      9  N   UNL     1      44.394   2.414  10.021  0.00  0.00    +0.000 NA
ATOM     10  H   UNL     1      43.621   1.956   9.544  0.00  0.00    +0.000 HD
BRANCH   9  11
ATOM     11  C   UNL     1      45.509   2.650   9.088  0.00  0.00    +0.000 C 
ATOM     12  C   UNL     1      45.240   3.702   7.993  0.00  0.00    +0.000 C 
ATOM     13  C   UNL     1      46.394   3.807   6.995  0.00  0.00    +0.000 C 
ATOM     14  C   UNL     1      46.687   2.454   6.362  0.00  0.00    +0.000 C 
ATOM     15  C   UNL     1      47.010   1.415   7.429  0.00  0.00    +0.000 C 
ATOM     16  C   UNL     1      45.883   1.295   8.455  0.00  0.00    +0.000 C 
ENDBRANCH   9  11
ENDBRANCH   8   9
ENDBRANCH   5   8
ENDBRANCH   1   2
BRANCH   1  19
ATOM     17  O   UNL     1      50.220   6.802  15.296  0.00  0.00    +0.000 OA
ATOM     18  C   UNL     1      49.048   6.757  15.721  0.00  0.00    +0.000 C 
ATOM     19  N   UNL     1      47.969   6.591  14.903  0.00  0.00    +0.000 N 
ATOM     20  H   UNL     1      47.036   6.744  15.269  0.00  0.00    +0.000 HD
BRANCH  18  21
ATOM     21  C   UNL     1      48.755   6.845  17.144  0.00  0.00    +0.000 A 
ATOM     22  C   UNL     1      48.346   8.016  17.763  0.00  0.00    +0.000 A 
ATOM     23  S   UNL     1      48.003   7.798  19.428  0.00  0.00    +0.000 S 
ATOM     24  C   UNL     1      48.396   6.142  19.353  0.00  0.00    +0.000 A 
ATOM     25  N   UNL     1      48.304   5.334  20.441  0.00  0.00    +0.000 NA
ATOM     26  C   UNL     1      48.630   4.103  20.217  0.00  0.00    +0.000 A 
ATOM     27  N   UNL     1      49.046   3.607  19.010  0.00  0.00    +0.000 N 
ATOM     28  C   UNL     1      49.226   4.386  17.904  0.00  0.00    +0.000 A 
ATOM     29  O   UNL     1      49.772   3.925  16.906  0.00  0.00    +0.000 OA
ATOM     30  C   UNL     1      48.817   5.769  18.092  0.00  0.00    +0.000 A 
ATOM     31  H   UNL     1      49.338   2.644  18.923  0.00  0.00    +0.000 HD
ENDBRANCH  18  21
ENDBRANCH   1  19
TORSDOF 6
ENDMDL
MODEL 4
REMARK VINA RESULT:    -8.086      2.020      2.524
REMARK INTER + INTRA:         -12.074
REMARK INTER:                 -10.958
REMARK INTRA:                  -1.116
REMARK UNBOUND:                -1.152
REMARK  Name = 
REMARK  6 active torsions:
REMARK  status: ('A' for Active; 'I' for Inactive)
REMARK    1  A    between atoms: C_2  and  C_19
REMARK    2  A    between atoms: N_3  and  C_4
REMARK    3  A    between atoms: C_4  and  C_5
REMARK    4  A    between atoms: C_8  and  C_9
REMARK    5  A    between atoms: C_9  and  N_10
REMARK    6  A    between atoms: N_10  and  C_11
REMARK                            x       y       z     vdW  Elec       q    Type
REMARK                         _______ _______ _______ _____ _____    ______ ____
ROOT
ATOM      1  C   UNL     1      47.696   7.038  13.573  0.00  0.00    +0.000 C 
ENDROOT
BRANCH   1   2
ATOM      2  C   UNL     1      46.790   6.203  12.709  0.00  0.00    +0.000 A 
ATOM      3  C   UNL     1      46.211   5.020  13.192  0.00  0.00    +0.000 A 
ATOM      4  C   UNL     1      45.370   4.252  12.377  0.00  0.00    +0.000 A 
ATOM      5  C   UNL     1      45.061   4.677  11.079  0.00  0.00    +0.000 A 
ATOM      6  C   UNL     1      45.622   5.873  10.612  0.00  0.00    +0.000 A 
ATOM      7  C   UNL     1      46.485   6.622  11.410  0.00  0.00    +0.000 A 
BRANCH   5   8
ATOM      8  C   UNL     1      44.186   3.871  10.145  0.00  0.00    +0.000 C 
BRANCH   8   9
ATOM      9  N   UNL     1      44.391   4.203   8.740  0.00  0.00    +0.000 NA
ATOM     10  H   UNL     1      44.914   5.074   8.678  0.00  0.00    +0.000 HD
BRANCH   9  11
ATOM     11  C   UNL     1      45.052   3.148   7.954  0.00  0.00    +0.000 C 
ATOM     12  C   UNL     1      45.635   1.981   8.776  0.00  0.00    +0.000 C 
ATOM     13  C   UNL     1      46.406   0.987   7.906  0.00  0.00    +0.000 C 
ATOM     14  C   UNL     1      47.514   1.689   7.134  0.00  0.00    +0.000 C 
ATOM     15  C   UNL     1      46.948   2.811   6.273  0.00  0.00    +0.000 C 
ATOM     16  C   UNL     1      46.154   3.816   7.108  0.00  0.00    +0.000 C 
ENDBRANCH   9  11
ENDBRANCH   8   9
ENDBRANCH   5   8
ENDBRANCH   1   2
BRANCH   1  19
ATOM     17  O   UNL     1      50.014   6.672  15.086  0.00  0.00    +0.000 OA
ATOM     18  C   UNL     1      48.902   6.518  15.628  0.00  0.00    +0.000 C 
ATOM     19  N   UNL     1      47.724   6.647  14.951  0.00  0.00    +0.000 N 
ATOM     20  H   UNL     1      46.853   6.695  15.468  0.00  0.00    +0.000 HD
BRANCH  18  21
ATOM     21  C   UNL     1      48.787   6.153  17.032  0.00  0.00    +0.000 A 
ATOM     22  C   UNL     1      49.004   4.866  17.500  0.00  0.00    +0.000 A 
ATOM     23  S   UNL     1      48.872   4.753  19.206  0.00  0.00    +0.000 S 
ATOM     24  C   UNL     1      48.523   6.415  19.348  0.00  0.00    +0.000 A 
ATOM     25  N   UNL     1      48.312   7.002  20.554  0.00  0.00    +0.000 NA
ATOM     26  C   UNL     1      48.067   8.270  20.493  0.00  0.00    +0.000 A 
ATOM     27  N   UNL     1      48.005   9.003  19.337  0.00  0.00    +0.000 N 
ATOM     28  C   UNL     1      48.135   8.452  18.095  0.00  0.00    +0.000 A 
ATOM     29  O   UNL     1      47.890   9.120  17.094  0.00  0.00    +0.000 OA
ATOM     30  C   UNL     1      48.470   7.038  18.116  0.00  0.00    +0.000 A 
ATOM     31  H   UNL     1      47.753   9.981  19.362  0.00  0.00    +0.000 HD
ENDBRANCH  18  21
ENDBRANCH   1  19
TORSDOF 6
ENDMDL
MODEL 5
REMARK VINA RESULT:    -7.638      2.568      4.367
REMARK INTER + INTRA:         -11.468
REMARK INTER:                 -10.363
REMARK INTRA:                  -1.105
REMARK UNBOUND:                -1.152
REMARK  Name = 
REMARK  6 active torsions:
REMARK  status: ('A' for Active; 'I' for Inactive)
REMARK    1  A    between atoms: C_2  and  C_19
REMARK    2  A    between atoms: N_3  and  C_4
REMARK    3  A    between atoms: C_4  and  C_5
REMARK    4  A    between atoms: C_8  and  C_9
REMARK    5  A    between atoms: C_9  and  N_10
REMARK    6  A    between atoms: N_10  and  C_11
REMARK                            x       y       z     vdW  Elec       q    Type
REMARK                         _______ _______ _______ _____ _____    ______ ____
ROOT
ATOM      1  C   UNL     1      47.339   5.573  14.368  0.00  0.00    +0.000 C 
ENDROOT
BRANCH   1   2
ATOM      2  C   UNL     1      46.511   5.209  13.166  0.00  0.00    +0.000 A 
ATOM      3  C   UNL     1      46.341   6.106  12.100  0.00  0.00    +0.000 A 
ATOM      4  C   UNL     1      45.568   5.755  10.987  0.00  0.00    +0.000 A 
ATOM      5  C   UNL     1      44.985   4.484  10.902  0.00  0.00    +0.000 A 
ATOM      6  C   UNL     1      45.179   3.584  11.958  0.00  0.00    +0.000 A 
ATOM      7  C   UNL     1      45.922   3.943  13.081  0.00  0.00    +0.000 A 
BRANCH   5   8
ATOM      8  C   UNL     1      44.114   4.064   9.740  0.00  0.00    +0.000 C 
BRANCH   8   9
ATOM      9  N   UNL     1      44.699   4.382   8.442  0.00  0.00    +0.000 NA
ATOM     10  H   UNL     1      45.397   5.112   8.564  0.00  0.00    +0.000 HD
BRANCH   9  11
ATOM     11  C   UNL     1      45.277   3.228   7.734  0.00  0.00    +0.000 C 
ATOM     12  C   UNL     1      45.711   2.053   8.633  0.00  0.00    +0.000 C 
ATOM     13  C   UNL     1      46.407   0.944   7.842  0.00  0.00    +0.000 C 
ATOM     14  C   UNL     1      47.607   1.493   7.082  0.00  0.00    +0.000 C 
ATOM     15  C   UNL     1      47.186   2.620   6.146  0.00  0.00    +0.000 C 
ATOM     16  C   UNL     1      46.470   3.740   6.901  0.00  0.00    +0.000 C 
ENDBRANCH   9  11
ENDBRANCH   8   9
ENDBRANCH   5   8
ENDBRANCH   1   2
BRANCH   1  19
ATOM     17  O   UNL     1      49.798   6.541  15.267  0.00  0.00    +0.000 OA
ATOM     18  C   UNL     1      48.936   7.347  14.865  0.00  0.00    +0.000 C 
ATOM     19  N   UNL     1      47.699   6.958  14.440  0.00  0.00    +0.000 N 
ATOM     20  H   UNL     1      47.105   7.621  13.955  0.00  0.00    +0.000 HD
BRANCH  18  21
ATOM     21  C   UNL     1      49.186   8.781  14.855  0.00  0.00    +0.000 A 
ATOM     22  C   UNL     1      49.222   9.552  16.007  0.00  0.00    +0.000 A 
ATOM     23  S   UNL     1      49.612  11.192  15.691  0.00  0.00    +0.000 S 
ATOM     24  C   UNL     1      49.735  10.901  14.016  0.00  0.00    +0.000 A 
ATOM     25  N   UNL     1      50.063  11.886  13.141  0.00  0.00    +0.000 NA
ATOM     26  C   UNL     1      50.123  11.504  11.908  0.00  0.00    +0.000 A 
ATOM     27  N   UNL     1      49.878  10.229  11.468  0.00  0.00    +0.000 N 
ATOM     28  C   UNL     1      49.474   9.219  12.292  0.00  0.00    +0.000 A 
ATOM     29  O   UNL     1      49.095   8.151  11.821  0.00  0.00    +0.000 OA
ATOM     30  C   UNL     1      49.448   9.588  13.698  0.00  0.00    +0.000 A 
ATOM     31  H   UNL     1      49.890  10.015  10.481  0.00  0.00    +0.000 HD
ENDBRANCH  18  21
ENDBRANCH   1  19
TORSDOF 6
ENDMDL
MODEL 6
REMARK VINA RESULT:    -7.594      2.750      3.972
REMARK INTER + INTRA:         -11.409
REMARK INTER:                 -10.492
REMARK INTRA:                  -0.917
REMARK UNBOUND:                -1.152
REMARK  Name = 
REMARK  6 active torsions:
REMARK  status: ('A' for Active; 'I' for Inactive)
REMARK    1  A    between atoms: C_2  and  C_19
REMARK    2  A    between atoms: N_3  and  C_4
REMARK    3  A    between atoms: C_4  and  C_5
REMARK    4  A    between atoms: C_8  and  C_9
REMARK    5  A    between atoms: C_9  and  N_10
REMARK    6  A    between atoms: N_10  and  C_11
REMARK                            x       y       z     vdW  Elec       q    Type
REMARK                         _______ _______ _______ _____ _____    ______ ____
ROOT
ATOM      1  C   UNL     1      47.322   5.676  14.447  0.00  0.00    +0.000 C 
ENDROOT
BRANCH   1   2
ATOM      2  C   UNL     1      46.520   5.323  13.224  0.00  0.00    +0.000 A 
ATOM      3  C   UNL     1      46.455   6.189  12.122  0.00  0.00    +0.000 A 
ATOM      4  C   UNL     1      45.705   5.849  10.990  0.00  0.00    +0.000 A 
ATOM      5  C   UNL     1      45.041   4.618  10.924  0.00  0.00    +0.000 A 
ATOM      6  C   UNL     1      45.131   3.746  12.018  0.00  0.00    +0.000 A 
ATOM      7  C   UNL     1      45.851   4.097  13.158  0.00  0.00    +0.000 A 
BRANCH   5   8
ATOM      8  C   UNL     1      44.191   4.213   9.741  0.00  0.00    +0.000 C 
BRANCH   8   9
ATOM      9  N   UNL     1      44.823   4.499   8.458  0.00  0.00    +0.000 NA
ATOM     10  H   UNL     1      45.566   5.180   8.599  0.00  0.00    +0.000 HD
BRANCH   9  11
ATOM     11  C   UNL     1      45.336   3.313   7.752  0.00  0.00    +0.000 C 
ATOM     12  C   UNL     1      45.751   2.136   8.658  0.00  0.00    +0.000 C 
ATOM     13  C   UNL     1      46.383   0.990   7.867  0.00  0.00    +0.000 C 
ATOM     14  C   UNL     1      47.579   1.481   7.064  0.00  0.00    +0.000 C 
ATOM     15  C   UNL     1      47.175   2.609   6.122  0.00  0.00    +0.000 C 
ATOM     16  C   UNL     1      46.523   3.766   6.878  0.00  0.00    +0.000 C 
ENDBRANCH   9  11
ENDBRANCH   8   9
ENDBRANCH   5   8
ENDBRANCH   1   2
BRANCH   1  19
ATOM     17  O   UNL     1      49.825   6.448  15.414  0.00  0.00    +0.000 OA
ATOM     18  C   UNL     1      49.067   7.310  14.927  0.00  0.00    +0.000 C 
ATOM     19  N   UNL     1      47.817   7.020  14.462  0.00  0.00    +0.000 N 
ATOM     20  H   UNL     1      47.315   7.708  13.913  0.00  0.00    +0.000 HD
BRANCH  18  21
ATOM     21  C   UNL     1      49.460   8.709  14.852  0.00  0.00    +0.000 A 
ATOM     22  C   UNL     1      50.299   9.209  13.867  0.00  0.00    +0.000 A 
ATOM     23  S   UNL     1      50.523  10.905  13.990  0.00  0.00    +0.000 S 
ATOM     24  C   UNL     1      49.510  10.999  15.356  0.00  0.00    +0.000 A 
ATOM     25  N   UNL     1      49.245  12.181  15.971  0.00  0.00    +0.000 NA
ATOM     26  C   UNL     1      48.453  12.086  16.987  0.00  0.00    +0.000 A 
ATOM     27  N   UNL     1      47.907  10.918  17.451  0.00  0.00    +0.000 N 
ATOM     28  C   UNL     1      48.196   9.695  16.919  0.00  0.00    +0.000 A 
ATOM     29  O   UNL     1      47.825   8.671  17.486  0.00  0.00    +0.000 OA
ATOM     30  C   UNL     1      49.038   9.758  15.736  0.00  0.00    +0.000 A 
ATOM     31  H   UNL     1      47.339  10.912  18.287  0.00  0.00    +0.000 HD
ENDBRANCH  18  21
ENDBRANCH   1  19
TORSDOF 6
ENDMDL
MODEL 7
REMARK VINA RESULT:    -7.406      2.008      3.466
REMARK INTER + INTRA:         -11.155
REMARK INTER:                 -10.372
REMARK INTRA:                  -0.783
REMARK UNBOUND:                -1.152
REMARK  Name = 
REMARK  6 active torsions:
REMARK  status: ('A' for Active; 'I' for Inactive)
REMARK    1  A    between atoms: C_2  and  C_19
REMARK    2  A    between atoms: N_3  and  C_4
REMARK    3  A    between atoms: C_4  and  C_5
REMARK    4  A    between atoms: C_8  and  C_9
REMARK    5  A    between atoms: C_9  and  N_10
REMARK    6  A    between atoms: N_10  and  C_11
REMARK                            x       y       z     vdW  Elec       q    Type
REMARK                         _______ _______ _______ _____ _____    ______ ____
ROOT
ATOM      1  C   UNL     1      47.205   4.328  15.028  0.00  0.00    +0.000 C 
ENDROOT
BRANCH   1   2
ATOM      2  C   UNL     1      46.460   4.412  13.723  0.00  0.00    +0.000 A 
ATOM      3  C   UNL     1      46.364   5.621  13.018  0.00  0.00    +0.000 A 
ATOM      4  C   UNL     1      45.668   5.686  11.805  0.00  0.00    +0.000 A 
ATOM      5  C   UNL     1      45.090   4.534  11.256  0.00  0.00    +0.000 A 
ATOM      6  C   UNL     1      45.212   3.324  11.954  0.00  0.00    +0.000 A 
ATOM      7  C   UNL     1      45.877   3.264  13.178  0.00  0.00    +0.000 A 
BRANCH   5   8
ATOM      8  C   UNL     1      44.300   4.553   9.968  0.00  0.00    +0.000 C 
BRANCH   8   9
ATOM      9  N   UNL     1      45.130   4.784   8.791  0.00  0.00    +0.000 NA
ATOM     10  H   UNL     1      45.983   5.260   9.075  0.00  0.00    +0.000 HD
BRANCH   9  11
ATOM     11  C   UNL     1      45.449   3.569   8.022  0.00  0.00    +0.000 C 
ATOM     12  C   UNL     1      45.793   2.325   8.867  0.00  0.00    +0.000 C 
ATOM     13  C   UNL     1      46.227   1.140   8.003  0.00  0.00    +0.000 C 
ATOM     14  C   UNL     1      47.409   1.517   7.121  0.00  0.00    +0.000 C 
ATOM     15  C   UNL     1      47.068   2.712   6.239  0.00  0.00    +0.000 C 
ATOM     16  C   UNL     1      46.612   3.912   7.068  0.00  0.00    +0.000 C 
ENDBRANCH   9  11
ENDBRANCH   8   9
ENDBRANCH   5   8
ENDBRANCH   1   2
BRANCH   1  19
ATOM     17  O   UNL     1      49.291   4.590  16.865  0.00  0.00    +0.000 OA
ATOM     18  C   UNL     1      48.790   5.615  16.361  0.00  0.00    +0.000 C 
ATOM     19  N   UNL     1      47.748   5.574  15.481  0.00  0.00    +0.000 N 
ATOM     20  H   UNL     1      47.498   6.408  14.962  0.00  0.00    +0.000 HD
BRANCH  18  21
ATOM     21  C   UNL     1      49.270   6.944  16.711  0.00  0.00    +0.000 A 
ATOM     22  C   UNL     1      49.216   7.455  17.998  0.00  0.00    +0.000 A 
ATOM     23  S   UNL     1      49.923   9.012  18.120  0.00  0.00    +0.000 S 
ATOM     24  C   UNL     1      50.310   9.031  16.461  0.00  0.00    +0.000 A 
ATOM     25  N   UNL     1      50.954  10.080  15.888  0.00  0.00    +0.000 NA
ATOM     26  C   UNL     1      51.181   9.938  14.623  0.00  0.00    +0.000 A 
ATOM     27  N   UNL     1      50.817   8.849  13.877  0.00  0.00    +0.000 N 
ATOM     28  C   UNL     1      50.104   7.801  14.384  0.00  0.00    +0.000 A 
ATOM     29  O   UNL     1      49.649   6.942  13.633  0.00  0.00    +0.000 OA
ATOM     30  C   UNL     1      49.875   7.889  15.817  0.00  0.00    +0.000 A 
ATOM     31  H   UNL     1      50.978   8.831  12.880  0.00  0.00    +0.000 HD
ENDBRANCH  18  21
ENDBRANCH   1  19
TORSDOF 6
ENDMDL
MODEL 8
REMARK VINA RESULT:    -7.293      2.536      3.170
REMARK INTER + INTRA:         -11.003
REMARK INTER:                 -10.029
REMARK INTRA:                  -0.974
REMARK UNBOUND:                -1.152
REMARK  Name = 
REMARK  6 active torsions:
REMARK  status: ('A' for Active; 'I' for Inactive)
REMARK    1  A    between atoms: C_2  and  C_19
REMARK    2  A    between atoms: N_3  and  C_4
REMARK    3  A    between atoms: C_4  and  C_5
REMARK    4  A    between atoms: C_8  and  C_9
REMARK    5  A    between atoms: C_9  and  N_10
REMARK    6  A    between atoms: N_10  and  C_11
REMARK                            x       y       z     vdW  Elec       q    Type
REMARK                         _______ _______ _______ _____ _____    ______ ____
ROOT
ATOM      1  C   UNL     1      47.539   4.162  15.662  0.00  0.00    +0.000 C 
ENDROOT
BRANCH   1   2
ATOM      2  C   UNL     1      46.943   4.587  14.347  0.00  0.00    +0.000 A 
ATOM      3  C   UNL     1      45.834   3.922  13.803  0.00  0.00    +0.000 A 
ATOM      4  C   UNL     1      45.290   4.326  12.578  0.00  0.00    +0.000 A 
ATOM      5  C   UNL     1      45.820   5.429  11.896  0.00  0.00    +0.000 A 
ATOM      6  C   UNL     1      46.912   6.104  12.458  0.00  0.00    +0.000 A 
ATOM      7  C   UNL     1      47.476   5.683  13.661  0.00  0.00    +0.000 A 
BRANCH   5   8
ATOM      8  C   UNL     1      45.293   5.888  10.556  0.00  0.00    +0.000 C 
BRANCH   8   9
ATOM      9  N   UNL     1      44.134   5.125  10.105  0.00  0.00    +0.000 NA
ATOM     10  H   UNL     1      43.445   5.767   9.720  0.00  0.00    +0.000 HD
BRANCH   9  11
ATOM     11  C   UNL     1      44.443   4.059   9.138  0.00  0.00    +0.000 C 
ATOM     12  C   UNL     1      44.583   2.645   9.738  0.00  0.00    +0.000 C 
ATOM     13  C   UNL     1      45.020   1.614   8.696  0.00  0.00    +0.000 C 
ATOM     14  C   UNL     1      46.325   2.034   8.034  0.00  0.00    +0.000 C 
ATOM     15  C   UNL     1      46.188   3.407   7.387  0.00  0.00    +0.000 C 
ATOM     16  C   UNL     1      45.735   4.461   8.397  0.00  0.00    +0.000 C 
ENDBRANCH   9  11
ENDBRANCH   8   9
ENDBRANCH   5   8
ENDBRANCH   1   2
BRANCH   1  19
ATOM     17  O   UNL     1      49.699   5.716  16.506  0.00  0.00    +0.000 OA
ATOM     18  C   UNL     1      48.578   5.899  17.021  0.00  0.00    +0.000 C 
ATOM     19  N   UNL     1      47.480   5.161  16.688  0.00  0.00    +0.000 N 
ATOM     20  H   UNL     1      46.562   5.464  16.992  0.00  0.00    +0.000 HD
BRANCH  18  21
ATOM     21  C   UNL     1      48.374   6.906  18.052  0.00  0.00    +0.000 A 
ATOM     22  C   UNL     1      48.390   8.268  17.796  0.00  0.00    +0.000 A 
ATOM     23  S   UNL     1      48.044   9.207  19.189  0.00  0.00    +0.000 S 
ATOM     24  C   UNL     1      47.870   7.814  20.155  0.00  0.00    +0.000 A 
ATOM     25  N   UNL     1      47.552   7.893  21.473  0.00  0.00    +0.000 NA
ATOM     26  C   UNL     1      47.450   6.749  22.065  0.00  0.00    +0.000 A 
ATOM     27  N   UNL     1      47.643   5.533  21.463  0.00  0.00    +0.000 N 
ATOM     28  C   UNL     1      48.036   5.397  20.163  0.00  0.00    +0.000 A 
ATOM     29  O   UNL     1      48.370   4.298  19.729  0.00  0.00    +0.000 OA
ATOM     30  C   UNL     1      48.108   6.657  19.441  0.00  0.00    +0.000 A 
ATOM     31  H   UNL     1      47.601   4.680  22.002  0.00  0.00    +0.000 HD
ENDBRANCH  18  21
ENDBRANCH   1  19
TORSDOF 6
ENDMDL
MODEL 9
REMARK VINA RESULT:    -7.151      2.963      4.141
REMARK INTER + INTRA:         -10.811
REMARK INTER:                  -9.613
REMARK INTRA:                  -1.198
REMARK UNBOUND:                -1.152
REMARK  Name = 
REMARK  6 active torsions:
REMARK  status: ('A' for Active; 'I' for Inactive)
REMARK    1  A    between atoms: C_2  and  C_19
REMARK    2  A    between atoms: N_3  and  C_4
REMARK    3  A    between atoms: C_4  and  C_5
REMARK    4  A    between atoms: C_8  and  C_9
REMARK    5  A    between atoms: C_9  and  N_10
REMARK    6  A    between atoms: N_10  and  C_11
REMARK                            x       y       z     vdW  Elec       q    Type
REMARK                         _______ _______ _______ _____ _____    ______ ____
ROOT
ATOM      1  C   UNL     1      48.086   5.066  15.934  0.00  0.00    +0.000 C 
ENDROOT
BRANCH   1   2
ATOM      2  C   UNL     1      47.473   5.356  14.590  0.00  0.00    +0.000 A 
ATOM      3  C   UNL     1      47.930   6.421  13.798  0.00  0.00    +0.000 A 
ATOM      4  C   UNL     1      47.352   6.681  12.550  0.00  0.00    +0.000 A 
ATOM      5  C   UNL     1      46.334   5.856  12.055  0.00  0.00    +0.000 A 
ATOM      6  C   UNL     1      45.900   4.779  12.840  0.00  0.00    +0.000 A 
ATOM      7  C   UNL     1      46.453   4.538  14.097  0.00  0.00    +0.000 A 
BRANCH   5   8
ATOM      8  C   UNL     1      45.652   6.110  10.730  0.00  0.00    +0.000 C 
BRANCH   8   9
ATOM      9  N   UNL     1      44.417   5.351  10.567  0.00  0.00    +0.000 NA
ATOM     10  H   UNL     1      43.656   5.996  10.367  0.00  0.00    +0.000 HD
BRANCH   9  11
ATOM     11  C   UNL     1      44.481   4.294   9.544  0.00  0.00    +0.000 C 
ATOM     12  C   UNL     1      44.551   2.853  10.089  0.00  0.00    +0.000 C 
ATOM     13  C   UNL     1      44.734   1.821   8.975  0.00  0.00    +0.000 C 
ATOM     14  C   UNL     1      45.975   2.130   8.150  0.00  0.00    +0.000 C 
ATOM     15  C   UNL     1      45.897   3.532   7.558  0.00  0.00    +0.000 C 
ATOM     16  C   UNL     1      45.696   4.590   8.642  0.00  0.00    +0.000 C 
ENDBRANCH   9  11
ENDBRANCH   8   9
ENDBRANCH   5   8
ENDBRANCH   1   2
BRANCH   1  19
ATOM     17  O   UNL     1      49.814   5.996  17.919  0.00  0.00    +0.000 OA
ATOM     18  C   UNL     1      48.645   6.426  17.878  0.00  0.00    +0.000 C 
ATOM     19  N   UNL     1      47.729   5.998  16.961  0.00  0.00    +0.000 N 
ATOM     20  H   UNL     1      46.858   6.504  16.850  0.00  0.00    +0.000 HD
BRANCH  18  21
ATOM     21  C   UNL     1      48.163   7.403  18.844  0.00  0.00    +0.000 A 
ATOM     22  C   UNL     1      47.941   7.103  20.180  0.00  0.00    +0.000 A 
ATOM     23  S   UNL     1      47.448   8.470  21.090  0.00  0.00    +0.000 S 
ATOM     24  C   UNL     1      47.519   9.481  19.721  0.00  0.00    +0.000 A 
ATOM     25  N   UNL     1      47.231  10.806  19.793  0.00  0.00    +0.000 NA
ATOM     26  C   UNL     1      47.339  11.436  18.670  0.00  0.00    +0.000 A 
ATOM     27  N   UNL     1      47.700  10.863  17.479  0.00  0.00    +0.000 N 
ATOM     28  C   UNL     1      47.928   9.525  17.333  0.00  0.00    +0.000 A 
ATOM     29  O   UNL     1      48.069   9.041  16.214  0.00  0.00    +0.000 OA
ATOM     30  C   UNL     1      47.875   8.784  18.582  0.00  0.00    +0.000 A 
ATOM     31  H   UNL     1      47.710  11.407  16.628  0.00  0.00    +0.000 HD
ENDBRANCH  18  21
ENDBRANCH   1  19
TORSDOF 6
ENDMDL
