MODEL 1
REMARK VINA RESULT:    -8.508      0.000      0.000
REMARK INTER + INTRA:         -12.505
REMARK INTER:                 -11.492
REMARK INTRA:                  -1.013
REMARK UNBOUND:                -1.013
REMARK  Name = 
REMARK  7 active torsions:
REMARK  status: ('A' for Active; 'I' for Inactive)
REMARK    1  A    between atoms: C_1  and  N_2
REMARK    2  A    between atoms: N_2  and  C_3
REMARK    3  A    between atoms: C_3  and  C_4
REMARK    4  A    between atoms: C_7  and  C_8
REMARK    5  A    between atoms: C_8  and  N_9
REMARK    6  A    between atoms: C_10  and  C_12
REMARK    7  A    between atoms: C_24  and  C_26
REMARK                            x       y       z     vdW  Elec       q    Type
REMARK                         _______ _______ _______ _____ _____    ______ ____
ROOT
ATOM      1  C   UNL     1      46.423   4.576  13.378  0.00  0.00    +0.000 A 
ATOM      2  C   UNL     1      46.970   5.757  12.866  0.00  0.00    +0.000 A 
ATOM      3  C   UNL     1      47.862   6.509  13.626  0.00  0.00    +0.000 A 
ATOM      4  C   UNL     1      48.194   6.125  14.934  0.00  0.00    +0.000 A 
ATOM      5  C   UNL     1      47.576   4.982  15.466  0.00  0.00    +0.000 A 
ATOM      6  C   UNL     1      46.716   4.203  14.689  0.00  0.00    +0.000 A 
ENDROOT
BRANCH   1   7
ATOM      7  C   UNL     1      45.511   3.753  12.520  0.00  0.00    +0.000 C 
BRANCH   7   9
ATOM      8  C   UNL     1      43.348   5.033  12.960  0.00  0.00    +0.000 C 
ATOM      9  N   UNL     1      44.250   4.340  12.046  0.00  0.00    +0.000 N 
ATOM     10  C   UNL     1      43.926   4.478  10.683  0.00  0.00    +0.000 C 
ATOM     11  O   UNL     1      42.964   5.151  10.309  0.00  0.00    +0.000 OA
BRANCH  10  12
ATOM     12  C   UNL     1      44.752   3.837   9.618  0.00  0.00    +0.000 A 
ATOM     13  C   UNL     1      45.573   4.558   8.750  0.00  0.00    +0.000 A 
ATOM     14  C   UNL     1      46.310   3.922   7.757  0.00  0.00    +0.000 A 
ATOM     15  C   UNL     1      46.311   2.534   7.701  0.00  0.00    +0.000 A 
ATOM     16  C   UNL     1      45.564   1.789   8.601  0.00  0.00    +0.000 A 
ATOM     17  C   UNL     1      44.771   2.438   9.549  0.00  0.00    +0.000 A 
ENDBRANCH  10  12
ENDBRANCH   7   9
ENDBRANCH   1   7
BRANCH   4  18
ATOM     18  C   UNL     1      49.189   6.886  15.781  0.00  0.00    +0.000 C 
BRANCH  18  19
ATOM     19  N   UNL     1      50.196   6.039  16.367  0.00  0.00    +0.000 N 
ATOM     20  C   UNL     1      50.241   5.780  17.712  0.00  0.00    +0.000 C 
ATOM     21  O   UNL     1      49.434   6.236  18.513  0.00  0.00    +0.000 OA
ATOM     22  H   UNL     1      51.077   5.985  15.873  0.00  0.00    +0.000 HD
BRANCH  20  23
ATOM     23  C   UNL     1      51.313   4.865  18.125  0.00  0.00    +0.000 A 
ATOM     24  C   UNL     1      52.402   5.338  18.842  0.00  0.00    +0.000 A 
ATOM     25  S   UNL     1      53.537   4.124  19.231  0.00  0.00    +0.000 S 
ATOM     26  C   UNL     1      52.621   2.931  18.433  0.00  0.00    +0.000 A 
ATOM     27  N   UNL     1      53.053   1.642  18.364  0.00  0.00    +0.000 NA
ATOM     28  C   UNL     1      52.266   0.849  17.714  0.00  0.00    +0.000 A 
ATOM     29  N   UNL     1      51.083   1.218  17.132  0.00  0.00    +0.000 N 
ATOM     30  C   UNL     1      50.581   2.503  17.218  0.00  0.00    +0.000 A 
ATOM     31  O   UNL     1      49.483   2.782  16.771  0.00  0.00    +0.000 OA
ATOM     32  C   UNL     1      51.452   3.442  17.907  0.00  0.00    +0.000 A 
ATOM     33  H   UNL     1      50.499   0.546  16.666  0.00  0.00    +0.000 HD
ENDBRANCH  20  23
ENDBRANCH  18  19
ENDBRANCH   4  18
TORSDOF 6
ENDMDL
MODEL 2
REMARK VINA RESULT:    -7.923      2.555      3.008
REMARK INTER + INTRA:         -11.714
REMARK INTER:                 -11.335
REMARK INTRA:                  -0.379
REMARK UNBOUND:                -1.013
REMARK  Name = 
REMARK  7 active torsions:
REMARK  status: ('A' for Active; 'I' for Inactive)
REMARK    1  A    between atoms: C_1  and  N_2
REMARK    2  A    between atoms: N_2  and  C_3
REMARK    3  A    between atoms: C_3  and  C_4
REMARK    4  A    between atoms: C_7  and  C_8
REMARK    5  A    between atoms: C_8  and  N_9
REMARK    6  A    between atoms: C_10  and  C_12
REMARK    7  A    between atoms: C_24  and  C_26
REMARK                            x       y       z     vdW  Elec       q    Type
REMARK                         _______ _______ _______ _____ _____    ______ ____
ROOT
ATOM      1  C   UNL     1      45.427   6.143  11.207  0.00  0.00    +0.000 A 
ATOM      2  C   UNL     1      45.049   7.475  11.405  0.00  0.00    +0.000 A 
ATOM      3  C   UNL     1      45.733   8.275  12.316  0.00  0.00    +0.000 A 
ATOM      4  C   UNL     1      46.783   7.753  13.086  0.00  0.00    +0.000 A 
ATOM      5  C   UNL     1      47.101   6.393  12.937  0.00  0.00    +0.000 A 
ATOM      6  C   UNL     1      46.445   5.601  11.992  0.00  0.00    +0.000 A 
ENDROOT
BRANCH   1   7
ATOM      7  C   UNL     1      44.714   5.318  10.180  0.00  0.00    +0.000 C 
BRANCH   7   9
ATOM      8  C   UNL     1      43.143   3.927  11.631  0.00  0.00    +0.000 C 
ATOM      9  N   UNL     1      44.143   4.022  10.573  0.00  0.00    +0.000 N 
ATOM     10  C   UNL     1      44.334   2.838   9.837  0.00  0.00    +0.000 C 
ATOM     11  O   UNL     1      43.685   1.817  10.069  0.00  0.00    +0.000 OA
BRANCH  10  12
ATOM     12  C   UNL     1      45.316   2.768   8.715  0.00  0.00    +0.000 A 
ATOM     13  C   UNL     1      45.711   3.883   7.975  0.00  0.00    +0.000 A 
ATOM     14  C   UNL     1      46.614   3.770   6.924  0.00  0.00    +0.000 A 
ATOM     15  C   UNL     1      47.215   2.541   6.679  0.00  0.00    +0.000 A 
ATOM     16  C   UNL     1      46.898   1.433   7.449  0.00  0.00    +0.000 A 
ATOM     17  C   UNL     1      45.937   1.539   8.457  0.00  0.00    +0.000 A 
ENDBRANCH  10  12
ENDBRANCH   7   9
ENDBRANCH   1   7
BRANCH   4  18
ATOM     18  C   UNL     1      47.581   8.594  14.056  0.00  0.00    +0.000 C 
BRANCH  18  19
ATOM     19  N   UNL     1      47.916   7.892  15.268  0.00  0.00    +0.000 N 
ATOM     20  C   UNL     1      49.177   7.414  15.512  0.00  0.00    +0.000 C 
ATOM     21  O   UNL     1      50.112   7.552  14.731  0.00  0.00    +0.000 OA
ATOM     22  H   UNL     1      47.159   7.400  15.724  0.00  0.00    +0.000 HD
BRANCH  20  23
ATOM     23  C   UNL     1      49.344   6.758  16.814  0.00  0.00    +0.000 A 
ATOM     24  C   UNL     1      50.049   7.385  17.832  0.00  0.00    +0.000 A 
ATOM     25  S   UNL     1      50.131   6.466  19.267  0.00  0.00    +0.000 S 
ATOM     26  C   UNL     1      49.248   5.188  18.568  0.00  0.00    +0.000 A 
ATOM     27  N   UNL     1      48.984   4.052  19.268  0.00  0.00    +0.000 NA
ATOM     28  C   UNL     1      48.319   3.160  18.607  0.00  0.00    +0.000 A 
ATOM     29  N   UNL     1      47.886   3.300  17.316  0.00  0.00    +0.000 N 
ATOM     30  C   UNL     1      48.088   4.454  16.583  0.00  0.00    +0.000 A 
ATOM     31  O   UNL     1      47.613   4.586  15.470  0.00  0.00    +0.000 OA
ATOM     32  C   UNL     1      48.867   5.471  17.272  0.00  0.00    +0.000 A 
ATOM     33  H   UNL     1      47.346   2.581  16.867  0.00  0.00    +0.000 HD
ENDBRANCH  20  23
ENDBRANCH  18  19
ENDBRANCH   4  18
TORSDOF 6
ENDMDL
MODEL 3
REMARK VINA RESULT:    -7.750      3.486     10.074
REMARK INTER + INTRA:         -11.480
REMARK INTER:                  -9.820
REMARK INTRA:                  -1.660
REMARK UNBOUND:                -1.013
REMARK  Name = 
REMARK  7 active torsions:
REMARK  status: ('A' for Active; 'I' for Inactive)
REMARK    1  A    between atoms: C_1  and  N_2
REMARK    2  A    between atoms: N_2  and  C_3
REMARK    3  A    between atoms: C_3  and  C_4
REMARK    4  A    between atoms: C_7  and  C_8
REMARK    5  A    between atoms: C_8  and  N_9
REMARK    6  A    between atoms: C_10  and  C_12
REMARK    7  A    between atoms: C_24  and  C_26
REMARK                            x       y       z     vdW  Elec       q    Type
REMARK                         _______ _______ _______ _____ _____    ______ ____
ROOT
ATOM      1  C   UNL     1      51.374   3.988  17.760  0.00  0.00    +0.000 A 
ATOM      2  C   UNL     1      50.613   5.121  17.454  0.00  0.00    +0.000 A 
ATOM      3  C   UNL     1      49.269   4.998  17.111  0.00  0.00    +0.000 A 
ATOM      4  C   UNL     1      48.663   3.736  17.021  0.00  0.00    +0.000 A 
ATOM      5  C   UNL     1      49.457   2.601  17.250  0.00  0.00    +0.000 A 
ATOM      6  C   UNL     1      50.793   2.726  17.637  0.00  0.00    +0.000 A 
ENDROOT
BRANCH   1   7
ATOM      7  C   UNL     1      52.802   4.149  18.182  0.00  0.00    +0.000 C 
BRANCH   7   9
ATOM      8  C   UNL     1      54.265   2.556  19.534  0.00  0.00    +0.000 C 
ATOM      9  N   UNL     1      53.237   3.588  19.468  0.00  0.00    +0.000 N 
ATOM     10  C   UNL     1      52.877   4.140  20.713  0.00  0.00    +0.000 C 
ATOM     11  O   UNL     1      53.414   3.780  21.762  0.00  0.00    +0.000 OA
BRANCH  10  12
ATOM     12  C   UNL     1      51.845   5.212  20.821  0.00  0.00    +0.000 A 
ATOM     13  C   UNL     1      52.108   6.556  20.549  0.00  0.00    +0.000 A 
ATOM     14  C   UNL     1      51.121   7.526  20.682  0.00  0.00    +0.000 A 
ATOM     15  C   UNL     1      49.823   7.133  20.985  0.00  0.00    +0.000 A 
ATOM     16  C   UNL     1      49.518   5.796  21.185  0.00  0.00    +0.000 A 
ATOM     17  C   UNL     1      50.530   4.835  21.120  0.00  0.00    +0.000 A 
ENDBRANCH  10  12
ENDBRANCH   7   9
ENDBRANCH   1   7
BRANCH   4  18
ATOM     18  C   UNL     1      47.198   3.556  16.694  0.00  0.00    +0.000 C 
BRANCH  18  19
ATOM     19  N   UNL     1      46.728   4.473  15.687  0.00  0.00    +0.000 N 
ATOM     20  C   UNL     1      46.761   4.171  14.350  0.00  0.00    +0.000 C 
ATOM     21  O   UNL     1      47.179   3.106  13.910  0.00  0.00    +0.000 OA
ATOM     22  H   UNL     1      46.772   5.456  15.922  0.00  0.00    +0.000 HD
BRANCH  20  23
ATOM     23  C   UNL     1      46.207   5.210  13.473  0.00  0.00    +0.000 A 
ATOM     24  C   UNL     1      46.937   6.356  13.193  0.00  0.00    +0.000 A 
ATOM     25  S   UNL     1      46.125   7.440  12.154  0.00  0.00    +0.000 S 
ATOM     26  C   UNL     1      44.762   6.423  12.063  0.00  0.00    +0.000 A 
ATOM     27  N   UNL     1      43.667   6.781  11.339  0.00  0.00    +0.000 NA
ATOM     28  C   UNL     1      42.701   5.922  11.373  0.00  0.00    +0.000 A 
ATOM     29  N   UNL     1      42.728   4.735  12.054  0.00  0.00    +0.000 N 
ATOM     30  C   UNL     1      43.836   4.308  12.761  0.00  0.00    +0.000 A 
ATOM     31  O   UNL     1      43.867   3.208  13.281  0.00  0.00    +0.000 OA
ATOM     32  C   UNL     1      44.935   5.261  12.785  0.00  0.00    +0.000 A 
ATOM     33  H   UNL     1      41.955   4.094  12.016  0.00  0.00    +0.000 HD
ENDBRANCH  20  23
ENDBRANCH  18  19
ENDBRANCH   4  18
TORSDOF 6
ENDMDL
MODEL 4
REMARK VINA RESULT:    -7.724      3.388      4.006
REMARK INTER + INTRA:         -11.446
REMARK INTER:                 -10.429
REMARK INTRA:                  -1.017
REMARK UNBOUND:                -1.013
REMARK  Name = 
REMARK  7 active torsions:
REMARK  status: ('A' for Active; 'I' for Inactive)
REMARK    1  A    between atoms: C_1  and  N_2
REMARK    2  A    between atoms: N_2  and  C_3
REMARK    3  A    between atoms: C_3  and  C_4
REMARK    4  A    between atoms: C_7  and  C_8
REMARK    5  A    between atoms: C_8  and  N_9
REMARK    6  A    between atoms: C_10  and  C_12
REMARK    7  A    between atoms: C_24  and  C_26
REMARK                            x       y       z     vdW  Elec       q    Type
REMARK                         _______ _______ _______ _____ _____    ______ ____
ROOT
ATOM      1  C   UNL     1      46.404   4.633  13.285  0.00  0.00    +0.000 A 
ATOM      2  C   UNL     1      46.787   5.829  12.670  0.00  0.00    +0.000 A 
ATOM      3  C   UNL     1      47.754   6.645  13.252  0.00  0.00    +0.000 A 
ATOM      4  C   UNL     1      48.329   6.308  14.487  0.00  0.00    +0.000 A 
ATOM      5  C   UNL     1      47.878   5.147  15.134  0.00  0.00    +0.000 A 
ATOM      6  C   UNL     1      46.941   4.306  14.530  0.00  0.00    +0.000 A 
ENDROOT
BRANCH   1   7
ATOM      7  C   UNL     1      45.404   3.744  12.612  0.00  0.00    +0.000 C 
BRANCH   7   9
ATOM      8  C   UNL     1      43.239   5.052  12.944  0.00  0.00    +0.000 C 
ATOM      9  N   UNL     1      44.167   4.330  12.079  0.00  0.00    +0.000 N 
ATOM     10  C   UNL     1      43.894   4.439  10.703  0.00  0.00    +0.000 C 
ATOM     11  O   UNL     1      42.952   5.112  10.278  0.00  0.00    +0.000 OA
BRANCH  10  12
ATOM     12  C   UNL     1      44.750   3.767   9.682  0.00  0.00    +0.000 A 
ATOM     13  C   UNL     1      44.782   2.383   9.503  0.00  0.00    +0.000 A 
ATOM     14  C   UNL     1      45.610   1.797   8.554  0.00  0.00    +0.000 A 
ATOM     15  C   UNL     1      46.338   2.612   7.696  0.00  0.00    +0.000 A 
ATOM     16  C   UNL     1      46.266   3.992   7.801  0.00  0.00    +0.000 A 
ATOM     17  C   UNL     1      45.486   4.572   8.804  0.00  0.00    +0.000 A 
ENDBRANCH  10  12
ENDBRANCH   7   9
ENDBRANCH   1   7
BRANCH   4  18
ATOM     18  C   UNL     1      49.412   7.141  15.136  0.00  0.00    +0.000 C 
BRANCH  18  19
ATOM     19  N   UNL     1      49.144   7.433  16.521  0.00  0.00    +0.000 N 
ATOM     20  C   UNL     1      48.384   8.506  16.908  0.00  0.00    +0.000 C 
ATOM     21  O   UNL     1      47.871   9.289  16.116  0.00  0.00    +0.000 OA
ATOM     22  H   UNL     1      49.835   7.114  17.187  0.00  0.00    +0.000 HD
BRANCH  20  23
ATOM     23  C   UNL     1      48.185   8.626  18.358  0.00  0.00    +0.000 A 
ATOM     24  C   UNL     1      48.347   9.851  18.990  0.00  0.00    +0.000 A 
ATOM     25  S   UNL     1      48.070   9.787  20.672  0.00  0.00    +0.000 S 
ATOM     26  C   UNL     1      47.748   8.116  20.615  0.00  0.00    +0.000 A 
ATOM     27  N   UNL     1      47.460   7.417  21.747  0.00  0.00    +0.000 NA
ATOM     28  C   UNL     1      47.253   6.155  21.557  0.00  0.00    +0.000 A 
ATOM     29  N   UNL     1      47.299   5.525  20.342  0.00  0.00    +0.000 N 
ATOM     30  C   UNL     1      47.539   6.202  19.161  0.00  0.00    +0.000 A 
ATOM     31  O   UNL     1      47.483   5.634  18.086  0.00  0.00    +0.000 OA
ATOM     32  C   UNL     1      47.817   7.620  19.330  0.00  0.00    +0.000 A 
ATOM     33  H   UNL     1      47.098   4.544  20.255  0.00  0.00    +0.000 HD
ENDBRANCH  20  23
ENDBRANCH  18  19
ENDBRANCH   4  18
TORSDOF 6
ENDMDL
MODEL 5
REMARK VINA RESULT:    -7.633      3.596      8.739
REMARK INTER + INTRA:         -11.323
REMARK INTER:                  -9.521
REMARK INTRA:                  -1.802
REMARK UNBOUND:                -1.013
REMARK  Name = 
REMARK  7 active torsions:
REMARK  status: ('A' for Active; 'I' for Inactive)
REMARK    1  A    between atoms: C_1  and  N_2
REMARK    2  A    between atoms: N_2  and  C_3
REMARK    3  A    between atoms: C_3  and  C_4
REMARK    4  A    between atoms: C_7  and  C_8
REMARK    5  A    between atoms: C_8  and  N_9
REMARK    6  A    between atoms: C_10  and  C_12
REMARK    7  A    between atoms: C_24  and  C_26
REMARK                            x       y       z     vdW  Elec       q    Type
REMARK                         _______ _______ _______ _____ _____    ______ ____
ROOT
ATOM      1  C   UNL     1      49.192   7.845  16.242  0.00  0.00    +0.000 A 
ATOM      2  C   UNL     1      48.311   8.828  15.779  0.00  0.00    +0.000 A 
ATOM      3  C   UNL     1      47.831   8.787  14.473  0.00  0.00    +0.000 A 
ATOM      4  C   UNL     1      48.255   7.789  13.582  0.00  0.00    +0.000 A 
ATOM      5  C   UNL     1      49.202   6.856  14.034  0.00  0.00    +0.000 A 
ATOM      6  C   UNL     1      49.650   6.870  15.357  0.00  0.00    +0.000 A 
ENDROOT
BRANCH   1   7
ATOM      7  C   UNL     1      49.650   7.877  17.668  0.00  0.00    +0.000 C 
BRANCH   7   9
ATOM      8  C   UNL     1      48.148   8.824  19.499  0.00  0.00    +0.000 C 
ATOM      9  N   UNL     1      48.665   7.690  18.742  0.00  0.00    +0.000 N 
ATOM     10  C   UNL     1      47.991   6.475  18.969  0.00  0.00    +0.000 C 
ATOM     11  O   UNL     1      47.029   6.399  19.737  0.00  0.00    +0.000 OA
BRANCH  10  12
ATOM     12  C   UNL     1      48.390   5.219  18.268  0.00  0.00    +0.000 A 
ATOM     13  C   UNL     1      49.600   4.565  18.504  0.00  0.00    +0.000 A 
ATOM     14  C   UNL     1      49.941   3.407  17.813  0.00  0.00    +0.000 A 
ATOM     15  C   UNL     1      49.012   2.835  16.953  0.00  0.00    +0.000 A 
ATOM     16  C   UNL     1      47.772   3.423  16.759  0.00  0.00    +0.000 A 
ATOM     17  C   UNL     1      47.464   4.624  17.402  0.00  0.00    +0.000 A 
ENDBRANCH  10  12
ENDBRANCH   7   9
ENDBRANCH   1   7
BRANCH   4  18
ATOM     18  C   UNL     1      47.730   7.680  12.169  0.00  0.00    +0.000 C 
BRANCH  18  19
ATOM     19  N   UNL     1      46.940   6.495  11.950  0.00  0.00    +0.000 N 
ATOM     20  C   UNL     1      45.573   6.499  12.045  0.00  0.00    +0.000 C 
ATOM     21  O   UNL     1      44.919   7.502  12.311  0.00  0.00    +0.000 OA
ATOM     22  H   UNL     1      47.397   5.613  12.141  0.00  0.00    +0.000 HD
BRANCH  20  23
ATOM     23  C   UNL     1      44.933   5.210  11.753  0.00  0.00    +0.000 A 
ATOM     24  C   UNL     1      44.189   4.560  12.726  0.00  0.00    +0.000 A 
ATOM     25  S   UNL     1      43.525   3.080  12.195  0.00  0.00    +0.000 S 
ATOM     26  C   UNL     1      44.231   3.249  10.655  0.00  0.00    +0.000 A 
ATOM     27  N   UNL     1      44.074   2.290   9.702  0.00  0.00    +0.000 NA
ATOM     28  C   UNL     1      44.678   2.542   8.587  0.00  0.00    +0.000 A 
ATOM     29  N   UNL     1      45.418   3.666   8.330  0.00  0.00    +0.000 N 
ATOM     30  C   UNL     1      45.564   4.687   9.249  0.00  0.00    +0.000 A 
ATOM     31  O   UNL     1      46.149   5.715   8.963  0.00  0.00    +0.000 OA
ATOM     32  C   UNL     1      44.933   4.430  10.535  0.00  0.00    +0.000 A 
ATOM     33  H   UNL     1      45.839   3.819   7.430  0.00  0.00    +0.000 HD
ENDBRANCH  20  23
ENDBRANCH  18  19
ENDBRANCH   4  18
TORSDOF 6
ENDMDL
MODEL 6
REMARK VINA RESULT:    -7.614      3.779      8.532
REMARK INTER + INTRA:         -11.297
REMARK INTER:                  -9.603
REMARK INTRA:                  -1.694
REMARK UNBOUND:                -1.013
REMARK  Name = 
REMARK  7 active torsions:
REMARK  status: ('A' for Active; 'I' for Inactive)
REMARK    1  A    between atoms: C_1  and  N_2
REMARK    2  A    between atoms: N_2  and  C_3
REMARK    3  A    between atoms: C_3  and  C_4
REMARK    4  A    between atoms: C_7  and  C_8
REMARK    5  A    between atoms: C_8  and  N_9
REMARK    6  A    between atoms: C_10  and  C_12
REMARK    7  A    between atoms: C_24  and  C_26
REMARK                            x       y       z     vdW  Elec       q    Type
REMARK                         _______ _______ _______ _____ _____    ______ ____
ROOT
ATOM      1  C   UNL     1      49.047   7.816  16.267  0.00  0.00    +0.000 A 
ATOM      2  C   UNL     1      49.532   6.849  15.379  0.00  0.00    +0.000 A 
ATOM      3  C   UNL     1      49.253   6.937  14.018  0.00  0.00    +0.000 A 
ATOM      4  C   UNL     1      48.445   7.968  13.515  0.00  0.00    +0.000 A 
ATOM      5  C   UNL     1      47.897   8.885  14.425  0.00  0.00    +0.000 A 
ATOM      6  C   UNL     1      48.212   8.823  15.785  0.00  0.00    +0.000 A 
ENDROOT
BRANCH   1   7
ATOM      7  C   UNL     1      49.407   7.733  17.718  0.00  0.00    +0.000 C 
BRANCH   7   9
ATOM      8  C   UNL     1      47.713   8.559  19.437  0.00  0.00    +0.000 C 
ATOM      9  N   UNL     1      48.350   7.470  18.705  0.00  0.00    +0.000 N 
ATOM     10  C   UNL     1      47.728   6.217  18.857  0.00  0.00    +0.000 C 
ATOM     11  O   UNL     1      46.714   6.073  19.542  0.00  0.00    +0.000 OA
BRANCH  10  12
ATOM     12  C   UNL     1      48.251   4.999  18.169  0.00  0.00    +0.000 A 
ATOM     13  C   UNL     1      49.483   4.419  18.475  0.00  0.00    +0.000 A 
ATOM     14  C   UNL     1      49.941   3.296  17.795  0.00  0.00    +0.000 A 
ATOM     15  C   UNL     1      49.107   2.679  16.871  0.00  0.00    +0.000 A 
ATOM     16  C   UNL     1      47.846   3.190  16.604  0.00  0.00    +0.000 A 
ATOM     17  C   UNL     1      47.422   4.359  17.239  0.00  0.00    +0.000 A 
ENDBRANCH  10  12
ENDBRANCH   7   9
ENDBRANCH   1   7
BRANCH   4  18
ATOM     18  C   UNL     1      48.150   8.127  12.040  0.00  0.00    +0.000 C 
BRANCH  18  19
ATOM     19  N   UNL     1      47.460   6.995  11.478  0.00  0.00    +0.000 N 
ATOM     20  C   UNL     1      46.092   6.933  11.408  0.00  0.00    +0.000 C 
ATOM     21  O   UNL     1      45.356   7.829  11.807  0.00  0.00    +0.000 OA
ATOM     22  H   UNL     1      47.943   6.108  11.525  0.00  0.00    +0.000 HD
BRANCH  20  23
ATOM     23  C   UNL     1      45.564   5.721  10.769  0.00  0.00    +0.000 A 
ATOM     24  C   UNL     1      45.776   5.490   9.418  0.00  0.00    +0.000 A 
ATOM     25  S   UNL     1      45.089   4.030   8.864  0.00  0.00    +0.000 S 
ATOM     26  C   UNL     1      44.465   3.670  10.407  0.00  0.00    +0.000 A 
ATOM     27  N   UNL     1      43.729   2.546  10.622  0.00  0.00    +0.000 NA
ATOM     28  C   UNL     1      43.306   2.409  11.836  0.00  0.00    +0.000 A 
ATOM     29  N   UNL     1      43.555   3.285  12.859  0.00  0.00    +0.000 N 
ATOM     30  C   UNL     1      44.337   4.413  12.699  0.00  0.00    +0.000 A 
ATOM     31  O   UNL     1      44.619   5.125  13.645  0.00  0.00    +0.000 OA
ATOM     32  C   UNL     1      44.803   4.630  11.338  0.00  0.00    +0.000 A 
ATOM     33  H   UNL     1      43.223   3.106  13.791  0.00  0.00    +0.000 HD
ENDBRANCH  20  23
ENDBRANCH  18  19
ENDBRANCH   4  18
TORSDOF 6
ENDMDL
MODEL 7
REMARK VINA RESULT:    -7.239      3.502      9.154
REMARK INTER + INTRA:         -10.791
REMARK INTER:                  -9.008
REMARK INTRA:                  -1.783
REMARK UNBOUND:                -1.013
REMARK  Name = 
REMARK  7 active torsions:
REMARK  status: ('A' for Active; 'I' for Inactive)
REMARK    1  A    between atoms: C_1  and  N_2
REMARK    2  A    between atoms: N_2  and  C_3
REMARK    3  A    between atoms: C_3  and  C_4
REMARK    4  A    between atoms: C_7  and  C_8
REMARK    5  A    between atoms: C_8  and  N_9
REMARK    6  A    between atoms: C_10  and  C_12
REMARK    7  A    between atoms: C_24  and  C_26
REMARK                            x       y       z     vdW  Elec       q    Type
REMARK                         _______ _______ _______ _____ _____    ______ ____
ROOT
ATOM      1  C   UNL     1      50.939   4.337  18.429  0.00  0.00    +0.000 A 
ATOM      2  C   UNL     1      50.734   3.186  17.662  0.00  0.00    +0.000 A 
ATOM      3  C   UNL     1      49.473   2.895  17.147  0.00  0.00    +0.000 A 
ATOM      4  C   UNL     1      48.375   3.724  17.424  0.00  0.00    +0.000 A 
ATOM      5  C   UNL     1      48.576   4.832  18.262  0.00  0.00    +0.000 A 
ATOM      6  C   UNL     1      49.849   5.149  18.742  0.00  0.00    +0.000 A 
ENDROOT
BRANCH   1   7
ATOM      7  C   UNL     1      52.316   4.660  18.923  0.00  0.00    +0.000 C 
BRANCH   7   9
ATOM      8  C   UNL     1      54.478   3.896  17.807  0.00  0.00    +0.000 C 
ATOM      9  N   UNL     1      53.397   4.865  17.951  0.00  0.00    +0.000 N 
ATOM     10  C   UNL     1      53.362   5.859  16.955  0.00  0.00    +0.000 C 
ATOM     11  O   UNL     1      54.178   5.882  16.030  0.00  0.00    +0.000 OA
BRANCH  10  12
ATOM     12  C   UNL     1      52.315   6.923  16.951  0.00  0.00    +0.000 A 
ATOM     13  C   UNL     1      52.304   7.985  17.855  0.00  0.00    +0.000 A 
ATOM     14  C   UNL     1      51.297   8.944  17.830  0.00  0.00    +0.000 A 
ATOM     15  C   UNL     1      50.348   8.900  16.816  0.00  0.00    +0.000 A 
ATOM     16  C   UNL     1      50.381   7.898  15.859  0.00  0.00    +0.000 A 
ATOM     17  C   UNL     1      51.354   6.899  15.933  0.00  0.00    +0.000 A 
ENDBRANCH  10  12
ENDBRANCH   7   9
ENDBRANCH   1   7
BRANCH   4  18
ATOM     18  C   UNL     1      46.998   3.471  16.853  0.00  0.00    +0.000 C 
BRANCH  18  19
ATOM     19  N   UNL     1      46.625   4.425  15.839  0.00  0.00    +0.000 N 
ATOM     20  C   UNL     1      46.806   4.180  14.503  0.00  0.00    +0.000 C 
ATOM     21  O   UNL     1      47.287   3.139  14.068  0.00  0.00    +0.000 OA
ATOM     22  H   UNL     1      46.627   5.397  16.117  0.00  0.00    +0.000 HD
BRANCH  20  23
ATOM     23  C   UNL     1      46.333   5.247  13.613  0.00  0.00    +0.000 A 
ATOM     24  C   UNL     1      47.136   6.346  13.345  0.00  0.00    +0.000 A 
ATOM     25  S   UNL     1      46.412   7.474  12.289  0.00  0.00    +0.000 S 
ATOM     26  C   UNL     1      44.992   6.542  12.174  0.00  0.00    +0.000 A 
ATOM     27  N   UNL     1      43.933   6.964  11.430  0.00  0.00    +0.000 NA
ATOM     28  C   UNL     1      42.917   6.166  11.446  0.00  0.00    +0.000 A 
ATOM     29  N   UNL     1      42.859   4.980  12.130  0.00  0.00    +0.000 N 
ATOM     30  C   UNL     1      43.925   4.489  12.859  0.00  0.00    +0.000 A 
ATOM     31  O   UNL     1      43.880   3.390  13.381  0.00  0.00    +0.000 OA
ATOM     32  C   UNL     1      45.080   5.374  12.902  0.00  0.00    +0.000 A 
ATOM     33  H   UNL     1      42.049   4.388  12.079  0.00  0.00    +0.000 HD
ENDBRANCH  20  23
ENDBRANCH  18  19
ENDBRANCH   4  18
TORSDOF 6
ENDMDL
MODEL 8
REMARK VINA RESULT:    -7.235      3.810      9.450
REMARK INTER + INTRA:         -10.785
REMARK INTER:                  -9.101
REMARK INTRA:                  -1.684
REMARK UNBOUND:                -1.013
REMARK  Name = 
REMARK  7 active torsions:
REMARK  status: ('A' for Active; 'I' for Inactive)
REMARK    1  A    between atoms: C_1  and  N_2
REMARK    2  A    between atoms: N_2  and  C_3
REMARK    3  A    between atoms: C_3  and  C_4
REMARK    4  A    between atoms: C_7  and  C_8
REMARK    5  A    between atoms: C_8  and  N_9
REMARK    6  A    between atoms: C_10  and  C_12
REMARK    7  A    between atoms: C_24  and  C_26
REMARK                            x       y       z     vdW  Elec       q    Type
REMARK                         _______ _______ _______ _____ _____    ______ ____
ROOT
ATOM      1  C   UNL     1      49.037   5.660  19.853  0.00  0.00    +0.000 A 
ATOM      2  C   UNL     1      49.808   4.688  19.206  0.00  0.00    +0.000 A 
ATOM      3  C   UNL     1      49.296   3.991  18.115  0.00  0.00    +0.000 A 
ATOM      4  C   UNL     1      47.984   4.215  17.671  0.00  0.00    +0.000 A 
ATOM      5  C   UNL     1      47.192   5.133  18.378  0.00  0.00    +0.000 A 
ATOM      6  C   UNL     1      47.719   5.865  19.445  0.00  0.00    +0.000 A 
ENDROOT
BRANCH   1   7
ATOM      7  C   UNL     1      49.629   6.438  20.988  0.00  0.00    +0.000 C 
BRANCH   7   9
ATOM      8  C   UNL     1      52.107   6.784  21.479  0.00  0.00    +0.000 C 
ATOM      9  N   UNL     1      50.887   7.167  20.778  0.00  0.00    +0.000 N 
ATOM     10  C   UNL     1      51.070   8.114  19.753  0.00  0.00    +0.000 C 
ATOM     11  O   UNL     1      52.184   8.559  19.470  0.00  0.00    +0.000 OA
BRANCH  10  12
ATOM     12  C   UNL     1      49.923   8.607  18.934  0.00  0.00    +0.000 A 
ATOM     13  C   UNL     1      48.966   9.499  19.419  0.00  0.00    +0.000 A 
ATOM     14  C   UNL     1      47.902   9.917  18.627  0.00  0.00    +0.000 A 
ATOM     15  C   UNL     1      47.854   9.522  17.296  0.00  0.00    +0.000 A 
ATOM     16  C   UNL     1      48.835   8.698  16.767  0.00  0.00    +0.000 A 
ATOM     17  C   UNL     1      49.862   8.225  17.587  0.00  0.00    +0.000 A 
ENDBRANCH  10  12
ENDBRANCH   7   9
ENDBRANCH   1   7
BRANCH   4  18
ATOM     18  C   UNL     1      47.400   3.512  16.466  0.00  0.00    +0.000 C 
BRANCH  18  19
ATOM     19  N   UNL     1      46.757   4.414  15.544  0.00  0.00    +0.000 N 
ATOM     20  C   UNL     1      46.909   4.304  14.187  0.00  0.00    +0.000 C 
ATOM     21  O   UNL     1      47.589   3.434  13.653  0.00  0.00    +0.000 OA
ATOM     22  H   UNL     1      46.553   5.341  15.895  0.00  0.00    +0.000 HD
BRANCH  20  23
ATOM     23  C   UNL     1      46.150   5.285  13.402  0.00  0.00    +0.000 A 
ATOM     24  C   UNL     1      46.626   6.580  13.247  0.00  0.00    +0.000 A 
ATOM     25  S   UNL     1      45.606   7.568  12.301  0.00  0.00    +0.000 S 
ATOM     26  C   UNL     1      44.483   6.306  12.088  0.00  0.00    +0.000 A 
ATOM     27  N   UNL     1      43.336   6.498  11.382  0.00  0.00    +0.000 NA
ATOM     28  C   UNL     1      42.569   5.459  11.315  0.00  0.00    +0.000 A 
ATOM     29  N   UNL     1      42.843   4.242  11.881  0.00  0.00    +0.000 N 
ATOM     30  C   UNL     1      44.016   3.987  12.564  0.00  0.00    +0.000 A 
ATOM     31  O   UNL     1      44.276   2.871  12.977  0.00  0.00    +0.000 OA
ATOM     32  C   UNL     1      44.894   5.139  12.699  0.00  0.00    +0.000 A 
ATOM     33  H   UNL     1      42.220   3.462  11.767  0.00  0.00    +0.000 HD
ENDBRANCH  20  23
ENDBRANCH  18  19
ENDBRANCH   4  18
TORSDOF 6
ENDMDL
MODEL 9
REMARK VINA RESULT:    -7.205      3.828      8.374
REMARK INTER + INTRA:         -10.745
REMARK INTER:                  -8.616
REMARK INTRA:                  -2.128
REMARK UNBOUND:                -1.013
REMARK  Name = 
REMARK  7 active torsions:
REMARK  status: ('A' for Active; 'I' for Inactive)
REMARK    1  A    between atoms: C_1  and  N_2
REMARK    2  A    between atoms: N_2  and  C_3
REMARK    3  A    between atoms: C_3  and  C_4
REMARK    4  A    between atoms: C_7  and  C_8
REMARK    5  A    between atoms: C_8  and  N_9
REMARK    6  A    between atoms: C_10  and  C_12
REMARK    7  A    between atoms: C_24  and  C_26
REMARK                            x       y       z     vdW  Elec       q    Type
REMARK                         _______ _______ _______ _____ _____    ______ ____
ROOT
ATOM      1  C   UNL     1      50.363   6.700  18.150  0.00  0.00    +0.000 A 
ATOM      2  C   UNL     1      49.636   7.795  18.628  0.00  0.00    +0.000 A 
ATOM      3  C   UNL     1      48.949   8.626  17.747  0.00  0.00    +0.000 A 
ATOM      4  C   UNL     1      49.008   8.410  16.362  0.00  0.00    +0.000 A 
ATOM      5  C   UNL     1      49.807   7.358  15.888  0.00  0.00    +0.000 A 
ATOM      6  C   UNL     1      50.460   6.497  16.773  0.00  0.00    +0.000 A 
ENDROOT
BRANCH   1   7
ATOM      7  C   UNL     1      51.047   5.787  19.120  0.00  0.00    +0.000 C 
BRANCH   7   9
ATOM      8  C   UNL     1      50.610   5.725  21.633  0.00  0.00    +0.000 C 
ATOM      9  N   UNL     1      50.298   5.281  20.279  0.00  0.00    +0.000 N 
ATOM     10  C   UNL     1      49.112   4.530  20.164  0.00  0.00    +0.000 C 
ATOM     11  O   UNL     1      48.397   4.293  21.139  0.00  0.00    +0.000 OA
BRANCH  10  12
ATOM     12  C   UNL     1      48.646   4.006  18.847  0.00  0.00    +0.000 A 
ATOM     13  C   UNL     1      47.541   4.522  18.168  0.00  0.00    +0.000 A 
ATOM     14  C   UNL     1      47.128   3.990  16.951  0.00  0.00    +0.000 A 
ATOM     15  C   UNL     1      47.896   3.000  16.352  0.00  0.00    +0.000 A 
ATOM     16  C   UNL     1      49.042   2.523  16.969  0.00  0.00    +0.000 A 
ATOM     17  C   UNL     1      49.410   3.012  18.224  0.00  0.00    +0.000 A 
ENDBRANCH  10  12
ENDBRANCH   7   9
ENDBRANCH   1   7
BRANCH   4  18
ATOM     18  C   UNL     1      48.245   9.260  15.371  0.00  0.00    +0.000 C 
BRANCH  18  19
ATOM     19  N   UNL     1      47.258   8.515  14.632  0.00  0.00    +0.000 N 
ATOM     20  C   UNL     1      47.294   8.408  13.266  0.00  0.00    +0.000 C 
ATOM     21  O   UNL     1      48.164   8.923  12.572  0.00  0.00    +0.000 OA
ATOM     22  H   UNL     1      46.345   8.436  15.060  0.00  0.00    +0.000 HD
BRANCH  20  23
ATOM     23  C   UNL     1      46.229   7.579  12.687  0.00  0.00    +0.000 A 
ATOM     24  C   UNL     1      45.192   8.164  11.975  0.00  0.00    +0.000 A 
ATOM     25  S   UNL     1      44.057   7.037  11.380  0.00  0.00    +0.000 S 
ATOM     26  C   UNL     1      44.902   5.732  12.074  0.00  0.00    +0.000 A 
ATOM     27  N   UNL     1      44.441   4.457  11.961  0.00  0.00    +0.000 NA
ATOM     28  C   UNL     1      45.174   3.569  12.551  0.00  0.00    +0.000 A 
ATOM     29  N   UNL     1      46.330   3.834  13.236  0.00  0.00    +0.000 N 
ATOM     30  C   UNL     1      46.861   5.105  13.336  0.00  0.00    +0.000 A 
ATOM     31  O   UNL     1      47.937   5.299  13.872  0.00  0.00    +0.000 OA
ATOM     32  C   UNL     1      46.049   6.144  12.721  0.00  0.00    +0.000 A 
ATOM     33  H   UNL     1      46.872   3.095  13.648  0.00  0.00    +0.000 HD
ENDBRANCH  20  23
ENDBRANCH  18  19
ENDBRANCH   4  18
TORSDOF 6
ENDMDL
