MODEL 1
REMARK VINA RESULT:    -7.863      0.000      0.000
REMARK INTER + INTRA:         -11.870
REMARK INTER:                 -10.621
REMARK INTRA:                  -1.249
REMARK UNBOUND:                -1.249
REMARK  Name = 
REMARK  6 active torsions:
REMARK  status: ('A' for Active; 'I' for Inactive)
REMARK    1  A    between atoms: C_2  and  C_4
REMARK    2  A    between atoms: C_8  and  C_9
REMARK    3  A    between atoms: C_9  and  C_10
REMARK    4  A    between atoms: C_10  and  O_11
REMARK    5  A    between atoms: O_11  and  C_12
REMARK    6  A    between atoms: C_16  and  C_17
REMARK                            x       y       z     vdW  Elec       q    Type
REMARK                         _______ _______ _______ _____ _____    ______ ____
ROOT
ATOM      1  C   UNL     1      43.366   3.608  11.777  0.00  0.00    +0.000 C 
ENDROOT
BRANCH   1   2
ATOM      2  C   UNL     1      43.827   2.430  10.927  0.00  0.00    +0.000 C 
BRANCH   2   7
ATOM      3  C   UNL     1      46.217   2.278   8.118  0.00  0.00    +0.000 A 
ATOM      4  C   UNL     1      46.277   3.579   7.643  0.00  0.00    +0.000 A 
ATOM      5  C   UNL     1      45.481   4.544   8.256  0.00  0.00    +0.000 A 
ATOM      6  C   UNL     1      44.670   4.165   9.324  0.00  0.00    +0.000 A 
ATOM      7  C   UNL     1      44.672   2.841   9.751  0.00  0.00    +0.000 A 
ATOM      8  N   UNL     1      45.431   1.879   9.163  0.00  0.00    +0.000 NA
BRANCH   3  10
ATOM      9  N   UNL     1      48.120   1.675   6.737  0.00  0.00    +0.000 N 
ATOM     10  C   UNL     1      47.068   1.221   7.481  0.00  0.00    +0.000 C 
ATOM     11  O   UNL     1      46.843   0.023   7.618  0.00  0.00    +0.000 OA
ATOM     12  H   UNL     1      48.735   1.011   6.297  0.00  0.00    +0.000 HD
ATOM     13  H   UNL     1      48.290   2.671   6.668  0.00  0.00    +0.000 HD
ENDBRANCH   3  10
ENDBRANCH   2   7
ENDBRANCH   1   2
BRANCH   1  14
ATOM     14  O   UNL     1      44.101   3.672  13.008  0.00  0.00    +0.000 OA
BRANCH  14  15
ATOM     15  C   UNL     1      45.072   4.643  13.054  0.00  0.00    +0.000 A 
ATOM     16  C   UNL     1      46.401   4.412  13.400  0.00  0.00    +0.000 A 
ATOM     17  C   UNL     1      47.318   5.459  13.399  0.00  0.00    +0.000 A 
ATOM     18  C   UNL     1      46.913   6.738  13.022  0.00  0.00    +0.000 A 
ATOM     19  C   UNL     1      45.596   6.998  12.599  0.00  0.00    +0.000 A 
ATOM     20  C   UNL     1      44.679   5.928  12.650  0.00  0.00    +0.000 A 
BRANCH  19  21
ATOM     21  C   UNL     1      45.230   8.321  12.039  0.00  0.00    +0.000 A 
ATOM     22  C   UNL     1      46.001   9.462  12.347  0.00  0.00    +0.000 A 
ATOM     23  C   UNL     1      45.727  10.711  11.786  0.00  0.00    +0.000 A 
ATOM     24  C   UNL     1      44.675  10.851  10.890  0.00  0.00    +0.000 A 
ATOM     25  C   UNL     1      43.888   9.746  10.574  0.00  0.00    +0.000 A 
ATOM     26  C   UNL     1      44.157   8.497  11.148  0.00  0.00    +0.000 A 
ENDBRANCH  19  21
ENDBRANCH  14  15
ENDBRANCH   1  14
TORSDOF 6
ENDMDL
MODEL 2
REMARK VINA RESULT:    -7.752      3.380      7.248
REMARK INTER + INTRA:         -11.721
REMARK INTER:                 -10.996
REMARK INTRA:                  -0.725
REMARK UNBOUND:                -1.249
REMARK  Name = 
REMARK  6 active torsions:
REMARK  status: ('A' for Active; 'I' for Inactive)
REMARK    1  A    between atoms: C_2  and  C_4
REMARK    2  A    between atoms: C_8  and  C_9
REMARK    3  A    between atoms: C_9  and  C_10
REMARK    4  A    between atoms: C_10  and  O_11
REMARK    5  A    between atoms: O_11  and  C_12
REMARK    6  A    between atoms: C_16  and  C_17
REMARK                            x       y       z     vdW  Elec       q    Type
REMARK                         _______ _______ _______ _____ _____    ______ ____
ROOT
ATOM      1  C   UNL     1      45.580   6.871  12.638  0.00  0.00    +0.000 C 
ENDROOT
BRANCH   1   2
ATOM      2  C   UNL     1      46.999   6.321  12.555  0.00  0.00    +0.000 C 
BRANCH   2   7
ATOM      3  C   UNL     1      47.907   4.863  15.822  0.00  0.00    +0.000 A 
ATOM      4  C   UNL     1      48.755   5.799  16.395  0.00  0.00    +0.000 A 
ATOM      5  C   UNL     1      49.060   6.947  15.668  0.00  0.00    +0.000 A 
ATOM      6  C   UNL     1      48.495   7.112  14.406  0.00  0.00    +0.000 A 
ATOM      7  C   UNL     1      47.644   6.134  13.901  0.00  0.00    +0.000 A 
ATOM      8  N   UNL     1      47.339   5.000  14.586  0.00  0.00    +0.000 NA
BRANCH   3  10
ATOM      9  N   UNL     1      48.557   2.702  16.714  0.00  0.00    +0.000 N 
ATOM     10  C   UNL     1      47.556   3.622  16.585  0.00  0.00    +0.000 C 
ATOM     11  O   UNL     1      46.444   3.439  17.070  0.00  0.00    +0.000 OA
ATOM     12  H   UNL     1      48.384   1.854  17.229  0.00  0.00    +0.000 HD
ATOM     13  H   UNL     1      49.470   2.899  16.322  0.00  0.00    +0.000 HD
ENDBRANCH   3  10
ENDBRANCH   2   7
ENDBRANCH   1   2
BRANCH   1  14
ATOM     14  O   UNL     1      44.879   6.672  11.402  0.00  0.00    +0.000 OA
BRANCH  14  15
ATOM     15  C   UNL     1      44.579   5.363  11.111  0.00  0.00    +0.000 A 
ATOM     16  C   UNL     1      43.566   4.631  11.726  0.00  0.00    +0.000 A 
ATOM     17  C   UNL     1      43.325   3.314  11.350  0.00  0.00    +0.000 A 
ATOM     18  C   UNL     1      44.078   2.732  10.332  0.00  0.00    +0.000 A 
ATOM     19  C   UNL     1      45.063   3.459   9.638  0.00  0.00    +0.000 A 
ATOM     20  C   UNL     1      45.315   4.778  10.070  0.00  0.00    +0.000 A 
BRANCH  19  21
ATOM     21  C   UNL     1      45.732   2.880   8.449  0.00  0.00    +0.000 A 
ATOM     22  C   UNL     1      46.074   3.701   7.354  0.00  0.00    +0.000 A 
ATOM     23  C   UNL     1      46.764   3.205   6.245  0.00  0.00    +0.000 A 
ATOM     24  C   UNL     1      47.140   1.868   6.207  0.00  0.00    +0.000 A 
ATOM     25  C   UNL     1      46.808   1.028   7.267  0.00  0.00    +0.000 A 
ATOM     26  C   UNL     1      46.104   1.527   8.372  0.00  0.00    +0.000 A 
ENDBRANCH  19  21
ENDBRANCH  14  15
ENDBRANCH   1  14
TORSDOF 6
ENDMDL
MODEL 3
REMARK VINA RESULT:    -7.528      2.872      6.821
REMARK INTER + INTRA:         -11.417
REMARK INTER:                 -10.258
REMARK INTRA:                  -1.159
REMARK UNBOUND:                -1.249
REMARK  Name = 
REMARK  6 active torsions:
REMARK  status: ('A' for Active; 'I' for Inactive)
REMARK    1  A    between atoms: C_2  and  C_4
REMARK    2  A    between atoms: C_8  and  C_9
REMARK    3  A    between atoms: C_9  and  C_10
REMARK    4  A    between atoms: C_10  and  O_11
REMARK    5  A    between atoms: O_11  and  C_12
REMARK    6  A    between atoms: C_16  and  C_17
REMARK                            x       y       z     vdW  Elec       q    Type
REMARK                         _______ _______ _______ _____ _____    ______ ____
ROOT
ATOM      1  C   UNL     1      46.757   3.734  13.466  0.00  0.00    +0.000 C 
ENDROOT
BRANCH   1   2
ATOM      2  C   UNL     1      47.002   4.994  14.288  0.00  0.00    +0.000 C 
BRANCH   2   7
ATOM      3  C   UNL     1      46.552   8.101  12.347  0.00  0.00    +0.000 A 
ATOM      4  C   UNL     1      47.816   8.386  11.851  0.00  0.00    +0.000 A 
ATOM      5  C   UNL     1      48.865   7.534  12.187  0.00  0.00    +0.000 A 
ATOM      6  C   UNL     1      48.601   6.430  12.994  0.00  0.00    +0.000 A 
ATOM      7  C   UNL     1      47.304   6.204  13.446  0.00  0.00    +0.000 A 
ATOM      8  N   UNL     1      46.266   7.026  13.141  0.00  0.00    +0.000 NA
BRANCH   3  10
ATOM      9  N   UNL     1      44.210   8.373  11.771  0.00  0.00    +0.000 N 
ATOM     10  C   UNL     1      45.404   8.997  11.995  0.00  0.00    +0.000 C 
ATOM     11  O   UNL     1      45.520  10.216  11.915  0.00  0.00    +0.000 OA
ATOM     12  H   UNL     1      43.399   8.925  11.546  0.00  0.00    +0.000 HD
ATOM     13  H   UNL     1      44.146   7.367  11.872  0.00  0.00    +0.000 HD
ENDBRANCH   3  10
ENDBRANCH   2   7
ENDBRANCH   1   2
BRANCH   1  14
ATOM     14  O   UNL     1      45.353   3.474  13.330  0.00  0.00    +0.000 OA
BRANCH  14  15
ATOM     15  C   UNL     1      44.819   3.796  12.105  0.00  0.00    +0.000 A 
ATOM     16  C   UNL     1      43.816   4.742  11.908  0.00  0.00    +0.000 A 
ATOM     17  C   UNL     1      43.353   5.015  10.625  0.00  0.00    +0.000 A 
ATOM     18  C   UNL     1      43.914   4.363   9.529  0.00  0.00    +0.000 A 
ATOM     19  C   UNL     1      44.977   3.453   9.680  0.00  0.00    +0.000 A 
ATOM     20  C   UNL     1      45.398   3.164  10.994  0.00  0.00    +0.000 A 
BRANCH  19  21
ATOM     21  C   UNL     1      45.674   2.901   8.493  0.00  0.00    +0.000 A 
ATOM     22  C   UNL     1      45.989   3.737   7.401  0.00  0.00    +0.000 A 
ATOM     23  C   UNL     1      46.704   3.270   6.295  0.00  0.00    +0.000 A 
ATOM     24  C   UNL     1      47.131   1.949   6.257  0.00  0.00    +0.000 A 
ATOM     25  C   UNL     1      46.826   1.095   7.314  0.00  0.00    +0.000 A 
ATOM     26  C   UNL     1      46.098   1.564   8.416  0.00  0.00    +0.000 A 
ENDBRANCH  19  21
ENDBRANCH  14  15
ENDBRANCH   1  14
TORSDOF 6
ENDMDL
MODEL 4
REMARK VINA RESULT:    -7.209      3.493      6.913
REMARK INTER + INTRA:         -10.987
REMARK INTER:                  -9.970
REMARK INTRA:                  -1.017
REMARK UNBOUND:                -1.249
REMARK  Name = 
REMARK  6 active torsions:
REMARK  status: ('A' for Active; 'I' for Inactive)
REMARK    1  A    between atoms: C_2  and  C_4
REMARK    2  A    between atoms: C_8  and  C_9
REMARK    3  A    between atoms: C_9  and  C_10
REMARK    4  A    between atoms: C_10  and  O_11
REMARK    5  A    between atoms: O_11  and  C_12
REMARK    6  A    between atoms: C_16  and  C_17
REMARK                            x       y       z     vdW  Elec       q    Type
REMARK                         _______ _______ _______ _____ _____    ______ ____
ROOT
ATOM      1  C   UNL     1      46.490   3.625  13.609  0.00  0.00    +0.000 C 
ENDROOT
BRANCH   1   2
ATOM      2  C   UNL     1      47.100   4.730  14.463  0.00  0.00    +0.000 C 
BRANCH   2   7
ATOM      3  C   UNL     1      49.276   7.532  13.444  0.00  0.00    +0.000 A 
ATOM      4  C   UNL     1      48.771   7.934  12.216  0.00  0.00    +0.000 A 
ATOM      5  C   UNL     1      47.684   7.240  11.690  0.00  0.00    +0.000 A 
ATOM      6  C   UNL     1      47.144   6.184  12.420  0.00  0.00    +0.000 A 
ATOM      7  C   UNL     1      47.699   5.846  13.650  0.00  0.00    +0.000 A 
ATOM      8  N   UNL     1      48.767   6.500  14.180  0.00  0.00    +0.000 NA
BRANCH   3  10
ATOM      9  N   UNL     1      51.375   7.489  14.661  0.00  0.00    +0.000 N 
ATOM     10  C   UNL     1      50.440   8.265  14.036  0.00  0.00    +0.000 C 
ATOM     11  O   UNL     1      50.557   9.484  13.965  0.00  0.00    +0.000 OA
ATOM     12  H   UNL     1      52.188   7.924  15.065  0.00  0.00    +0.000 HD
ATOM     13  H   UNL     1      51.259   6.482  14.677  0.00  0.00    +0.000 HD
ENDBRANCH   3  10
ENDBRANCH   2   7
ENDBRANCH   1   2
BRANCH   1  14
ATOM     14  O   UNL     1      45.062   3.756  13.543  0.00  0.00    +0.000 OA
BRANCH  14  15
ATOM     15  C   UNL     1      44.566   4.066  12.300  0.00  0.00    +0.000 A 
ATOM     16  C   UNL     1      43.577   5.018  12.063  0.00  0.00    +0.000 A 
ATOM     17  C   UNL     1      43.151   5.277  10.764  0.00  0.00    +0.000 A 
ATOM     18  C   UNL     1      43.738   4.607   9.692  0.00  0.00    +0.000 A 
ATOM     19  C   UNL     1      44.788   3.691   9.885  0.00  0.00    +0.000 A 
ATOM     20  C   UNL     1      45.170   3.415  11.214  0.00  0.00    +0.000 A 
BRANCH  19  21
ATOM     21  C   UNL     1      45.514   3.119   8.724  0.00  0.00    +0.000 A 
ATOM     22  C   UNL     1      45.944   3.954   7.672  0.00  0.00    +0.000 A 
ATOM     23  C   UNL     1      46.688   3.463   6.597  0.00  0.00    +0.000 A 
ATOM     24  C   UNL     1      47.029   2.117   6.549  0.00  0.00    +0.000 A 
ATOM     25  C   UNL     1      46.609   1.264   7.567  0.00  0.00    +0.000 A 
ATOM     26  C   UNL     1      45.853   1.758   8.638  0.00  0.00    +0.000 A 
ENDBRANCH  19  21
ENDBRANCH  14  15
ENDBRANCH   1  14
TORSDOF 6
ENDMDL
MODEL 5
REMARK VINA RESULT:    -7.033      3.468      7.418
REMARK INTER + INTRA:         -10.748
REMARK INTER:                  -9.740
REMARK INTRA:                  -1.008
REMARK UNBOUND:                -1.249
REMARK  Name = 
REMARK  6 active torsions:
REMARK  status: ('A' for Active; 'I' for Inactive)
REMARK    1  A    between atoms: C_2  and  C_4
REMARK    2  A    between atoms: C_8  and  C_9
REMARK    3  A    between atoms: C_9  and  C_10
REMARK    4  A    between atoms: C_10  and  O_11
REMARK    5  A    between atoms: O_11  and  C_12
REMARK    6  A    between atoms: C_16  and  C_17
REMARK                            x       y       z     vdW  Elec       q    Type
REMARK                         _______ _______ _______ _____ _____    ______ ____
ROOT
ATOM      1  C   UNL     1      45.716   7.203  12.446  0.00  0.00    +0.000 C 
ENDROOT
BRANCH   1   2
ATOM      2  C   UNL     1      47.057   6.479  12.470  0.00  0.00    +0.000 C 
BRANCH   2   7
ATOM      3  C   UNL     1      48.049   5.391  15.854  0.00  0.00    +0.000 A 
ATOM      4  C   UNL     1      47.669   4.059  15.915  0.00  0.00    +0.000 A 
ATOM      5  C   UNL     1      47.040   3.499  14.805  0.00  0.00    +0.000 A 
ATOM      6  C   UNL     1      46.829   4.295  13.681  0.00  0.00    +0.000 A 
ATOM      7  C   UNL     1      47.248   5.622  13.691  0.00  0.00    +0.000 A 
ATOM      8  N   UNL     1      47.853   6.194  14.766  0.00  0.00    +0.000 NA
BRANCH   3  10
ATOM      9  N   UNL     1      47.914   6.438  18.040  0.00  0.00    +0.000 N 
ATOM     10  C   UNL     1      48.733   6.016  17.031  0.00  0.00    +0.000 C 
ATOM     11  O   UNL     1      49.952   6.141  17.095  0.00  0.00    +0.000 OA
ATOM     12  H   UNL     1      48.319   6.852  18.863  0.00  0.00    +0.000 HD
ATOM     13  H   UNL     1      46.914   6.294  17.965  0.00  0.00    +0.000 HD
ENDBRANCH   3  10
ENDBRANCH   2   7
ENDBRANCH   1   2
BRANCH   1  14
ATOM     14  O   UNL     1      45.039   6.989  11.199  0.00  0.00    +0.000 OA
BRANCH  14  15
ATOM     15  C   UNL     1      44.708   5.681  10.936  0.00  0.00    +0.000 A 
ATOM     16  C   UNL     1      43.652   5.001  11.538  0.00  0.00    +0.000 A 
ATOM     17  C   UNL     1      43.381   3.680  11.193  0.00  0.00    +0.000 A 
ATOM     18  C   UNL     1      44.149   3.044  10.219  0.00  0.00    +0.000 A 
ATOM     19  C   UNL     1      45.179   3.720   9.538  0.00  0.00    +0.000 A 
ATOM     20  C   UNL     1      45.458   5.042   9.938  0.00  0.00    +0.000 A 
BRANCH  19  21
ATOM     21  C   UNL     1      45.868   3.084   8.389  0.00  0.00    +0.000 A 
ATOM     22  C   UNL     1      46.137   1.699   8.398  0.00  0.00    +0.000 A 
ATOM     23  C   UNL     1      46.723   1.053   7.307  0.00  0.00    +0.000 A 
ATOM     24  C   UNL     1      47.049   1.779   6.168  0.00  0.00    +0.000 A 
ATOM     25  C   UNL     1      46.806   3.150   6.132  0.00  0.00    +0.000 A 
ATOM     26  C   UNL     1      46.230   3.796   7.233  0.00  0.00    +0.000 A 
ENDBRANCH  19  21
ENDBRANCH  14  15
ENDBRANCH   1  14
TORSDOF 6
ENDMDL
MODEL 6
REMARK VINA RESULT:    -6.885      3.674      7.701
REMARK INTER + INTRA:         -10.549
REMARK INTER:                  -9.778
REMARK INTRA:                  -0.771
REMARK UNBOUND:                -1.249
REMARK  Name = 
REMARK  6 active torsions:
REMARK  status: ('A' for Active; 'I' for Inactive)
REMARK    1  A    between atoms: C_2  and  C_4
REMARK    2  A    between atoms: C_8  and  C_9
REMARK    3  A    between atoms: C_9  and  C_10
REMARK    4  A    between atoms: C_10  and  O_11
REMARK    5  A    between atoms: O_11  and  C_12
REMARK    6  A    between atoms: C_16  and  C_17
REMARK                            x       y       z     vdW  Elec       q    Type
REMARK                         _______ _______ _______ _____ _____    ______ ____
ROOT
ATOM      1  C   UNL     1      45.443   6.952  12.554  0.00  0.00    +0.000 C 
ENDROOT
BRANCH   1   2
ATOM      2  C   UNL     1      46.951   6.868  12.349  0.00  0.00    +0.000 C 
BRANCH   2   7
ATOM      3  C   UNL     1      47.380  10.503  11.877  0.00  0.00    +0.000 A 
ATOM      4  C   UNL     1      48.713  10.652  11.524  0.00  0.00    +0.000 A 
ATOM      5  C   UNL     1      49.510   9.512  11.460  0.00  0.00    +0.000 A 
ATOM      6  C   UNL     1      48.937   8.274  11.741  0.00  0.00    +0.000 A 
ATOM      7  C   UNL     1      47.588   8.204  12.079  0.00  0.00    +0.000 A 
ATOM      8  N   UNL     1      46.792   9.302  12.159  0.00  0.00    +0.000 NA
BRANCH   3  10
ATOM      9  N   UNL     1      45.155  11.465  12.009  0.00  0.00    +0.000 N 
ATOM     10  C   UNL     1      46.497  11.712  11.947  0.00  0.00    +0.000 C 
ATOM     11  O   UNL     1      46.944  12.854  11.953  0.00  0.00    +0.000 OA
ATOM     12  H   UNL     1      44.514  12.238  12.072  0.00  0.00    +0.000 HD
ATOM     13  H   UNL     1      44.824  10.508  12.029  0.00  0.00    +0.000 HD
ENDBRANCH   3  10
ENDBRANCH   2   7
ENDBRANCH   1   2
BRANCH   1  14
ATOM     14  O   UNL     1      44.744   6.723  11.322  0.00  0.00    +0.000 OA
BRANCH  14  15
ATOM     15  C   UNL     1      44.503   5.403  11.029  0.00  0.00    +0.000 A 
ATOM     16  C   UNL     1      43.504   4.634  11.622  0.00  0.00    +0.000 A 
ATOM     17  C   UNL     1      43.324   3.307  11.245  0.00  0.00    +0.000 A 
ATOM     18  C   UNL     1      44.124   2.752  10.249  0.00  0.00    +0.000 A 
ATOM     19  C   UNL     1      45.096   3.515   9.575  0.00  0.00    +0.000 A 
ATOM     20  C   UNL     1      45.286   4.844  10.007  0.00  0.00    +0.000 A 
BRANCH  19  21
ATOM     21  C   UNL     1      45.815   2.959   8.404  0.00  0.00    +0.000 A 
ATOM     22  C   UNL     1      46.172   1.594   8.371  0.00  0.00    +0.000 A 
ATOM     23  C   UNL     1      46.790   1.020   7.257  0.00  0.00    +0.000 A 
ATOM     24  C   UNL     1      47.061   1.798   6.139  0.00  0.00    +0.000 A 
ATOM     25  C   UNL     1      46.732   3.151   6.145  0.00  0.00    +0.000 A 
ATOM     26  C   UNL     1      46.123   3.727   7.269  0.00  0.00    +0.000 A 
ENDBRANCH  19  21
ENDBRANCH  14  15
ENDBRANCH   1  14
TORSDOF 6
ENDMDL
MODEL 7
REMARK VINA RESULT:    -6.830      3.326      7.000
REMARK INTER + INTRA:         -10.475
REMARK INTER:                  -9.534
REMARK INTRA:                  -0.941
REMARK UNBOUND:                -1.249
REMARK  Name = 
REMARK  6 active torsions:
REMARK  status: ('A' for Active; 'I' for Inactive)
REMARK    1  A    between atoms: C_2  and  C_4
REMARK    2  A    between atoms: C_8  and  C_9
REMARK    3  A    between atoms: C_9  and  C_10
REMARK    4  A    between atoms: C_10  and  O_11
REMARK    5  A    between atoms: O_11  and  C_12
REMARK    6  A    between atoms: C_16  and  C_17
REMARK                            x       y       z     vdW  Elec       q    Type
REMARK                         _______ _______ _______ _____ _____    ______ ____
ROOT
ATOM      1  C   UNL     1      44.862   7.148  11.686  0.00  0.00    +0.000 C 
ENDROOT
BRANCH   1   2
ATOM      2  C   UNL     1      45.682   8.284  12.287  0.00  0.00    +0.000 C 
BRANCH   2   7
ATOM      3  C   UNL     1      48.795   7.270  13.991  0.00  0.00    +0.000 A 
ATOM      4  C   UNL     1      49.761   7.305  12.998  0.00  0.00    +0.000 A 
ATOM      5  C   UNL     1      49.370   7.655  11.708  0.00  0.00    +0.000 A 
ATOM      6  C   UNL     1      48.032   7.964  11.472  0.00  0.00    +0.000 A 
ATOM      7  C   UNL     1      47.122   7.916  12.523  0.00  0.00    +0.000 A 
ATOM      8  N   UNL     1      47.476   7.567  13.788  0.00  0.00    +0.000 NA
BRANCH   3  10
ATOM      9  N   UNL     1      48.212   7.030  16.335  0.00  0.00    +0.000 N 
ATOM     10  C   UNL     1      49.189   6.903  15.389  0.00  0.00    +0.000 C 
ATOM     11  O   UNL     1      50.315   6.508  15.674  0.00  0.00    +0.000 OA
ATOM     12  H   UNL     1      48.415   6.784  17.290  0.00  0.00    +0.000 HD
ATOM     13  H   UNL     1      47.286   7.334  16.059  0.00  0.00    +0.000 HD
ENDBRANCH   3  10
ENDBRANCH   2   7
ENDBRANCH   1   2
BRANCH   1  14
ATOM     14  O   UNL     1      44.735   6.060  12.613  0.00  0.00    +0.000 OA
BRANCH  14  15
ATOM     15  C   UNL     1      44.444   4.844  12.042  0.00  0.00    +0.000 A 
ATOM     16  C   UNL     1      43.443   3.985  12.489  0.00  0.00    +0.000 A 
ATOM     17  C   UNL     1      43.209   2.780  11.833  0.00  0.00    +0.000 A 
ATOM     18  C   UNL     1      43.956   2.445  10.706  0.00  0.00    +0.000 A 
ATOM     19  C   UNL     1      44.928   3.318  10.182  0.00  0.00    +0.000 A 
ATOM     20  C   UNL     1      45.174   4.511  10.891  0.00  0.00    +0.000 A 
BRANCH  19  21
ATOM     21  C   UNL     1      45.589   3.022   8.888  0.00  0.00    +0.000 A 
ATOM     22  C   UNL     1      45.910   4.068   7.997  0.00  0.00    +0.000 A 
ATOM     23  C   UNL     1      46.592   3.836   6.801  0.00  0.00    +0.000 A 
ATOM     24  C   UNL     1      46.982   2.546   6.466  0.00  0.00    +0.000 A 
ATOM     25  C   UNL     1      46.670   1.489   7.319  0.00  0.00    +0.000 A 
ATOM     26  C   UNL     1      45.975   1.724   8.512  0.00  0.00    +0.000 A 
ENDBRANCH  19  21
ENDBRANCH  14  15
ENDBRANCH   1  14
TORSDOF 6
ENDMDL
MODEL 8
REMARK VINA RESULT:    -6.808      3.675      7.951
REMARK INTER + INTRA:         -10.445
REMARK INTER:                  -9.700
REMARK INTRA:                  -0.745
REMARK UNBOUND:                -1.249
REMARK  Name = 
REMARK  6 active torsions:
REMARK  status: ('A' for Active; 'I' for Inactive)
REMARK    1  A    between atoms: C_2  and  C_4
REMARK    2  A    between atoms: C_8  and  C_9
REMARK    3  A    between atoms: C_9  and  C_10
REMARK    4  A    between atoms: C_10  and  O_11
REMARK    5  A    between atoms: O_11  and  C_12
REMARK    6  A    between atoms: C_16  and  C_17
REMARK                            x       y       z     vdW  Elec       q    Type
REMARK                         _______ _______ _______ _____ _____    ______ ____
ROOT
ATOM      1  C   UNL     1      45.859   7.210  12.262  0.00  0.00    +0.000 C 
ENDROOT
BRANCH   1   2
ATOM      2  C   UNL     1      45.683   8.454  13.125  0.00  0.00    +0.000 C 
BRANCH   2   7
ATOM      3  C   UNL     1      44.530  11.509  11.403  0.00  0.00    +0.000 A 
ATOM      4  C   UNL     1      45.677  12.037  10.830  0.00  0.00    +0.000 A 
ATOM      5  C   UNL     1      46.884  11.374  11.036  0.00  0.00    +0.000 A 
ATOM      6  C   UNL     1      46.889  10.208  11.797  0.00  0.00    +0.000 A 
ATOM      7  C   UNL     1      45.695   9.733  12.332  0.00  0.00    +0.000 A 
ATOM      8  N   UNL     1      44.506  10.367  12.154  0.00  0.00    +0.000 NA
BRANCH   3  10
ATOM      9  N   UNL     1      43.097  12.904  10.028  0.00  0.00    +0.000 N 
ATOM     10  C   UNL     1      43.217  12.198  11.191  0.00  0.00    +0.000 C 
ATOM     11  O   UNL     1      42.300  12.133  12.004  0.00  0.00    +0.000 OA
ATOM     12  H   UNL     1      42.231  13.376   9.824  0.00  0.00    +0.000 HD
ATOM     13  H   UNL     1      43.865  12.913   9.368  0.00  0.00    +0.000 HD
ENDBRANCH   3  10
ENDBRANCH   2   7
ENDBRANCH   1   2
BRANCH   1  14
ATOM     14  O   UNL     1      44.690   6.968  11.466  0.00  0.00    +0.000 OA
BRANCH  14  15
ATOM     15  C   UNL     1      44.420   5.643  11.221  0.00  0.00    +0.000 A 
ATOM     16  C   UNL     1      43.420   4.912  11.858  0.00  0.00    +0.000 A 
ATOM     17  C   UNL     1      43.209   3.577  11.529  0.00  0.00    +0.000 A 
ATOM     18  C   UNL     1      43.979   2.975  10.536  0.00  0.00    +0.000 A 
ATOM     19  C   UNL     1      44.951   3.699   9.819  0.00  0.00    +0.000 A 
ATOM     20  C   UNL     1      45.173   5.037  10.204  0.00  0.00    +0.000 A 
BRANCH  19  21
ATOM     21  C   UNL     1      45.637   3.092   8.653  0.00  0.00    +0.000 A 
ATOM     22  C   UNL     1      46.076   3.902   7.585  0.00  0.00    +0.000 A 
ATOM     23  C   UNL     1      46.785   3.376   6.502  0.00  0.00    +0.000 A 
ATOM     24  C   UNL     1      47.082   2.019   6.464  0.00  0.00    +0.000 A 
ATOM     25  C   UNL     1      46.653   1.191   7.498  0.00  0.00    +0.000 A 
ATOM     26  C   UNL     1      45.931   1.720   8.576  0.00  0.00    +0.000 A 
ENDBRANCH  19  21
ENDBRANCH  14  15
ENDBRANCH   1  14
TORSDOF 6
ENDMDL
MODEL 9
REMARK VINA RESULT:    -6.692      3.761      7.332
REMARK INTER + INTRA:         -10.289
REMARK INTER:                  -9.300
REMARK INTRA:                  -0.989
REMARK UNBOUND:                -1.249
REMARK  Name = 
REMARK  6 active torsions:
REMARK  status: ('A' for Active; 'I' for Inactive)
REMARK    1  A    between atoms: C_2  and  C_4
REMARK    2  A    between atoms: C_8  and  C_9
REMARK    3  A    between atoms: C_9  and  C_10
REMARK    4  A    between atoms: C_10  and  O_11
REMARK    5  A    between atoms: O_11  and  C_12
REMARK    6  A    between atoms: C_16  and  C_17
REMARK                            x       y       z     vdW  Elec       q    Type
REMARK                         _______ _______ _______ _____ _____    ______ ____
ROOT
ATOM      1  C   UNL     1      49.351   7.195  13.581  0.00  0.00    +0.000 C 
ENDROOT
BRANCH   1   2
ATOM      2  C   UNL     1      49.343   7.891  14.937  0.00  0.00    +0.000 C 
BRANCH   2   7
ATOM      3  C   UNL     1      48.044   4.956  16.759  0.00  0.00    +0.000 A 
ATOM      4  C   UNL     1      47.957   5.377  18.077  0.00  0.00    +0.000 A 
ATOM      5  C   UNL     1      48.364   6.672  18.385  0.00  0.00    +0.000 A 
ATOM      6  C   UNL     1      48.829   7.492  17.359  0.00  0.00    +0.000 A 
ATOM      7  C   UNL     1      48.877   7.002  16.057  0.00  0.00    +0.000 A 
ATOM      8  N   UNL     1      48.496   5.737  15.733  0.00  0.00    +0.000 NA
BRANCH   3  10
ATOM      9  N   UNL     1      46.993   2.862  17.393  0.00  0.00    +0.000 N 
ATOM     10  C   UNL     1      47.606   3.569  16.398  0.00  0.00    +0.000 C 
ATOM     11  O   UNL     1      47.780   3.092  15.282  0.00  0.00    +0.000 OA
ATOM     12  H   UNL     1      46.664   1.929  17.206  0.00  0.00    +0.000 HD
ATOM     13  H   UNL     1      46.842   3.297  18.296  0.00  0.00    +0.000 HD
ENDBRANCH   3  10
ENDBRANCH   2   7
ENDBRANCH   1   2
BRANCH   1  14
ATOM     14  O   UNL     1      48.777   8.035  12.569  0.00  0.00    +0.000 OA
BRANCH  14  15
ATOM     15  C   UNL     1      47.440   7.826  12.333  0.00  0.00    +0.000 A 
ATOM     16  C   UNL     1      46.432   8.731  12.661  0.00  0.00    +0.000 A 
ATOM     17  C   UNL     1      45.105   8.438  12.365  0.00  0.00    +0.000 A 
ATOM     18  C   UNL     1      44.782   7.252  11.710  0.00  0.00    +0.000 A 
ATOM     19  C   UNL     1      45.777   6.345  11.300  0.00  0.00    +0.000 A 
ATOM     20  C   UNL     1      47.109   6.646  11.651  0.00  0.00    +0.000 A 
BRANCH  19  21
ATOM     21  C   UNL     1      45.432   5.176  10.455  0.00  0.00    +0.000 A 
ATOM     22  C   UNL     1      44.666   4.117  10.985  0.00  0.00    +0.000 A 
ATOM     23  C   UNL     1      44.264   3.032  10.202  0.00  0.00    +0.000 A 
ATOM     24  C   UNL     1      44.613   2.982   8.859  0.00  0.00    +0.000 A 
ATOM     25  C   UNL     1      45.379   4.007   8.308  0.00  0.00    +0.000 A 
ATOM     26  C   UNL     1      45.791   5.087   9.099  0.00  0.00    +0.000 A 
ENDBRANCH  19  21
ENDBRANCH  14  15
ENDBRANCH   1  14
TORSDOF 6
ENDMDL
