MODEL 1
REMARK VINA RESULT:    -7.007      0.000      0.000
REMARK INTER + INTRA:         -10.276
REMARK INTER:                  -9.055
REMARK INTRA:                  -1.221
REMARK UNBOUND:                -1.221
REMARK  Name = 
REMARK  6 active torsions:
REMARK  status: ('A' for Active; 'I' for Inactive)
REMARK    1  A    between atoms: C_1  and  C_2
REMARK    2  A    between atoms: C_2  and  N_3
REMARK    3  A    between atoms: C_2  and  C_16
REMARK    4  A    between atoms: C_4  and  C_6
REMARK    5  A    between atoms: C_19  and  C_20
REMARK    6  A    between atoms: C_20  and  N_21
REMARK                            x       y       z     vdW  Elec       q    Type
REMARK                         _______ _______ _______ _____ _____    ______ ____
ROOT
ATOM      1  C   UNL     1      48.330   6.734  18.645  0.00  0.00    +0.000 C 
ATOM      2  C   UNL     1      49.296   6.345  17.516  0.00  0.00    +0.000 C 
ENDROOT
BRANCH   2   3
ATOM      3  C   UNL     1      48.501   5.846  16.308  0.00  0.00    +0.000 A 
ATOM      4  C   UNL     1      47.717   4.685  16.409  0.00  0.00    +0.000 A 
ATOM      5  C   UNL     1      46.989   4.204  15.308  0.00  0.00    +0.000 A 
ATOM      6  C   UNL     1      46.976   4.900  14.083  0.00  0.00    +0.000 A 
ATOM      7  C   UNL     1      47.731   6.079  14.000  0.00  0.00    +0.000 A 
ATOM      8 CL   UNL     1      47.704   7.092  12.597  0.00  0.00    +0.000 Cl
ATOM      9  C   UNL     1      48.529   6.505  15.071  0.00  0.00    +0.000 A 
BRANCH   6  10
ATOM     10  C   UNL     1      46.197   4.337  12.900  0.00  0.00    +0.000 C 
BRANCH  10  11
ATOM     11  N   UNL     1      44.741   4.482  13.018  0.00  0.00    +0.000 NA
ATOM     12  C   UNL     1      43.918   3.506  12.296  0.00  0.00    +0.000 C 
ATOM     13  C   UNL     1      43.531   3.888  10.865  0.00  0.00    +0.000 C 
ATOM     14  O   UNL     1      42.837   5.129  10.823  0.00  0.00    +0.000 OA
ATOM     15  C   UNL     1      43.512   6.197  11.480  0.00  0.00    +0.000 C 
ATOM     16  C   UNL     1      44.266   5.855  12.786  0.00  0.00    +0.000 C 
ENDBRANCH  10  11
ENDBRANCH   6  10
ENDBRANCH   2   3
BRANCH   2  17
ATOM     17  N   UNL     1      50.312   5.376  17.944  0.00  0.00    +0.000 N 
ATOM     18  C   UNL     1      51.569   5.333  17.391  0.00  0.00    +0.000 C 
ATOM     19  O   UNL     1      51.932   6.138  16.532  0.00  0.00    +0.000 OA
ATOM     20  H   UNL     1      49.965   4.508  18.339  0.00  0.00    +0.000 HD
BRANCH  18  21
ATOM     21  C   UNL     1      52.500   4.327  17.909  0.00  0.00    +0.000 A 
ATOM     22  C   UNL     1      53.681   4.739  18.512  0.00  0.00    +0.000 A 
ATOM     23  S   UNL     1      54.647   3.454  19.074  0.00  0.00    +0.000 S 
ATOM     24  C   UNL     1      53.542   2.300  18.491  0.00  0.00    +0.000 A 
ATOM     25  N   UNL     1      53.790   0.969  18.617  0.00  0.00    +0.000 NA
ATOM     26  C   UNL     1      52.890   0.208  18.094  0.00  0.00    +0.000 A 
ATOM     27  N   UNL     1      51.756   0.656  17.464  0.00  0.00    +0.000 N 
ATOM     28  C   UNL     1      51.440   1.992  17.356  0.00  0.00    +0.000 A 
ATOM     29  O   UNL     1      50.392   2.367  16.844  0.00  0.00    +0.000 OA
ATOM     30  C   UNL     1      52.439   2.889  17.900  0.00  0.00    +0.000 A 
ATOM     31  H   UNL     1      51.084   0.004  17.088  0.00  0.00    +0.000 HD
ENDBRANCH  18  21
ENDBRANCH   2  17
TORSDOF 5
ENDMDL
MODEL 2
REMARK VINA RESULT:    -6.743      4.519      8.657
REMARK INTER + INTRA:          -9.934
REMARK INTER:                  -8.785
REMARK INTRA:                  -1.149
REMARK UNBOUND:                -1.221
REMARK  Name = 
REMARK  6 active torsions:
REMARK  status: ('A' for Active; 'I' for Inactive)
REMARK    1  A    between atoms: C_1  and  C_2
REMARK    2  A    between atoms: C_2  and  N_3
REMARK    3  A    between atoms: C_2  and  C_16
REMARK    4  A    between atoms: C_4  and  C_6
REMARK    5  A    between atoms: C_19  and  C_20
REMARK    6  A    between atoms: C_20  and  N_21
REMARK                            x       y       z     vdW  Elec       q    Type
REMARK                         _______ _______ _______ _____ _____    ______ ____
ROOT
ATOM      1  C   UNL     1      47.842   3.137  16.903  0.00  0.00    +0.000 C 
ATOM      2  C   UNL     1      48.055   4.528  16.287  0.00  0.00    +0.000 C 
ENDROOT
BRANCH   2   3
ATOM      3  C   UNL     1      48.095   5.580  17.398  0.00  0.00    +0.000 A 
ATOM      4  C   UNL     1      47.312   5.419  18.552  0.00  0.00    +0.000 A 
ATOM      5  C   UNL     1      47.325   6.378  19.577  0.00  0.00    +0.000 A 
ATOM      6  C   UNL     1      48.164   7.508  19.508  0.00  0.00    +0.000 A 
ATOM      7  C   UNL     1      48.972   7.644  18.369  0.00  0.00    +0.000 A 
ATOM      8 CL   UNL     1      50.136   8.916  18.213  0.00  0.00    +0.000 Cl
ATOM      9  C   UNL     1      48.888   6.733  17.307  0.00  0.00    +0.000 A 
BRANCH   6  10
ATOM     10  C   UNL     1      48.136   8.545  20.624  0.00  0.00    +0.000 C 
BRANCH  10  11
ATOM     11  N   UNL     1      46.963   9.427  20.593  0.00  0.00    +0.000 NA
ATOM     12  C   UNL     1      46.971  10.502  19.596  0.00  0.00    +0.000 C 
ATOM     13  C   UNL     1      47.575  11.832  20.053  0.00  0.00    +0.000 C 
ATOM     14  O   UNL     1      46.915  12.339  21.207  0.00  0.00    +0.000 OA
ATOM     15  C   UNL     1      46.829  11.412  22.284  0.00  0.00    +0.000 C 
ATOM     16  C   UNL     1      46.572   9.931  21.918  0.00  0.00    +0.000 C 
ENDBRANCH  10  11
ENDBRANCH   6  10
ENDBRANCH   2   3
BRANCH   2  17
ATOM     17  N   UNL     1      47.063   4.854  15.256  0.00  0.00    +0.000 N 
ATOM     18  C   UNL     1      47.381   5.573  14.129  0.00  0.00    +0.000 C 
ATOM     19  O   UNL     1      48.531   5.949  13.897  0.00  0.00    +0.000 OA
ATOM     20  H   UNL     1      46.098   4.902  15.563  0.00  0.00    +0.000 HD
BRANCH  18  21
ATOM     21  C   UNL     1      46.307   5.826  13.166  0.00  0.00    +0.000 A 
ATOM     22  C   UNL     1      45.980   7.137  12.840  0.00  0.00    +0.000 A 
ATOM     23  S   UNL     1      44.724   7.265  11.698  0.00  0.00    +0.000 S 
ATOM     24  C   UNL     1      44.541   5.574  11.632  0.00  0.00    +0.000 A 
ATOM     25  N   UNL     1      43.585   5.005  10.851  0.00  0.00    +0.000 NA
ATOM     26  C   UNL     1      43.530   3.719  10.930  0.00  0.00    +0.000 A 
ATOM     27  N   UNL     1      44.353   2.947  11.712  0.00  0.00    +0.000 N 
ATOM     28  C   UNL     1      45.365   3.476  12.480  0.00  0.00    +0.000 A 
ATOM     29  O   UNL     1      46.128   2.763  13.121  0.00  0.00    +0.000 OA
ATOM     30  C   UNL     1      45.445   4.922  12.451  0.00  0.00    +0.000 A 
ATOM     31  H   UNL     1      44.266   1.942  11.715  0.00  0.00    +0.000 HD
ENDBRANCH  18  21
ENDBRANCH   2  17
TORSDOF 5
ENDMDL
MODEL 3
REMARK VINA RESULT:    -6.608      4.294      8.659
REMARK INTER + INTRA:          -9.760
REMARK INTER:                  -8.787
REMARK INTRA:                  -0.974
REMARK UNBOUND:                -1.221
REMARK  Name = 
REMARK  6 active torsions:
REMARK  status: ('A' for Active; 'I' for Inactive)
REMARK    1  A    between atoms: C_1  and  C_2
REMARK    2  A    between atoms: C_2  and  N_3
REMARK    3  A    between atoms: C_2  and  C_16
REMARK    4  A    between atoms: C_4  and  C_6
REMARK    5  A    between atoms: C_19  and  C_20
REMARK    6  A    between atoms: C_20  and  N_21
REMARK                            x       y       z     vdW  Elec       q    Type
REMARK                         _______ _______ _______ _____ _____    ______ ____
ROOT
ATOM      1  C   UNL     1      49.535   7.835  12.517  0.00  0.00    +0.000 C 
ATOM      2  C   UNL     1      48.319   7.298  13.286  0.00  0.00    +0.000 C 
ENDROOT
BRANCH   2   3
ATOM      3  C   UNL     1      48.773   6.725  14.630  0.00  0.00    +0.000 A 
ATOM      4  C   UNL     1      49.942   7.205  15.243  0.00  0.00    +0.000 A 
ATOM      5  C   UNL     1      50.383   6.685  16.471  0.00  0.00    +0.000 A 
ATOM      6  C   UNL     1      49.640   5.704  17.156  0.00  0.00    +0.000 A 
ATOM      7  C   UNL     1      48.453   5.255  16.556  0.00  0.00    +0.000 A 
ATOM      8 CL   UNL     1      47.385   4.145  17.347  0.00  0.00    +0.000 Cl
ATOM      9  C   UNL     1      48.066   5.710  15.288  0.00  0.00    +0.000 A 
BRANCH   6  10
ATOM     10  C   UNL     1      50.159   5.141  18.473  0.00  0.00    +0.000 C 
BRANCH  10  11
ATOM     11  N   UNL     1      49.888   5.993  19.637  0.00  0.00    +0.000 NA
ATOM     12  C   UNL     1      49.926   5.347  20.953  0.00  0.00    +0.000 C 
ATOM     13  C   UNL     1      48.598   4.770  21.452  0.00  0.00    +0.000 C 
ATOM     14  O   UNL     1      47.582   5.764  21.507  0.00  0.00    +0.000 OA
ATOM     15  C   UNL     1      47.409   6.487  20.292  0.00  0.00    +0.000 C 
ATOM     16  C   UNL     1      48.685   6.827  19.487  0.00  0.00    +0.000 C 
ENDBRANCH  10  11
ENDBRANCH   6  10
ENDBRANCH   2   3
BRANCH   2  17
ATOM     17  N   UNL     1      47.537   6.327  12.511  0.00  0.00    +0.000 N 
ATOM     18  C   UNL     1      46.431   6.688  11.778  0.00  0.00    +0.000 C 
ATOM     19  O   UNL     1      46.058   7.859  11.694  0.00  0.00    +0.000 OA
ATOM     20  H   UNL     1      47.567   5.367  12.835  0.00  0.00    +0.000 HD
BRANCH  18  21
ATOM     21  C   UNL     1      45.739   5.631  11.037  0.00  0.00    +0.000 A 
ATOM     22  C   UNL     1      45.776   5.638   9.649  0.00  0.00    +0.000 A 
ATOM     23  S   UNL     1      44.938   4.338   8.936  0.00  0.00    +0.000 S 
ATOM     24  C   UNL     1      44.458   3.745  10.457  0.00  0.00    +0.000 A 
ATOM     25  N   UNL     1      43.668   2.644  10.560  0.00  0.00    +0.000 NA
ATOM     26  C   UNL     1      43.346   2.331  11.769  0.00  0.00    +0.000 A 
ATOM     27  N   UNL     1      43.752   3.014  12.888  0.00  0.00    +0.000 N 
ATOM     28  C   UNL     1      44.592   4.104  12.834  0.00  0.00    +0.000 A 
ATOM     29  O   UNL     1      44.992   4.659  13.851  0.00  0.00    +0.000 OA
ATOM     30  C   UNL     1      44.954   4.515  11.494  0.00  0.00    +0.000 A 
ATOM     31  H   UNL     1      43.476   2.705  13.808  0.00  0.00    +0.000 HD
ENDBRANCH  18  21
ENDBRANCH   2  17
TORSDOF 5
ENDMDL
MODEL 4
REMARK VINA RESULT:    -6.515      4.461      8.727
REMARK INTER + INTRA:          -9.639
REMARK INTER:                  -8.670
REMARK INTRA:                  -0.969
REMARK UNBOUND:                -1.221
REMARK  Name = 
REMARK  6 active torsions:
REMARK  status: ('A' for Active; 'I' for Inactive)
REMARK    1  A    between atoms: C_1  and  C_2
REMARK    2  A    between atoms: C_2  and  N_3
REMARK    3  A    between atoms: C_2  and  C_16
REMARK    4  A    between atoms: C_4  and  C_6
REMARK    5  A    between atoms: C_19  and  C_20
REMARK    6  A    between atoms: C_20  and  N_21
REMARK                            x       y       z     vdW  Elec       q    Type
REMARK                         _______ _______ _______ _____ _____    ______ ____
ROOT
ATOM      1  C   UNL     1      49.283   8.569  11.665  0.00  0.00    +0.000 C 
ATOM      2  C   UNL     1      47.986   8.151  12.373  0.00  0.00    +0.000 C 
ENDROOT
BRANCH   2   3
ATOM      3  C   UNL     1      48.259   7.941  13.864  0.00  0.00    +0.000 A 
ATOM      4  C   UNL     1      48.632   6.675  14.342  0.00  0.00    +0.000 A 
ATOM      5  C   UNL     1      48.875   6.458  15.709  0.00  0.00    +0.000 A 
ATOM      6  C   UNL     1      48.807   7.516  16.638  0.00  0.00    +0.000 A 
ATOM      7  C   UNL     1      48.470   8.786  16.148  0.00  0.00    +0.000 A 
ATOM      8 CL   UNL     1      48.471  10.192  17.158  0.00  0.00    +0.000 Cl
ATOM      9  C   UNL     1      48.138   8.978  14.800  0.00  0.00    +0.000 A 
BRANCH   6  10
ATOM     10  C   UNL     1      49.050   7.243  18.117  0.00  0.00    +0.000 C 
BRANCH  10  11
ATOM     11  N   UNL     1      48.539   5.947  18.580  0.00  0.00    +0.000 NA
ATOM     12  C   UNL     1      47.260   5.958  19.296  0.00  0.00    +0.000 C 
ATOM     13  C   UNL     1      47.347   6.120  20.816  0.00  0.00    +0.000 C 
ATOM     14  O   UNL     1      48.145   5.100  21.406  0.00  0.00    +0.000 OA
ATOM     15  C   UNL     1      49.438   4.962  20.824  0.00  0.00    +0.000 C 
ATOM     16  C   UNL     1      49.542   5.140  19.292  0.00  0.00    +0.000 C 
ENDBRANCH  10  11
ENDBRANCH   6  10
ENDBRANCH   2   3
BRANCH   2  17
ATOM     17  N   UNL     1      47.354   6.977  11.759  0.00  0.00    +0.000 N 
ATOM     18  C   UNL     1      46.023   6.952  11.417  0.00  0.00    +0.000 C 
ATOM     19  O   UNL     1      45.291   7.932  11.566  0.00  0.00    +0.000 OA
ATOM     20  H   UNL     1      47.783   6.081  11.960  0.00  0.00    +0.000 HD
BRANCH  18  21
ATOM     21  C   UNL     1      45.509   5.726  10.801  0.00  0.00    +0.000 A 
ATOM     22  C   UNL     1      45.711   5.511   9.443  0.00  0.00    +0.000 A 
ATOM     23  S   UNL     1      45.069   4.037   8.882  0.00  0.00    +0.000 S 
ATOM     24  C   UNL     1      44.458   3.656  10.423  0.00  0.00    +0.000 A 
ATOM     25  N   UNL     1      43.749   2.514  10.631  0.00  0.00    +0.000 NA
ATOM     26  C   UNL     1      43.310   2.372  11.835  0.00  0.00    +0.000 A 
ATOM     27  N   UNL     1      43.525   3.264  12.856  0.00  0.00    +0.000 N 
ATOM     28  C   UNL     1      44.277   4.407  12.704  0.00  0.00    +0.000 A 
ATOM     29  O   UNL     1      44.508   5.157  13.645  0.00  0.00    +0.000 OA
ATOM     30  C   UNL     1      44.764   4.628  11.358  0.00  0.00    +0.000 A 
ATOM     31  H   UNL     1      43.164   3.083  13.781  0.00  0.00    +0.000 HD
ENDBRANCH  18  21
ENDBRANCH   2  17
TORSDOF 5
ENDMDL
MODEL 5
REMARK VINA RESULT:    -6.506      5.191      9.053
REMARK INTER + INTRA:          -9.628
REMARK INTER:                  -8.526
REMARK INTRA:                  -1.102
REMARK UNBOUND:                -1.221
REMARK  Name = 
REMARK  6 active torsions:
REMARK  status: ('A' for Active; 'I' for Inactive)
REMARK    1  A    between atoms: C_1  and  C_2
REMARK    2  A    between atoms: C_2  and  N_3
REMARK    3  A    between atoms: C_2  and  C_16
REMARK    4  A    between atoms: C_4  and  C_6
REMARK    5  A    between atoms: C_19  and  C_20
REMARK    6  A    between atoms: C_20  and  N_21
REMARK                            x       y       z     vdW  Elec       q    Type
REMARK                         _______ _______ _______ _____ _____    ______ ____
ROOT
ATOM      1  C   UNL     1      49.046   7.879  11.495  0.00  0.00    +0.000 C 
ATOM      2  C   UNL     1      47.775   7.732  12.346  0.00  0.00    +0.000 C 
ENDROOT
BRANCH   2   3
ATOM      3  C   UNL     1      48.136   7.830  13.829  0.00  0.00    +0.000 A 
ATOM      4  C   UNL     1      48.041   9.061  14.499  0.00  0.00    +0.000 A 
ATOM      5  C   UNL     1      48.378   9.175  15.858  0.00  0.00    +0.000 A 
ATOM      6  C   UNL     1      48.773   8.050  16.608  0.00  0.00    +0.000 A 
ATOM      7  C   UNL     1      48.830   6.816  15.942  0.00  0.00    +0.000 A 
ATOM      8 CL   UNL     1      49.179   5.338  16.772  0.00  0.00    +0.000 Cl
ATOM      9  C   UNL     1      48.582   6.724  14.565  0.00  0.00    +0.000 A 
BRANCH   6  10
ATOM     10  C   UNL     1      49.158   8.212  18.073  0.00  0.00    +0.000 C 
BRANCH  10  11
ATOM     11  N   UNL     1      48.015   8.359  18.981  0.00  0.00    +0.000 NA
ATOM     12  C   UNL     1      48.222   9.179  20.179  0.00  0.00    +0.000 C 
ATOM     13  C   UNL     1      48.719   8.434  21.421  0.00  0.00    +0.000 C 
ATOM     14  O   UNL     1      47.836   7.379  21.787  0.00  0.00    +0.000 OA
ATOM     15  C   UNL     1      47.536   6.477  20.726  0.00  0.00    +0.000 C 
ATOM     16  C   UNL     1      47.361   7.084  19.315  0.00  0.00    +0.000 C 
ENDBRANCH  10  11
ENDBRANCH   6  10
ENDBRANCH   2   3
BRANCH   2  17
ATOM     17  N   UNL     1      47.023   6.509  12.042  0.00  0.00    +0.000 N 
ATOM     18  C   UNL     1      45.652   6.451  12.108  0.00  0.00    +0.000 C 
ATOM     19  O   UNL     1      44.969   7.439  12.383  0.00  0.00    +0.000 OA
ATOM     20  H   UNL     1      47.517   5.634  12.181  0.00  0.00    +0.000 HD
BRANCH  18  21
ATOM     21  C   UNL     1      45.014   5.176  11.772  0.00  0.00    +0.000 A 
ATOM     22  C   UNL     1      44.315   4.485  12.753  0.00  0.00    +0.000 A 
ATOM     23  S   UNL     1      43.620   3.032  12.203  0.00  0.00    +0.000 S 
ATOM     24  C   UNL     1      44.267   3.251  10.645  0.00  0.00    +0.000 A 
ATOM     25  N   UNL     1      44.073   2.322   9.671  0.00  0.00    +0.000 NA
ATOM     26  C   UNL     1      44.655   2.595   8.553  0.00  0.00    +0.000 A 
ATOM     27  N   UNL     1      45.405   3.719   8.315  0.00  0.00    +0.000 N 
ATOM     28  C   UNL     1      45.587   4.708   9.255  0.00  0.00    +0.000 A 
ATOM     29  O   UNL     1      46.209   5.733   9.001  0.00  0.00    +0.000 OA
ATOM     30  C   UNL     1      44.981   4.431  10.541  0.00  0.00    +0.000 A 
ATOM     31  H   UNL     1      45.821   3.878   7.410  0.00  0.00    +0.000 HD
ENDBRANCH  18  21
ENDBRANCH   2  17
TORSDOF 5
ENDMDL
MODEL 6
REMARK VINA RESULT:    -6.433      4.489      8.983
REMARK INTER + INTRA:          -9.533
REMARK INTER:                  -8.442
REMARK INTRA:                  -1.092
REMARK UNBOUND:                -1.221
REMARK  Name = 
REMARK  6 active torsions:
REMARK  status: ('A' for Active; 'I' for Inactive)
REMARK    1  A    between atoms: C_1  and  C_2
REMARK    2  A    between atoms: C_2  and  N_3
REMARK    3  A    between atoms: C_2  and  C_16
REMARK    4  A    between atoms: C_4  and  C_6
REMARK    5  A    between atoms: C_19  and  C_20
REMARK    6  A    between atoms: C_20  and  N_21
REMARK                            x       y       z     vdW  Elec       q    Type
REMARK                         _______ _______ _______ _____ _____    ______ ____
ROOT
ATOM      1  C   UNL     1      48.934   7.894  11.621  0.00  0.00    +0.000 C 
ATOM      2  C   UNL     1      47.686   7.672  12.490  0.00  0.00    +0.000 C 
ENDROOT
BRANCH   2   3
ATOM      3  C   UNL     1      48.081   7.676  13.968  0.00  0.00    +0.000 A 
ATOM      4  C   UNL     1      48.504   6.490  14.589  0.00  0.00    +0.000 A 
ATOM      5  C   UNL     1      48.860   6.469  15.947  0.00  0.00    +0.000 A 
ATOM      6  C   UNL     1      48.857   7.648  16.719  0.00  0.00    +0.000 A 
ATOM      7  C   UNL     1      48.469   8.837  16.083  0.00  0.00    +0.000 A 
ATOM      8 CL   UNL     1      48.539  10.372  16.880  0.00  0.00    +0.000 Cl
ATOM      9  C   UNL     1      48.027   8.836  14.753  0.00  0.00    +0.000 A 
BRANCH   6  10
ATOM     10  C   UNL     1      49.223   7.588  18.198  0.00  0.00    +0.000 C 
BRANCH  10  11
ATOM     11  N   UNL     1      48.898   6.311  18.844  0.00  0.00    +0.000 NA
ATOM     12  C   UNL     1      47.567   6.196  19.450  0.00  0.00    +0.000 C 
ATOM     13  C   UNL     1      47.464   6.613  20.919  0.00  0.00    +0.000 C 
ATOM     14  O   UNL     1      48.360   5.871  21.739  0.00  0.00    +0.000 OA
ATOM     15  C   UNL     1      49.711   5.888  21.288  0.00  0.00    +0.000 C 
ATOM     16  C   UNL     1      49.944   5.834  19.760  0.00  0.00    +0.000 C 
ENDBRANCH  10  11
ENDBRANCH   6  10
ENDBRANCH   2   3
BRANCH   2  17
ATOM     17  N   UNL     1      46.944   6.461  12.122  0.00  0.00    +0.000 N 
ATOM     18  C   UNL     1      45.577   6.371  12.235  0.00  0.00    +0.000 C 
ATOM     19  O   UNL     1      44.889   7.322  12.611  0.00  0.00    +0.000 OA
ATOM     20  H   UNL     1      47.457   5.588  12.174  0.00  0.00    +0.000 HD
BRANCH  18  21
ATOM     21  C   UNL     1      44.948   5.113  11.826  0.00  0.00    +0.000 A 
ATOM     22  C   UNL     1      44.238   4.372  12.762  0.00  0.00    +0.000 A 
ATOM     23  S   UNL     1      43.555   2.945  12.130  0.00  0.00    +0.000 S 
ATOM     24  C   UNL     1      44.223   3.245  10.594  0.00  0.00    +0.000 A 
ATOM     25  N   UNL     1      44.045   2.366   9.572  0.00  0.00    +0.000 NA
ATOM     26  C   UNL     1      44.641   2.696   8.477  0.00  0.00    +0.000 A 
ATOM     27  N   UNL     1      45.391   3.833   8.306  0.00  0.00    +0.000 N 
ATOM     28  C   UNL     1      45.557   4.773   9.298  0.00  0.00    +0.000 A 
ATOM     29  O   UNL     1      46.178   5.812   9.103  0.00  0.00    +0.000 OA
ATOM     30  C   UNL     1      44.934   4.430  10.559  0.00  0.00    +0.000 A 
ATOM     31  H   UNL     1      45.818   4.038   7.416  0.00  0.00    +0.000 HD
ENDBRANCH  18  21
ENDBRANCH   2  17
TORSDOF 5
ENDMDL
MODEL 7
REMARK VINA RESULT:    -6.355      3.644      8.728
REMARK INTER + INTRA:          -9.433
REMARK INTER:                  -8.513
REMARK INTRA:                  -0.920
REMARK UNBOUND:                -1.221
REMARK  Name = 
REMARK  6 active torsions:
REMARK  status: ('A' for Active; 'I' for Inactive)
REMARK    1  A    between atoms: C_1  and  C_2
REMARK    2  A    between atoms: C_2  and  N_3
REMARK    3  A    between atoms: C_2  and  C_16
REMARK    4  A    between atoms: C_4  and  C_6
REMARK    5  A    between atoms: C_19  and  C_20
REMARK    6  A    between atoms: C_20  and  N_21
REMARK                            x       y       z     vdW  Elec       q    Type
REMARK                         _______ _______ _______ _____ _____    ______ ____
ROOT
ATOM      1  C   UNL     1      49.598   7.424  13.085  0.00  0.00    +0.000 C 
ATOM      2  C   UNL     1      48.216   7.089  13.666  0.00  0.00    +0.000 C 
ENDROOT
BRANCH   2   3
ATOM      3  C   UNL     1      48.373   6.563  15.095  0.00  0.00    +0.000 A 
ATOM      4  C   UNL     1      48.982   7.360  16.077  0.00  0.00    +0.000 A 
ATOM      5  C   UNL     1      49.147   6.892  17.391  0.00  0.00    +0.000 A 
ATOM      6  C   UNL     1      48.659   5.629  17.782  0.00  0.00    +0.000 A 
ATOM      7  C   UNL     1      48.018   4.853  16.804  0.00  0.00    +0.000 A 
ATOM      8 CL   UNL     1      47.266   3.339  17.178  0.00  0.00    +0.000 Cl
ATOM      9  C   UNL     1      47.938   5.286  15.473  0.00  0.00    +0.000 A 
BRANCH   6  10
ATOM     10  C   UNL     1      48.877   5.139  19.208  0.00  0.00    +0.000 C 
BRANCH  10  11
ATOM     11  N   UNL     1      50.174   4.486  19.425  0.00  0.00    +0.000 NA
ATOM     12  C   UNL     1      51.164   5.227  20.211  0.00  0.00    +0.000 C 
ATOM     13  C   UNL     1      52.103   6.138  19.416  0.00  0.00    +0.000 C 
ATOM     14  O   UNL     1      52.819   5.413  18.422  0.00  0.00    +0.000 OA
ATOM     15  C   UNL     1      51.993   4.638  17.558  0.00  0.00    +0.000 C 
ATOM     16  C   UNL     1      50.769   3.940  18.196  0.00  0.00    +0.000 C 
ENDBRANCH  10  11
ENDBRANCH   6  10
ENDBRANCH   2   3
BRANCH   2  17
ATOM     17  N   UNL     1      47.450   6.166  12.821  0.00  0.00    +0.000 N 
ATOM     18  C   UNL     1      46.524   6.603  11.903  0.00  0.00    +0.000 C 
ATOM     19  O   UNL     1      46.317   7.801  11.705  0.00  0.00    +0.000 OA
ATOM     20  H   UNL     1      47.310   5.232  13.191  0.00  0.00    +0.000 HD
BRANCH  18  21
ATOM     21  C   UNL     1      45.830   5.586  11.110  0.00  0.00    +0.000 A 
ATOM     22  C   UNL     1      45.911   5.631   9.724  0.00  0.00    +0.000 A 
ATOM     23  S   UNL     1      45.064   4.374   8.948  0.00  0.00    +0.000 S 
ATOM     24  C   UNL     1      44.521   3.752  10.436  0.00  0.00    +0.000 A 
ATOM     25  N   UNL     1      43.700   2.669  10.481  0.00  0.00    +0.000 NA
ATOM     26  C   UNL     1      43.332   2.330  11.670  0.00  0.00    +0.000 A 
ATOM     27  N   UNL     1      43.719   2.970  12.821  0.00  0.00    +0.000 N 
ATOM     28  C   UNL     1      44.587   4.039  12.825  0.00  0.00    +0.000 A 
ATOM     29  O   UNL     1      44.969   4.555  13.869  0.00  0.00    +0.000 OA
ATOM     30  C   UNL     1      45.002   4.478  11.509  0.00  0.00    +0.000 A 
ATOM     31  H   UNL     1      43.405   2.643  13.722  0.00  0.00    +0.000 HD
ENDBRANCH  18  21
ENDBRANCH   2  17
TORSDOF 5
ENDMDL
MODEL 8
REMARK VINA RESULT:    -6.249      3.495      9.143
REMARK INTER + INTRA:          -9.297
REMARK INTER:                  -8.334
REMARK INTRA:                  -0.963
REMARK UNBOUND:                -1.221
REMARK  Name = 
REMARK  6 active torsions:
REMARK  status: ('A' for Active; 'I' for Inactive)
REMARK    1  A    between atoms: C_1  and  C_2
REMARK    2  A    between atoms: C_2  and  N_3
REMARK    3  A    between atoms: C_2  and  C_16
REMARK    4  A    between atoms: C_4  and  C_6
REMARK    5  A    between atoms: C_19  and  C_20
REMARK    6  A    between atoms: C_20  and  N_21
REMARK                            x       y       z     vdW  Elec       q    Type
REMARK                         _______ _______ _______ _____ _____    ______ ____
ROOT
ATOM      1  C   UNL     1      48.662   8.021  11.718  0.00  0.00    +0.000 C 
ATOM      2  C   UNL     1      47.789   7.446  12.844  0.00  0.00    +0.000 C 
ENDROOT
BRANCH   2   3
ATOM      3  C   UNL     1      48.655   7.168  14.075  0.00  0.00    +0.000 A 
ATOM      4  C   UNL     1      48.148   6.400  15.135  0.00  0.00    +0.000 A 
ATOM      5  C   UNL     1      48.922   6.142  16.279  0.00  0.00    +0.000 A 
ATOM      6  C   UNL     1      50.251   6.600  16.377  0.00  0.00    +0.000 A 
ATOM      7  C   UNL     1      50.764   7.335  15.298  0.00  0.00    +0.000 A 
ATOM      8 CL   UNL     1      52.416   7.849  15.237  0.00  0.00    +0.000 Cl
ATOM      9  C   UNL     1      49.958   7.668  14.200  0.00  0.00    +0.000 A 
BRANCH   6  10
ATOM     10  C   UNL     1      51.056   6.327  17.642  0.00  0.00    +0.000 C 
BRANCH  10  11
ATOM     11  N   UNL     1      50.841   4.992  18.213  0.00  0.00    +0.000 NA
ATOM     12  C   UNL     1      51.073   4.842  19.653  0.00  0.00    +0.000 C 
ATOM     13  C   UNL     1      52.496   4.452  20.063  0.00  0.00    +0.000 C 
ATOM     14  O   UNL     1      52.903   3.235  19.448  0.00  0.00    +0.000 OA
ATOM     15  C   UNL     1      52.749   3.218  18.032  0.00  0.00    +0.000 C 
ATOM     16  C   UNL     1      51.496   3.916  17.453  0.00  0.00    +0.000 C 
ENDBRANCH  10  11
ENDBRANCH   6  10
ENDBRANCH   2   3
BRANCH   2  17
ATOM     17  N   UNL     1      47.027   6.263  12.428  0.00  0.00    +0.000 N 
ATOM     18  C   UNL     1      45.654   6.258  12.355  0.00  0.00    +0.000 C 
ATOM     19  O   UNL     1      44.984   7.264  12.593  0.00  0.00    +0.000 OA
ATOM     20  H   UNL     1      47.472   5.365  12.587  0.00  0.00    +0.000 HD
BRANCH  18  21
ATOM     21  C   UNL     1      45.007   5.019  11.916  0.00  0.00    +0.000 A 
ATOM     22  C   UNL     1      44.302   4.256  12.839  0.00  0.00    +0.000 A 
ATOM     23  S   UNL     1      43.597   2.857  12.172  0.00  0.00    +0.000 S 
ATOM     24  C   UNL     1      44.247   3.197  10.637  0.00  0.00    +0.000 A 
ATOM     25  N   UNL     1      44.047   2.352   9.591  0.00  0.00    +0.000 NA
ATOM     26  C   UNL     1      44.631   2.711   8.498  0.00  0.00    +0.000 A 
ATOM     27  N   UNL     1      45.390   3.845   8.353  0.00  0.00    +0.000 N 
ATOM     28  C   UNL     1      45.579   4.753   9.371  0.00  0.00    +0.000 A 
ATOM     29  O   UNL     1      46.209   5.791   9.200  0.00  0.00    +0.000 OA
ATOM     30  C   UNL     1      44.970   4.377  10.629  0.00  0.00    +0.000 A 
ATOM     31  H   UNL     1      45.808   4.074   7.463  0.00  0.00    +0.000 HD
ENDBRANCH  18  21
ENDBRANCH   2  17
TORSDOF 5
ENDMDL
MODEL 9
REMARK VINA RESULT:    -6.088      6.462      9.367
REMARK INTER + INTRA:          -9.088
REMARK INTER:                  -8.185
REMARK INTRA:                  -0.903
REMARK UNBOUND:                -1.221
REMARK  Name = 
REMARK  6 active torsions:
REMARK  status: ('A' for Active; 'I' for Inactive)
REMARK    1  A    between atoms: C_1  and  C_2
REMARK    2  A    between atoms: C_2  and  N_3
REMARK    3  A    between atoms: C_2  and  C_16
REMARK    4  A    between atoms: C_4  and  C_6
REMARK    5  A    between atoms: C_19  and  C_20
REMARK    6  A    between atoms: C_20  and  N_21
REMARK                            x       y       z     vdW  Elec       q    Type
REMARK                         _______ _______ _______ _____ _____    ______ ____
ROOT
ATOM      1  C   UNL     1      45.116   9.578  12.248  0.00  0.00    +0.000 C 
ATOM      2  C   UNL     1      45.953   8.332  12.574  0.00  0.00    +0.000 C 
ENDROOT
BRANCH   2   3
ATOM      3  C   UNL     1      47.407   8.567  12.162  0.00  0.00    +0.000 A 
ATOM      4  C   UNL     1      48.313   7.495  12.126  0.00  0.00    +0.000 A 
ATOM      5  C   UNL     1      49.656   7.691  11.762  0.00  0.00    +0.000 A 
ATOM      6  C   UNL     1      50.126   8.959  11.368  0.00  0.00    +0.000 A 
ATOM      7  C   UNL     1      49.207  10.019  11.370  0.00  0.00    +0.000 A 
ATOM      8 CL   UNL     1      49.621  11.598  10.792  0.00  0.00    +0.000 Cl
ATOM      9  C   UNL     1      47.892   9.838  11.822  0.00  0.00    +0.000 A 
BRANCH   6  10
ATOM     10  C   UNL     1      51.594   9.145  11.004  0.00  0.00    +0.000 C 
BRANCH  10  11
ATOM     11  N   UNL     1      52.341   7.889  10.869  0.00  0.00    +0.000 NA
ATOM     12  C   UNL     1      53.650   7.824  11.527  0.00  0.00    +0.000 C 
ATOM     13  C   UNL     1      54.846   8.269  10.681  0.00  0.00    +0.000 C 
ATOM     14  O   UNL     1      54.947   7.514   9.479  0.00  0.00    +0.000 OA
ATOM     15  C   UNL     1      53.750   7.483   8.708  0.00  0.00    +0.000 C 
ATOM     16  C   UNL     1      52.415   7.396   9.485  0.00  0.00    +0.000 C 
ENDBRANCH  10  11
ENDBRANCH   6  10
ENDBRANCH   2   3
BRANCH   2  17
ATOM     17  N   UNL     1      45.404   7.106  11.982  0.00  0.00    +0.000 N 
ATOM     18  C   UNL     1      45.408   5.902  12.644  0.00  0.00    +0.000 C 
ATOM     19  O   UNL     1      45.834   5.791  13.795  0.00  0.00    +0.000 OA
ATOM     20  H   UNL     1      45.399   7.062  10.969  0.00  0.00    +0.000 HD
BRANCH  18  21
ATOM     21  C   UNL     1      44.822   4.751  11.953  0.00  0.00    +0.000 A 
ATOM     22  C   UNL     1      44.031   3.859  12.666  0.00  0.00    +0.000 A 
ATOM     23  S   UNL     1      43.412   2.585  11.721  0.00  0.00    +0.000 S 
ATOM     24  C   UNL     1      44.218   3.154  10.334  0.00  0.00    +0.000 A 
ATOM     25  N   UNL     1      44.137   2.483   9.155  0.00  0.00    +0.000 NA
ATOM     26  C   UNL     1      44.830   3.002   8.199  0.00  0.00    +0.000 A 
ATOM     27  N   UNL     1      45.590   4.139   8.312  0.00  0.00    +0.000 N 
ATOM     28  C   UNL     1      45.663   4.877   9.471  0.00  0.00    +0.000 A 
ATOM     29  O   UNL     1      46.297   5.924   9.531  0.00  0.00    +0.000 OA
ATOM     30  C   UNL     1      44.927   4.315  10.585  0.00  0.00    +0.000 A 
ATOM     31  H   UNL     1      46.098   4.500   7.517  0.00  0.00    +0.000 HD
ENDBRANCH  18  21
ENDBRANCH   2  17
TORSDOF 5
ENDMDL
