MODEL 1
REMARK VINA RESULT:    -8.334      0.000      0.000
REMARK INTER + INTRA:         -11.715
REMARK INTER:                 -10.770
REMARK INTRA:                  -0.946
REMARK UNBOUND:                -0.946
REMARK  Name = 
REMARK  5 active torsions:
REMARK  status: ('A' for Active; 'I' for Inactive)
REMARK    1  A    between atoms: C_2  and  C_4
REMARK    2  A    between atoms: C_8  and  C_9
REMARK    3  A    between atoms: C_9  and  C_10
REMARK    4  A    between atoms: C_10  and  C_11
REMARK    5  A    between atoms: C_15  and  C_16
REMARK                            x       y       z     vdW  Elec       q    Type
REMARK                         _______ _______ _______ _____ _____    ______ ____
ROOT
ATOM      1  C   UNL     1      44.500   6.525  11.475  0.00  0.00    +0.000 C 
ENDROOT
BRANCH   1   2
ATOM      2  C   UNL     1      44.366   5.061  11.120  0.00  0.00    +0.000 A 
ATOM      3  C   UNL     1      43.440   4.215  11.740  0.00  0.00    +0.000 A 
ATOM      4  C   UNL     1      43.326   2.884  11.352  0.00  0.00    +0.000 A 
ATOM      5  C   UNL     1      44.109   2.389  10.310  0.00  0.00    +0.000 A 
ATOM      6  C   UNL     1      45.005   3.217   9.613  0.00  0.00    +0.000 A 
ATOM      7  C   UNL     1      45.135   4.547  10.060  0.00  0.00    +0.000 A 
BRANCH   6   8
ATOM      8  C   UNL     1      45.703   2.745   8.395  0.00  0.00    +0.000 A 
ATOM      9  C   UNL     1      45.987   3.637   7.343  0.00  0.00    +0.000 A 
ATOM     10  C   UNL     1      46.738   3.247   6.232  0.00  0.00    +0.000 A 
ATOM     11  C   UNL     1      47.229   1.949   6.147  0.00  0.00    +0.000 A 
ATOM     12  C   UNL     1      46.945   1.036   7.161  0.00  0.00    +0.000 A 
ATOM     13  C   UNL     1      46.182   1.428   8.266  0.00  0.00    +0.000 A 
ENDBRANCH   6   8
ENDBRANCH   1   2
BRANCH   1  14
ATOM     14  C   UNL     1      45.913   7.103  11.330  0.00  0.00    +0.000 C 
BRANCH  14  19
ATOM     15  C   UNL     1      47.418   5.430  14.404  0.00  0.00    +0.000 A 
ATOM     16  C   UNL     1      48.329   6.402  14.830  0.00  0.00    +0.000 A 
ATOM     17  C   UNL     1      48.449   7.603  14.127  0.00  0.00    +0.000 A 
ATOM     18  C   UNL     1      47.663   7.831  12.998  0.00  0.00    +0.000 A 
ATOM     19  C   UNL     1      46.751   6.862  12.558  0.00  0.00    +0.000 A 
ATOM     20  C   UNL     1      46.640   5.656  13.263  0.00  0.00    +0.000 A 
BRANCH  15  22
ATOM     21  N   UNL     1      46.833   4.184  16.414  0.00  0.00    +0.000 N 
ATOM     22  C   UNL     1      47.255   4.134  15.116  0.00  0.00    +0.000 C 
ATOM     23  O   UNL     1      47.452   3.063  14.558  0.00  0.00    +0.000 OA
ATOM     24  H   UNL     1      46.614   3.296  16.843  0.00  0.00    +0.000 HD
ATOM     25  H   UNL     1      46.414   5.013  16.812  0.00  0.00    +0.000 HD
ENDBRANCH  15  22
ENDBRANCH  14  19
ENDBRANCH   1  14
TORSDOF 5
ENDMDL
MODEL 2
REMARK VINA RESULT:    -7.894      3.062      6.764
REMARK INTER + INTRA:         -11.148
REMARK INTER:                  -9.961
REMARK INTRA:                  -1.186
REMARK UNBOUND:                -0.946
REMARK  Name = 
REMARK  5 active torsions:
REMARK  status: ('A' for Active; 'I' for Inactive)
REMARK    1  A    between atoms: C_2  and  C_4
REMARK    2  A    between atoms: C_8  and  C_9
REMARK    3  A    between atoms: C_9  and  C_10
REMARK    4  A    between atoms: C_10  and  C_11
REMARK    5  A    between atoms: C_15  and  C_16
REMARK                            x       y       z     vdW  Elec       q    Type
REMARK                         _______ _______ _______ _____ _____    ______ ____
ROOT
ATOM      1  C   UNL     1      44.510   2.659  11.972  0.00  0.00    +0.000 C 
ENDROOT
BRANCH   1   2
ATOM      2  C   UNL     1      45.332   3.787  12.556  0.00  0.00    +0.000 A 
ATOM      3  C   UNL     1      46.524   3.570  13.254  0.00  0.00    +0.000 A 
ATOM      4  C   UNL     1      47.267   4.642  13.739  0.00  0.00    +0.000 A 
ATOM      5  C   UNL     1      46.848   5.949  13.497  0.00  0.00    +0.000 A 
ATOM      6  C   UNL     1      45.693   6.219  12.743  0.00  0.00    +0.000 A 
ATOM      7  C   UNL     1      44.935   5.115  12.308  0.00  0.00    +0.000 A 
BRANCH   6   8
ATOM      8  C   UNL     1      45.344   7.599  12.333  0.00  0.00    +0.000 A 
ATOM      9  C   UNL     1      46.083   8.697  12.815  0.00  0.00    +0.000 A 
ATOM     10  C   UNL     1      45.848   9.996  12.362  0.00  0.00    +0.000 A 
ATOM     11  C   UNL     1      44.863  10.231  11.408  0.00  0.00    +0.000 A 
ATOM     12  C   UNL     1      44.099   9.169  10.930  0.00  0.00    +0.000 A 
ATOM     13  C   UNL     1      44.331   7.870  11.395  0.00  0.00    +0.000 A 
ENDBRANCH   6   8
ENDBRANCH   1   2
BRANCH   1  14
ATOM     14  C   UNL     1      43.823   2.977  10.638  0.00  0.00    +0.000 C 
BRANCH  14  19
ATOM     15  C   UNL     1      46.404   2.264   7.927  0.00  0.00    +0.000 A 
ATOM     16  C   UNL     1      46.651   3.550   7.436  0.00  0.00    +0.000 A 
ATOM     17  C   UNL     1      45.990   4.648   7.989  0.00  0.00    +0.000 A 
ATOM     18  C   UNL     1      45.079   4.463   9.028  0.00  0.00    +0.000 A 
ATOM     19  C   UNL     1      44.818   3.179   9.525  0.00  0.00    +0.000 A 
ATOM     20  C   UNL     1      45.479   2.079   8.961  0.00  0.00    +0.000 A 
BRANCH  15  22
ATOM     21  N   UNL     1      46.568  -0.157   7.711  0.00  0.00    +0.000 N 
ATOM     22  C   UNL     1      47.081   1.062   7.370  0.00  0.00    +0.000 C 
ATOM     23  O   UNL     1      48.034   1.155   6.609  0.00  0.00    +0.000 OA
ATOM     24  H   UNL     1      46.964  -0.953   7.230  0.00  0.00    +0.000 HD
ATOM     25  H   UNL     1      45.646  -0.261   8.109  0.00  0.00    +0.000 HD
ENDBRANCH  15  22
ENDBRANCH  14  19
ENDBRANCH   1  14
TORSDOF 5
ENDMDL
MODEL 3
REMARK VINA RESULT:    -7.888      3.267      7.042
REMARK INTER + INTRA:         -11.139
REMARK INTER:                  -9.943
REMARK INTRA:                  -1.196
REMARK UNBOUND:                -0.946
REMARK  Name = 
REMARK  5 active torsions:
REMARK  status: ('A' for Active; 'I' for Inactive)
REMARK    1  A    between atoms: C_2  and  C_4
REMARK    2  A    between atoms: C_8  and  C_9
REMARK    3  A    between atoms: C_9  and  C_10
REMARK    4  A    between atoms: C_10  and  C_11
REMARK    5  A    between atoms: C_15  and  C_16
REMARK                            x       y       z     vdW  Elec       q    Type
REMARK                         _______ _______ _______ _____ _____    ______ ____
ROOT
ATOM      1  C   UNL     1      43.965   4.679  10.784  0.00  0.00    +0.000 C 
ENDROOT
BRANCH   1   2
ATOM      2  C   UNL     1      45.066   5.003  11.770  0.00  0.00    +0.000 A 
ATOM      3  C   UNL     1      45.438   4.132  12.800  0.00  0.00    +0.000 A 
ATOM      4  C   UNL     1      46.484   4.455  13.659  0.00  0.00    +0.000 A 
ATOM      5  C   UNL     1      47.200   5.637  13.474  0.00  0.00    +0.000 A 
ATOM      6  C   UNL     1      46.908   6.511  12.413  0.00  0.00    +0.000 A 
ATOM      7  C   UNL     1      45.813   6.182  11.590  0.00  0.00    +0.000 A 
BRANCH   6   8
ATOM      8  C   UNL     1      47.777   7.670  12.106  0.00  0.00    +0.000 A 
ATOM      9  C   UNL     1      47.324   8.984  12.334  0.00  0.00    +0.000 A 
ATOM     10  C   UNL     1      48.158  10.089  12.157  0.00  0.00    +0.000 A 
ATOM     11  C   UNL     1      49.475   9.908  11.749  0.00  0.00    +0.000 A 
ATOM     12  C   UNL     1      49.946   8.622  11.492  0.00  0.00    +0.000 A 
ATOM     13  C   UNL     1      49.103   7.518  11.660  0.00  0.00    +0.000 A 
ENDBRANCH   6   8
ENDBRANCH   1   2
BRANCH   1  14
ATOM     14  C   UNL     1      44.349   4.829   9.307  0.00  0.00    +0.000 C 
BRANCH  14  19
ATOM     15  C   UNL     1      46.553   2.536   7.210  0.00  0.00    +0.000 A 
ATOM     16  C   UNL     1      46.279   1.289   7.783  0.00  0.00    +0.000 A 
ATOM     17  C   UNL     1      45.375   1.191   8.842  0.00  0.00    +0.000 A 
ATOM     18  C   UNL     1      44.746   2.336   9.331  0.00  0.00    +0.000 A 
ATOM     19  C   UNL     1      45.017   3.591   8.769  0.00  0.00    +0.000 A 
ATOM     20  C   UNL     1      45.932   3.685   7.711  0.00  0.00    +0.000 A 
BRANCH  15  22
ATOM     21  N   UNL     1      48.833   2.484   6.353  0.00  0.00    +0.000 N 
ATOM     22  C   UNL     1      47.511   2.693   6.083  0.00  0.00    +0.000 C 
ATOM     23  O   UNL     1      47.133   2.961   4.950  0.00  0.00    +0.000 OA
ATOM     24  H   UNL     1      49.452   2.478   5.554  0.00  0.00    +0.000 HD
ATOM     25  H   UNL     1      49.143   2.012   7.190  0.00  0.00    +0.000 HD
ENDBRANCH  15  22
ENDBRANCH  14  19
ENDBRANCH   1  14
TORSDOF 5
ENDMDL
MODEL 4
REMARK VINA RESULT:    -7.778      2.485      2.903
REMARK INTER + INTRA:         -10.997
REMARK INTER:                 -10.011
REMARK INTRA:                  -0.986
REMARK UNBOUND:                -0.946
REMARK  Name = 
REMARK  5 active torsions:
REMARK  status: ('A' for Active; 'I' for Inactive)
REMARK    1  A    between atoms: C_2  and  C_4
REMARK    2  A    between atoms: C_8  and  C_9
REMARK    3  A    between atoms: C_9  and  C_10
REMARK    4  A    between atoms: C_10  and  C_11
REMARK    5  A    between atoms: C_15  and  C_16
REMARK                            x       y       z     vdW  Elec       q    Type
REMARK                         _______ _______ _______ _____ _____    ______ ____
ROOT
ATOM      1  C   UNL     1      44.096   6.580  11.307  0.00  0.00    +0.000 C 
ENDROOT
BRANCH   1   2
ATOM      2  C   UNL     1      44.127   5.095  11.022  0.00  0.00    +0.000 A 
ATOM      3  C   UNL     1      43.304   4.181  11.690  0.00  0.00    +0.000 A 
ATOM      4  C   UNL     1      43.340   2.828  11.366  0.00  0.00    +0.000 A 
ATOM      5  C   UNL     1      44.169   2.376  10.341  0.00  0.00    +0.000 A 
ATOM      6  C   UNL     1      44.963   3.265   9.597  0.00  0.00    +0.000 A 
ATOM      7  C   UNL     1      44.944   4.621   9.980  0.00  0.00    +0.000 A 
BRANCH   6   8
ATOM      8  C   UNL     1      45.705   2.817   8.396  0.00  0.00    +0.000 A 
ATOM      9  C   UNL     1      46.043   3.733   7.381  0.00  0.00    +0.000 A 
ATOM     10  C   UNL     1      46.833   3.364   6.291  0.00  0.00    +0.000 A 
ATOM     11  C   UNL     1      47.312   2.062   6.190  0.00  0.00    +0.000 A 
ATOM     12  C   UNL     1      46.976   1.126   7.166  0.00  0.00    +0.000 A 
ATOM     13  C   UNL     1      46.173   1.498   8.250  0.00  0.00    +0.000 A 
ENDBRANCH   6   8
ENDBRANCH   1   2
BRANCH   1  14
ATOM     14  C   UNL     1      44.793   7.009  12.603  0.00  0.00    +0.000 C 
BRANCH  14  19
ATOM     15  C   UNL     1      48.165   8.685  12.020  0.00  0.00    +0.000 A 
ATOM     16  C   UNL     1      47.787  10.024  11.878  0.00  0.00    +0.000 A 
ATOM     17  C   UNL     1      46.443  10.385  11.980  0.00  0.00    +0.000 A 
ATOM     18  C   UNL     1      45.475   9.410  12.220  0.00  0.00    +0.000 A 
ATOM     19  C   UNL     1      45.840   8.064  12.358  0.00  0.00    +0.000 A 
ATOM     20  C   UNL     1      47.191   7.706  12.248  0.00  0.00    +0.000 A 
BRANCH  15  22
ATOM     21  N   UNL     1      49.899   7.024  12.431  0.00  0.00    +0.000 N 
ATOM     22  C   UNL     1      49.584   8.249  11.917  0.00  0.00    +0.000 C 
ATOM     23  O   UNL     1      50.430   8.938  11.364  0.00  0.00    +0.000 OA
ATOM     24  H   UNL     1      50.837   6.695  12.246  0.00  0.00    +0.000 HD
ATOM     25  H   UNL     1      49.195   6.334  12.648  0.00  0.00    +0.000 HD
ENDBRANCH  15  22
ENDBRANCH  14  19
ENDBRANCH   1  14
TORSDOF 5
ENDMDL
MODEL 5
REMARK VINA RESULT:    -7.522      1.834      2.103
REMARK INTER + INTRA:         -10.667
REMARK INTER:                  -9.584
REMARK INTRA:                  -1.083
REMARK UNBOUND:                -0.946
REMARK  Name = 
REMARK  5 active torsions:
REMARK  status: ('A' for Active; 'I' for Inactive)
REMARK    1  A    between atoms: C_2  and  C_4
REMARK    2  A    between atoms: C_8  and  C_9
REMARK    3  A    between atoms: C_9  and  C_10
REMARK    4  A    between atoms: C_10  and  C_11
REMARK    5  A    between atoms: C_15  and  C_16
REMARK                            x       y       z     vdW  Elec       q    Type
REMARK                         _______ _______ _______ _____ _____    ______ ____
ROOT
ATOM      1  C   UNL     1      45.089   7.346  11.388  0.00  0.00    +0.000 C 
ENDROOT
BRANCH   1   2
ATOM      2  C   UNL     1      44.652   5.921  11.131  0.00  0.00    +0.000 A 
ATOM      3  C   UNL     1      43.524   5.356  11.735  0.00  0.00    +0.000 A 
ATOM      4  C   UNL     1      43.139   4.052  11.436  0.00  0.00    +0.000 A 
ATOM      5  C   UNL     1      43.853   3.309  10.499  0.00  0.00    +0.000 A 
ATOM      6  C   UNL     1      44.953   3.856   9.816  0.00  0.00    +0.000 A 
ATOM      7  C   UNL     1      45.350   5.160  10.174  0.00  0.00    +0.000 A 
BRANCH   6   8
ATOM      8  C   UNL     1      45.601   3.138   8.695  0.00  0.00    +0.000 A 
ATOM      9  C   UNL     1      46.142   3.850   7.607  0.00  0.00    +0.000 A 
ATOM     10  C   UNL     1      46.853   3.209   6.590  0.00  0.00    +0.000 A 
ATOM     11  C   UNL     1      47.044   1.833   6.638  0.00  0.00    +0.000 A 
ATOM     12  C   UNL     1      46.500   1.097   7.689  0.00  0.00    +0.000 A 
ATOM     13  C   UNL     1      45.779   1.742   8.699  0.00  0.00    +0.000 A 
ENDBRANCH   6   8
ENDBRANCH   1   2
BRANCH   1  14
ATOM     14  C   UNL     1      45.620   7.620  12.800  0.00  0.00    +0.000 C 
BRANCH  14  19
ATOM     15  C   UNL     1      49.184   7.393  14.127  0.00  0.00    +0.000 A 
ATOM     16  C   UNL     1      49.926   7.517  12.948  0.00  0.00    +0.000 A 
ATOM     17  C   UNL     1      49.273   7.683  11.725  0.00  0.00    +0.000 A 
ATOM     18  C   UNL     1      47.879   7.721  11.679  0.00  0.00    +0.000 A 
ATOM     19  C   UNL     1      47.125   7.592  12.853  0.00  0.00    +0.000 A 
ATOM     20  C   UNL     1      47.786   7.419  14.076  0.00  0.00    +0.000 A 
BRANCH  15  22
ATOM     21  N   UNL     1      50.190   8.342  16.133  0.00  0.00    +0.000 N 
ATOM     22  C   UNL     1      49.833   7.212  15.454  0.00  0.00    +0.000 C 
ATOM     23  O   UNL     1      50.008   6.102  15.938  0.00  0.00    +0.000 OA
ATOM     24  H   UNL     1      50.518   8.204  17.079  0.00  0.00    +0.000 HD
ATOM     25  H   UNL     1      49.828   9.252  15.891  0.00  0.00    +0.000 HD
ENDBRANCH  15  22
ENDBRANCH  14  19
ENDBRANCH   1  14
TORSDOF 5
ENDMDL
MODEL 6
REMARK VINA RESULT:    -7.493      2.726      3.449
REMARK INTER + INTRA:         -10.629
REMARK INTER:                  -9.513
REMARK INTRA:                  -1.116
REMARK UNBOUND:                -0.946
REMARK  Name = 
REMARK  5 active torsions:
REMARK  status: ('A' for Active; 'I' for Inactive)
REMARK    1  A    between atoms: C_2  and  C_4
REMARK    2  A    between atoms: C_8  and  C_9
REMARK    3  A    between atoms: C_9  and  C_10
REMARK    4  A    between atoms: C_10  and  C_11
REMARK    5  A    between atoms: C_15  and  C_16
REMARK                            x       y       z     vdW  Elec       q    Type
REMARK                         _______ _______ _______ _____ _____    ______ ____
ROOT
ATOM      1  C   UNL     1      45.949   5.453  13.805  0.00  0.00    +0.000 C 
ENDROOT
BRANCH   1   2
ATOM      2  C   UNL     1      44.995   4.985  12.727  0.00  0.00    +0.000 A 
ATOM      3  C   UNL     1      43.627   5.274  12.752  0.00  0.00    +0.000 A 
ATOM      4  C   UNL     1      42.795   4.857  11.718  0.00  0.00    +0.000 A 
ATOM      5  C   UNL     1      43.328   4.179  10.623  0.00  0.00    +0.000 A 
ATOM      6  C   UNL     1      44.706   3.925  10.520  0.00  0.00    +0.000 A 
ATOM      7  C   UNL     1      45.516   4.315  11.605  0.00  0.00    +0.000 A 
BRANCH   6   8
ATOM      8  C   UNL     1      45.299   3.369   9.282  0.00  0.00    +0.000 A 
ATOM      9  C   UNL     1      45.776   4.224   8.270  0.00  0.00    +0.000 A 
ATOM     10  C   UNL     1      46.436   3.732   7.142  0.00  0.00    +0.000 A 
ATOM     11  C   UNL     1      46.639   2.364   6.999  0.00  0.00    +0.000 A 
ATOM     12  C   UNL     1      46.158   1.490   7.971  0.00  0.00    +0.000 A 
ATOM     13  C   UNL     1      45.487   1.987   9.094  0.00  0.00    +0.000 A 
ENDBRANCH   6   8
ENDBRANCH   1   2
BRANCH   1  14
ATOM     14  C   UNL     1      47.409   5.599  13.363  0.00  0.00    +0.000 C 
BRANCH  14  19
ATOM     15  C   UNL     1      46.919   9.171  12.130  0.00  0.00    +0.000 A 
ATOM     16  C   UNL     1      48.207   9.490  11.687  0.00  0.00    +0.000 A 
ATOM     17  C   UNL     1      49.231   8.546  11.780  0.00  0.00    +0.000 A 
ATOM     18  C   UNL     1      48.971   7.285  12.317  0.00  0.00    +0.000 A 
ATOM     19  C   UNL     1      47.686   6.956  12.769  0.00  0.00    +0.000 A 
ATOM     20  C   UNL     1      46.663   7.910  12.681  0.00  0.00    +0.000 A 
BRANCH  15  22
ATOM     21  N   UNL     1      44.626   9.793  12.669  0.00  0.00    +0.000 N 
ATOM     22  C   UNL     1      45.795  10.142  12.055  0.00  0.00    +0.000 C 
ATOM     23  O   UNL     1      45.917  11.226  11.501  0.00  0.00    +0.000 OA
ATOM     24  H   UNL     1      43.917  10.512  12.711  0.00  0.00    +0.000 HD
ATOM     25  H   UNL     1      44.576   9.046  13.346  0.00  0.00    +0.000 HD
ENDBRANCH  15  22
ENDBRANCH  14  19
ENDBRANCH   1  14
TORSDOF 5
ENDMDL
MODEL 7
REMARK VINA RESULT:    -7.258      3.538      4.363
REMARK INTER + INTRA:         -10.326
REMARK INTER:                  -9.469
REMARK INTRA:                  -0.856
REMARK UNBOUND:                -0.946
REMARK  Name = 
REMARK  5 active torsions:
REMARK  status: ('A' for Active; 'I' for Inactive)
REMARK    1  A    between atoms: C_2  and  C_4
REMARK    2  A    between atoms: C_8  and  C_9
REMARK    3  A    between atoms: C_9  and  C_10
REMARK    4  A    between atoms: C_10  and  C_11
REMARK    5  A    between atoms: C_15  and  C_16
REMARK                            x       y       z     vdW  Elec       q    Type
REMARK                         _______ _______ _______ _____ _____    ______ ____
ROOT
ATOM      1  C   UNL     1      44.173   6.842  11.439  0.00  0.00    +0.000 C 
ENDROOT
BRANCH   1   2
ATOM      2  C   UNL     1      44.155   5.356  11.156  0.00  0.00    +0.000 A 
ATOM      3  C   UNL     1      43.269   4.477  11.787  0.00  0.00    +0.000 A 
ATOM      4  C   UNL     1      43.262   3.124  11.464  0.00  0.00    +0.000 A 
ATOM      5  C   UNL     1      44.116   2.637  10.475  0.00  0.00    +0.000 A 
ATOM      6  C   UNL     1      44.976   3.492   9.766  0.00  0.00    +0.000 A 
ATOM      7  C   UNL     1      44.996   4.848  10.149  0.00  0.00    +0.000 A 
BRANCH   6   8
ATOM      8  C   UNL     1      45.750   3.013   8.598  0.00  0.00    +0.000 A 
ATOM      9  C   UNL     1      46.076   1.649   8.466  0.00  0.00    +0.000 A 
ATOM     10  C   UNL     1      46.708   1.151   7.326  0.00  0.00    +0.000 A 
ATOM     11  C   UNL     1      47.030   2.010   6.280  0.00  0.00    +0.000 A 
ATOM     12  C   UNL     1      46.742   3.369   6.390  0.00  0.00    +0.000 A 
ATOM     13  C   UNL     1      46.119   3.864   7.540  0.00  0.00    +0.000 A 
ENDBRANCH   6   8
ENDBRANCH   1   2
BRANCH   1  14
ATOM     14  C   UNL     1      45.160   7.286  12.526  0.00  0.00    +0.000 C 
BRANCH  14  19
ATOM     15  C   UNL     1      45.761  10.879  11.412  0.00  0.00    +0.000 A 
ATOM     16  C   UNL     1      47.153  10.971  11.515  0.00  0.00    +0.000 A 
ATOM     17  C   UNL     1      47.897   9.868  11.936  0.00  0.00    +0.000 A 
ATOM     18  C   UNL     1      47.252   8.674  12.258  0.00  0.00    +0.000 A 
ATOM     19  C   UNL     1      45.857   8.571  12.164  0.00  0.00    +0.000 A 
ATOM     20  C   UNL     1      45.115   9.684  11.748  0.00  0.00    +0.000 A 
BRANCH  15  22
ATOM     21  N   UNL     1      44.051  12.550  11.882  0.00  0.00    +0.000 N 
ATOM     22  C   UNL     1      44.924  12.027  10.971  0.00  0.00    +0.000 C 
ATOM     23  O   UNL     1      45.034  12.512   9.853  0.00  0.00    +0.000 OA
ATOM     24  H   UNL     1      43.580  13.400  11.606  0.00  0.00    +0.000 HD
ATOM     25  H   UNL     1      44.123  12.354  12.870  0.00  0.00    +0.000 HD
ENDBRANCH  15  22
ENDBRANCH  14  19
ENDBRANCH   1  14
TORSDOF 5
ENDMDL
MODEL 8
REMARK VINA RESULT:    -7.154      1.289      2.104
REMARK INTER + INTRA:         -10.190
REMARK INTER:                  -9.205
REMARK INTRA:                  -0.985
REMARK UNBOUND:                -0.946
REMARK  Name = 
REMARK  5 active torsions:
REMARK  status: ('A' for Active; 'I' for Inactive)
REMARK    1  A    between atoms: C_2  and  C_4
REMARK    2  A    between atoms: C_8  and  C_9
REMARK    3  A    between atoms: C_9  and  C_10
REMARK    4  A    between atoms: C_10  and  C_11
REMARK    5  A    between atoms: C_15  and  C_16
REMARK                            x       y       z     vdW  Elec       q    Type
REMARK                         _______ _______ _______ _____ _____    ______ ____
ROOT
ATOM      1  C   UNL     1      46.163   7.168  12.595  0.00  0.00    +0.000 C 
ENDROOT
BRANCH   1   2
ATOM      2  C   UNL     1      45.244   6.250  11.820  0.00  0.00    +0.000 A 
ATOM      3  C   UNL     1      43.850   6.328  11.908  0.00  0.00    +0.000 A 
ATOM      4  C   UNL     1      43.044   5.488  11.145  0.00  0.00    +0.000 A 
ATOM      5  C   UNL     1      43.621   4.586  10.253  0.00  0.00    +0.000 A 
ATOM      6  C   UNL     1      45.014   4.518  10.080  0.00  0.00    +0.000 A 
ATOM      7  C   UNL     1      45.806   5.345  10.901  0.00  0.00    +0.000 A 
BRANCH   6   8
ATOM      8  C   UNL     1      45.619   3.693   9.010  0.00  0.00    +0.000 A 
ATOM      9  C   UNL     1      45.617   2.288   9.101  0.00  0.00    +0.000 A 
ATOM     10  C   UNL     1      46.082   1.483   8.060  0.00  0.00    +0.000 A 
ATOM     11  C   UNL     1      46.561   2.067   6.892  0.00  0.00    +0.000 A 
ATOM     12  C   UNL     1      46.599   3.455   6.781  0.00  0.00    +0.000 A 
ATOM     13  C   UNL     1      46.143   4.257   7.832  0.00  0.00    +0.000 A 
ENDBRANCH   6   8
ENDBRANCH   1   2
BRANCH   1  14
ATOM     14  C   UNL     1      47.606   6.671  12.743  0.00  0.00    +0.000 C 
BRANCH  14  19
ATOM     15  C   UNL     1      47.996   5.038  16.164  0.00  0.00    +0.000 A 
ATOM     16  C   UNL     1      48.700   6.025  16.862  0.00  0.00    +0.000 A 
ATOM     17  C   UNL     1      49.039   7.222  16.229  0.00  0.00    +0.000 A 
ATOM     18  C   UNL     1      48.680   7.432  14.897  0.00  0.00    +0.000 A 
ATOM     19  C   UNL     1      47.981   6.449  14.185  0.00  0.00    +0.000 A 
ATOM     20  C   UNL     1      47.649   5.246  14.824  0.00  0.00    +0.000 A 
BRANCH  15  22
ATOM     21  N   UNL     1      48.621   2.980  17.307  0.00  0.00    +0.000 N 
ATOM     22  C   UNL     1      47.614   3.746  16.793  0.00  0.00    +0.000 C 
ATOM     23  O   UNL     1      46.445   3.395  16.884  0.00  0.00    +0.000 OA
ATOM     24  H   UNL     1      48.333   2.167  17.835  0.00  0.00    +0.000 HD
ATOM     25  H   UNL     1      49.542   3.351  17.485  0.00  0.00    +0.000 HD
ENDBRANCH  15  22
ENDBRANCH  14  19
ENDBRANCH   1  14
TORSDOF 5
ENDMDL
MODEL 9
REMARK VINA RESULT:    -6.975      1.699      3.908
REMARK INTER + INTRA:          -9.960
REMARK INTER:                  -8.865
REMARK INTRA:                  -1.094
REMARK UNBOUND:                -0.946
REMARK  Name = 
REMARK  5 active torsions:
REMARK  status: ('A' for Active; 'I' for Inactive)
REMARK    1  A    between atoms: C_2  and  C_4
REMARK    2  A    between atoms: C_8  and  C_9
REMARK    3  A    between atoms: C_9  and  C_10
REMARK    4  A    between atoms: C_10  and  C_11
REMARK    5  A    between atoms: C_15  and  C_16
REMARK                            x       y       z     vdW  Elec       q    Type
REMARK                         _______ _______ _______ _____ _____    ______ ____
ROOT
ATOM      1  C   UNL     1      48.928   7.191  13.392  0.00  0.00    +0.000 C 
ENDROOT
BRANCH   1   2
ATOM      2  C   UNL     1      47.515   7.283  12.861  0.00  0.00    +0.000 A 
ATOM      3  C   UNL     1      46.744   8.446  12.960  0.00  0.00    +0.000 A 
ATOM      4  C   UNL     1      45.462   8.495  12.421  0.00  0.00    +0.000 A 
ATOM      5  C   UNL     1      44.949   7.394  11.738  0.00  0.00    +0.000 A 
ATOM      6  C   UNL     1      45.710   6.228  11.553  0.00  0.00    +0.000 A 
ATOM      7  C   UNL     1      46.984   6.188  12.153  0.00  0.00    +0.000 A 
BRANCH   6   8
ATOM      8  C   UNL     1      45.240   5.129  10.678  0.00  0.00    +0.000 A 
ATOM      9  C   UNL     1      45.574   5.112   9.310  0.00  0.00    +0.000 A 
ATOM     10  C   UNL     1      45.237   4.037   8.485  0.00  0.00    +0.000 A 
ATOM     11  C   UNL     1      44.557   2.944   9.012  0.00  0.00    +0.000 A 
ATOM     12  C   UNL     1      44.191   2.942  10.357  0.00  0.00    +0.000 A 
ATOM     13  C   UNL     1      44.521   4.027  11.176  0.00  0.00    +0.000 A 
ENDBRANCH   6   8
ENDBRANCH   1   2
BRANCH   1  14
ATOM     14  C   UNL     1      49.169   7.904  14.728  0.00  0.00    +0.000 C 
BRANCH  14  19
ATOM     15  C   UNL     1      48.088   4.899  16.806  0.00  0.00    +0.000 A 
ATOM     16  C   UNL     1      48.078   5.444  18.095  0.00  0.00    +0.000 A 
ATOM     17  C   UNL     1      48.412   6.785  18.289  0.00  0.00    +0.000 A 
ATOM     18  C   UNL     1      48.760   7.582  17.199  0.00  0.00    +0.000 A 
ATOM     19  C   UNL     1      48.779   7.047  15.904  0.00  0.00    +0.000 A 
ATOM     20  C   UNL     1      48.450   5.698  15.716  0.00  0.00    +0.000 A 
BRANCH  15  22
ATOM     21  N   UNL     1      46.957   2.846  17.471  0.00  0.00    +0.000 N 
ATOM     22  C   UNL     1      47.742   3.476  16.548  0.00  0.00    +0.000 C 
ATOM     23  O   UNL     1      48.112   2.898  15.535  0.00  0.00    +0.000 OA
ATOM     24  H   UNL     1      46.635   1.922  17.221  0.00  0.00    +0.000 HD
ATOM     25  H   UNL     1      46.427   3.356  18.163  0.00  0.00    +0.000 HD
ENDBRANCH  15  22
ENDBRANCH  14  19
ENDBRANCH   1  14
TORSDOF 5
ENDMDL
