MODEL 1
REMARK VINA RESULT:    -7.721      0.000      0.000
REMARK INTER + INTRA:          -9.934
REMARK INTER:                  -9.978
REMARK INTRA:                   0.044
REMARK UNBOUND:                 0.044
REMARK  Name = 
REMARK  6 active torsions:
REMARK  status: ('A' for Active; 'I' for Inactive)
REMARK    1  A    between atoms: C_1  and  C_2
REMARK    2  A    between atoms: C_4  and  C_5
REMARK    3  A    between atoms: C_9  and  N_10
REMARK    4  A    between atoms: N_10  and  C_11
REMARK    5  A    between atoms: C_11  and  C_12
REMARK    6  A    between atoms: C_16  and  C_17
REMARK                            x       y       z     vdW  Elec       q    Type
REMARK                         _______ _______ _______ _____ _____    ______ ____
ROOT
ATOM      1  C   UNL     1      44.868   5.319  11.505  0.00  0.00    +0.000 C 
ATOM      2  C   UNL     1      45.486   4.080  12.177  0.00  0.00    +0.000 C 
ATOM      3  C   UNL     1      44.273   4.707  12.761  0.00  0.00    +0.000 C 
ENDROOT
BRANCH   1   4
ATOM      4  C   UNL     1      45.646   6.625  11.665  0.00  0.00    +0.000 A 
ATOM      5  C   UNL     1      47.048   6.631  11.753  0.00  0.00    +0.000 A 
ATOM      6  C   UNL     1      47.757   7.815  11.918  0.00  0.00    +0.000 A 
ATOM      7  C   UNL     1      47.078   9.029  11.996  0.00  0.00    +0.000 A 
ATOM      8  C   UNL     1      45.679   9.081  11.945  0.00  0.00    +0.000 A 
ATOM      9  C   UNL     1      44.989   7.867  11.751  0.00  0.00    +0.000 A 
BRANCH   8  10
ATOM     10  C   UNL     1      44.886  10.386  12.043  0.00  0.00    +0.000 C 
ATOM     11  C   UNL     1      43.578  10.448  11.228  0.00  0.00    +0.000 C 
ATOM     12  C   UNL     1      43.832  10.632   9.727  0.00  0.00    +0.000 C 
ATOM     13  N   UNL     1      44.655  11.807   9.441  0.00  0.00    +0.000 NA
ATOM     14  C   UNL     1      45.926  11.757  10.166  0.00  0.00    +0.000 C 
ATOM     15  C   UNL     1      45.720  11.632  11.676  0.00  0.00    +0.000 C 
ATOM     16  H   UNL     1      44.145  12.646   9.713  0.00  0.00    +0.000 HD
ENDBRANCH   8  10
ENDBRANCH   1   4
BRANCH   1  17
ATOM     17  N   UNL     1      44.428   5.038  10.123  0.00  0.00    +0.000 N 
ATOM     18  H   UNL     1      43.455   4.724  10.097  0.00  0.00    +0.000 HD
BRANCH  17  25
ATOM     19  C   UNL     1      44.052   1.995   9.958  0.00  0.00    +0.000 C 
ATOM     20  C   UNL     1      44.960   2.822   9.108  0.00  0.00    +0.000 A 
ATOM     21  C   UNL     1      45.845   2.144   8.239  0.00  0.00    +0.000 A 
ATOM     22  C   UNL     1      46.727   2.851   7.430  0.00  0.00    +0.000 A 
ATOM     23  C   UNL     1      46.687   4.227   7.509  0.00  0.00    +0.000 A 
ATOM     24  N   UNL     1      45.876   4.906   8.358  0.00  0.00    +0.000 NA
ATOM     25  C   UNL     1      45.029   4.215   9.164  0.00  0.00    +0.000 A 
BRANCH  22  26
ATOM     26  C   UNL     1      47.652   2.187   6.570  0.00  0.00    +0.000 C 
ATOM     27  N   UNL     1      48.417   1.649   5.874  0.00  0.00    +0.000 NA
ENDBRANCH  22  26
ENDBRANCH  17  25
ENDBRANCH   1  17
TORSDOF 5
ENDMDL
MODEL 2
REMARK VINA RESULT:    -7.608      2.165      3.537
REMARK INTER + INTRA:          -9.788
REMARK INTER:                  -8.662
REMARK INTRA:                  -1.125
REMARK UNBOUND:                 0.044
REMARK  Name = 
REMARK  6 active torsions:
REMARK  status: ('A' for Active; 'I' for Inactive)
REMARK    1  A    between atoms: C_1  and  C_2
REMARK    2  A    between atoms: C_4  and  C_5
REMARK    3  A    between atoms: C_9  and  N_10
REMARK    4  A    between atoms: N_10  and  C_11
REMARK    5  A    between atoms: C_11  and  C_12
REMARK    6  A    between atoms: C_16  and  C_17
REMARK                            x       y       z     vdW  Elec       q    Type
REMARK                         _______ _______ _______ _____ _____    ______ ____
ROOT
ATOM      1  C   UNL     1      44.152   6.150  11.033  0.00  0.00    +0.000 C 
ATOM      2  C   UNL     1      43.019   6.976  11.667  0.00  0.00    +0.000 C 
ATOM      3  C   UNL     1      43.972   7.628  10.733  0.00  0.00    +0.000 C 
ENDROOT
BRANCH   1   4
ATOM      4  C   UNL     1      45.299   5.760  11.966  0.00  0.00    +0.000 A 
ATOM      5  C   UNL     1      45.145   4.745  12.923  0.00  0.00    +0.000 A 
ATOM      6  C   UNL     1      46.179   4.401  13.786  0.00  0.00    +0.000 A 
ATOM      7  C   UNL     1      47.400   5.068  13.710  0.00  0.00    +0.000 A 
ATOM      8  C   UNL     1      47.601   6.110  12.795  0.00  0.00    +0.000 A 
ATOM      9  C   UNL     1      46.542   6.418  11.916  0.00  0.00    +0.000 A 
BRANCH   8  10
ATOM     10  C   UNL     1      48.916   6.883  12.683  0.00  0.00    +0.000 C 
ATOM     11  C   UNL     1      49.557   7.328  14.013  0.00  0.00    +0.000 C 
ATOM     12  C   UNL     1      48.828   8.520  14.645  0.00  0.00    +0.000 C 
ATOM     13  N   UNL     1      48.728   9.659  13.733  0.00  0.00    +0.000 NA
ATOM     14  C   UNL     1      48.082   9.281  12.475  0.00  0.00    +0.000 C 
ATOM     15  C   UNL     1      48.812   8.131  11.780  0.00  0.00    +0.000 C 
ATOM     16  H   UNL     1      49.663  10.013  13.538  0.00  0.00    +0.000 HD
ENDBRANCH   8  10
ENDBRANCH   1   4
BRANCH   1  17
ATOM     17  N   UNL     1      43.633   5.038  10.209  0.00  0.00    +0.000 N 
ATOM     18  H   UNL     1      43.004   4.437  10.746  0.00  0.00    +0.000 HD
BRANCH  17  25
ATOM     19  C   UNL     1      43.789   2.032  10.818  0.00  0.00    +0.000 C 
ATOM     20  C   UNL     1      44.522   2.756   9.736  0.00  0.00    +0.000 A 
ATOM     21  C   UNL     1      45.493   2.034   9.006  0.00  0.00    +0.000 A 
ATOM     22  C   UNL     1      46.223   2.649   7.995  0.00  0.00    +0.000 A 
ATOM     23  C   UNL     1      45.946   3.974   7.736  0.00  0.00    +0.000 A 
ATOM     24  N   UNL     1      45.046   4.704   8.443  0.00  0.00    +0.000 NA
ATOM     25  C   UNL     1      44.349   4.109   9.446  0.00  0.00    +0.000 A 
BRANCH  22  26
ATOM     26  C   UNL     1      47.232   1.950   7.266  0.00  0.00    +0.000 C 
ATOM     27  N   UNL     1      48.048   1.370   6.669  0.00  0.00    +0.000 NA
ENDBRANCH  22  26
ENDBRANCH  17  25
ENDBRANCH   1  17
TORSDOF 5
ENDMDL
MODEL 3
REMARK VINA RESULT:    -7.593      2.809      3.799
REMARK INTER + INTRA:          -9.769
REMARK INTER:                  -9.441
REMARK INTRA:                  -0.328
REMARK UNBOUND:                 0.044
REMARK  Name = 
REMARK  6 active torsions:
REMARK  status: ('A' for Active; 'I' for Inactive)
REMARK    1  A    between atoms: C_1  and  C_2
REMARK    2  A    between atoms: C_4  and  C_5
REMARK    3  A    between atoms: C_9  and  N_10
REMARK    4  A    between atoms: N_10  and  C_11
REMARK    5  A    between atoms: C_11  and  C_12
REMARK    6  A    between atoms: C_16  and  C_17
REMARK                            x       y       z     vdW  Elec       q    Type
REMARK                         _______ _______ _______ _____ _____    ______ ____
ROOT
ATOM      1  C   UNL     1      43.882   4.789  11.343  0.00  0.00    +0.000 C 
ATOM      2  C   UNL     1      42.517   4.805  12.053  0.00  0.00    +0.000 C 
ATOM      3  C   UNL     1      42.930   5.967  11.226  0.00  0.00    +0.000 C 
ENDROOT
BRANCH   1   4
ATOM      4  C   UNL     1      45.106   4.967  12.242  0.00  0.00    +0.000 A 
ATOM      5  C   UNL     1      45.633   3.890  12.974  0.00  0.00    +0.000 A 
ATOM      6  C   UNL     1      46.733   4.052  13.808  0.00  0.00    +0.000 A 
ATOM      7  C   UNL     1      47.338   5.302  13.927  0.00  0.00    +0.000 A 
ATOM      8  C   UNL     1      46.838   6.418  13.244  0.00  0.00    +0.000 A 
ATOM      9  C   UNL     1      45.737   6.217  12.387  0.00  0.00    +0.000 A 
BRANCH   8  10
ATOM     10  C   UNL     1      47.456   7.813  13.355  0.00  0.00    +0.000 C 
ATOM     11  C   UNL     1      48.239   8.307  12.123  0.00  0.00    +0.000 C 
ATOM     12  C   UNL     1      49.610   7.633  11.991  0.00  0.00    +0.000 C 
ATOM     13  N   UNL     1      50.425   7.788  13.196  0.00  0.00    +0.000 NA
ATOM     14  C   UNL     1      49.726   7.286  14.381  0.00  0.00    +0.000 C 
ATOM     15  C   UNL     1      48.376   7.974  14.584  0.00  0.00    +0.000 C 
ATOM     16  H   UNL     1      50.643   8.775  13.327  0.00  0.00    +0.000 HD
ENDBRANCH   8  10
ENDBRANCH   1   4
BRANCH   1  17
ATOM     17  N   UNL     1      43.993   3.676  10.377  0.00  0.00    +0.000 N 
ATOM     18  H   UNL     1      43.840   2.772  10.830  0.00  0.00    +0.000 HD
BRANCH  17  25
ATOM     19  C   UNL     1      45.763   5.791   9.026  0.00  0.00    +0.000 C 
ATOM     20  C   UNL     1      45.805   4.317   8.787  0.00  0.00    +0.000 A 
ATOM     21  C   UNL     1      46.628   3.846   7.739  0.00  0.00    +0.000 A 
ATOM     22  C   UNL     1      46.704   2.488   7.452  0.00  0.00    +0.000 A 
ATOM     23  C   UNL     1      45.956   1.637   8.237  0.00  0.00    +0.000 A 
ATOM     24  N   UNL     1      45.129   2.060   9.225  0.00  0.00    +0.000 NA
ATOM     25  C   UNL     1      45.038   3.389   9.491  0.00  0.00    +0.000 A 
BRANCH  22  26
ATOM     26  C   UNL     1      47.502   1.991   6.378  0.00  0.00    +0.000 C 
ATOM     27  N   UNL     1      48.163   1.592   5.505  0.00  0.00    +0.000 NA
ENDBRANCH  22  26
ENDBRANCH  17  25
ENDBRANCH   1  17
TORSDOF 5
ENDMDL
MODEL 4
REMARK VINA RESULT:    -7.452      1.950      3.288
REMARK INTER + INTRA:          -9.586
REMARK INTER:                  -9.612
REMARK INTRA:                   0.025
REMARK UNBOUND:                 0.044
REMARK  Name = 
REMARK  6 active torsions:
REMARK  status: ('A' for Active; 'I' for Inactive)
REMARK    1  A    between atoms: C_1  and  C_2
REMARK    2  A    between atoms: C_4  and  C_5
REMARK    3  A    between atoms: C_9  and  N_10
REMARK    4  A    between atoms: N_10  and  C_11
REMARK    5  A    between atoms: C_11  and  C_12
REMARK    6  A    between atoms: C_16  and  C_17
REMARK                            x       y       z     vdW  Elec       q    Type
REMARK                         _______ _______ _______ _____ _____    ______ ____
ROOT
ATOM      1  C   UNL     1      44.735   5.357  11.501  0.00  0.00    +0.000 C 
ATOM      2  C   UNL     1      45.473   4.182  12.167  0.00  0.00    +0.000 C 
ATOM      3  C   UNL     1      44.206   4.686  12.756  0.00  0.00    +0.000 C 
ENDROOT
BRANCH   1   4
ATOM      4  C   UNL     1      45.383   6.733  11.664  0.00  0.00    +0.000 A 
ATOM      5  C   UNL     1      44.604   7.894  11.786  0.00  0.00    +0.000 A 
ATOM      6  C   UNL     1      45.190   9.148  11.914  0.00  0.00    +0.000 A 
ATOM      7  C   UNL     1      46.578   9.270  11.927  0.00  0.00    +0.000 A 
ATOM      8  C   UNL     1      47.406   8.149  11.779  0.00  0.00    +0.000 A 
ATOM      9  C   UNL     1      46.782   6.889  11.676  0.00  0.00    +0.000 A 
BRANCH   8  10
ATOM     10  C   UNL     1      48.933   8.233  11.769  0.00  0.00    +0.000 C 
ATOM     11  C   UNL     1      49.677   7.141  12.565  0.00  0.00    +0.000 C 
ATOM     12  C   UNL     1      49.603   7.368  14.080  0.00  0.00    +0.000 C 
ATOM     13  N   UNL     1      50.091   8.690  14.469  0.00  0.00    +0.000 NA
ATOM     14  C   UNL     1      49.374   9.754  13.763  0.00  0.00    +0.000 C 
ATOM     15  C   UNL     1      49.469   9.600  12.246  0.00  0.00    +0.000 C 
ATOM     16  H   UNL     1      51.085   8.756  14.254  0.00  0.00    +0.000 HD
ENDBRANCH   8  10
ENDBRANCH   1   4
BRANCH   1  17
ATOM     17  N   UNL     1      44.320   5.040  10.119  0.00  0.00    +0.000 N 
ATOM     18  H   UNL     1      43.356   4.699  10.087  0.00  0.00    +0.000 HD
BRANCH  17  25
ATOM     19  C   UNL     1      44.020   1.986   9.999  0.00  0.00    +0.000 C 
ATOM     20  C   UNL     1      44.920   2.821   9.148  0.00  0.00    +0.000 A 
ATOM     21  C   UNL     1      45.834   2.151   8.304  0.00  0.00    +0.000 A 
ATOM     22  C   UNL     1      46.712   2.865   7.497  0.00  0.00    +0.000 A 
ATOM     23  C   UNL     1      46.637   4.241   7.552  0.00  0.00    +0.000 A 
ATOM     24  N   UNL     1      45.798   4.914   8.379  0.00  0.00    +0.000 NA
ATOM     25  C   UNL     1      44.956   4.216   9.183  0.00  0.00    +0.000 A 
BRANCH  22  26
ATOM     26  C   UNL     1      47.666   2.210   6.662  0.00  0.00    +0.000 C 
ATOM     27  N   UNL     1      48.438   1.679   5.970  0.00  0.00    +0.000 NA
ENDBRANCH  22  26
ENDBRANCH  17  25
ENDBRANCH   1  17
TORSDOF 5
ENDMDL
MODEL 5
REMARK VINA RESULT:    -7.117      1.458      2.155
REMARK INTER + INTRA:          -9.154
REMARK INTER:                  -9.256
REMARK INTRA:                   0.102
REMARK UNBOUND:                 0.044
REMARK  Name = 
REMARK  6 active torsions:
REMARK  status: ('A' for Active; 'I' for Inactive)
REMARK    1  A    between atoms: C_1  and  C_2
REMARK    2  A    between atoms: C_4  and  C_5
REMARK    3  A    between atoms: C_9  and  N_10
REMARK    4  A    between atoms: N_10  and  C_11
REMARK    5  A    between atoms: C_11  and  C_12
REMARK    6  A    between atoms: C_16  and  C_17
REMARK                            x       y       z     vdW  Elec       q    Type
REMARK                         _______ _______ _______ _____ _____    ______ ____
ROOT
ATOM      1  C   UNL     1      44.647   6.076  11.794  0.00  0.00    +0.000 C 
ATOM      2  C   UNL     1      45.776   5.187  12.345  0.00  0.00    +0.000 C 
ATOM      3  C   UNL     1      44.542   5.392  13.145  0.00  0.00    +0.000 C 
ENDROOT
BRANCH   1   4
ATOM      4  C   UNL     1      44.921   7.581  11.792  0.00  0.00    +0.000 A 
ATOM      5  C   UNL     1      45.921   8.139  12.604  0.00  0.00    +0.000 A 
ATOM      6  C   UNL     1      46.160   9.508  12.620  0.00  0.00    +0.000 A 
ATOM      7  C   UNL     1      45.401  10.356  11.816  0.00  0.00    +0.000 A 
ATOM      8  C   UNL     1      44.370   9.859  11.008  0.00  0.00    +0.000 A 
ATOM      9  C   UNL     1      44.169   8.463  10.994  0.00  0.00    +0.000 A 
BRANCH   8  10
ATOM     10  C   UNL     1      43.498  10.749  10.121  0.00  0.00    +0.000 C 
ATOM     11  C   UNL     1      43.238  12.178  10.640  0.00  0.00    +0.000 C 
ATOM     12  C   UNL     1      42.224  12.208  11.789  0.00  0.00    +0.000 C 
ATOM     13  N   UNL     1      40.958  11.569  11.432  0.00  0.00    +0.000 NA
ATOM     14  C   UNL     1      41.164  10.193  10.976  0.00  0.00    +0.000 C 
ATOM     15  C   UNL     1      42.127  10.121   9.790  0.00  0.00    +0.000 C 
ATOM     16  H   UNL     1      40.511  12.106  10.690  0.00  0.00    +0.000 HD
ENDBRANCH   8  10
ENDBRANCH   1   4
BRANCH   1  17
ATOM     17  N   UNL     1      44.101   5.556  10.524  0.00  0.00    +0.000 N 
ATOM     18  H   UNL     1      43.106   5.330  10.609  0.00  0.00    +0.000 HD
BRANCH  17  25
ATOM     19  C   UNL     1      43.517   2.586  11.048  0.00  0.00    +0.000 C 
ATOM     20  C   UNL     1      44.412   3.139   9.987  0.00  0.00    +0.000 A 
ATOM     21  C   UNL     1      45.185   2.224   9.238  0.00  0.00    +0.000 A 
ATOM     22  C   UNL     1      46.050   2.669   8.245  0.00  0.00    +0.000 A 
ATOM     23  C   UNL     1      46.105   4.029   8.024  0.00  0.00    +0.000 A 
ATOM     24  N   UNL     1      45.404   4.936   8.750  0.00  0.00    +0.000 NA
ATOM     25  C   UNL     1      44.576   4.502   9.735  0.00  0.00    +0.000 A 
BRANCH  22  26
ATOM     26  C   UNL     1      46.865   1.767   7.498  0.00  0.00    +0.000 C 
ATOM     27  N   UNL     1      47.534   1.025   6.899  0.00  0.00    +0.000 NA
ENDBRANCH  22  26
ENDBRANCH  17  25
ENDBRANCH   1  17
TORSDOF 5
ENDMDL
MODEL 6
REMARK VINA RESULT:    -7.014      4.313      7.253
REMARK INTER + INTRA:          -9.020
REMARK INTER:                  -8.131
REMARK INTRA:                  -0.888
REMARK UNBOUND:                 0.044
REMARK  Name = 
REMARK  6 active torsions:
REMARK  status: ('A' for Active; 'I' for Inactive)
REMARK    1  A    between atoms: C_1  and  C_2
REMARK    2  A    between atoms: C_4  and  C_5
REMARK    3  A    between atoms: C_9  and  N_10
REMARK    4  A    between atoms: N_10  and  C_11
REMARK    5  A    between atoms: C_11  and  C_12
REMARK    6  A    between atoms: C_16  and  C_17
REMARK                            x       y       z     vdW  Elec       q    Type
REMARK                         _______ _______ _______ _____ _____    ______ ____
ROOT
ATOM      1  C   UNL     1      48.142   7.909  13.441  0.00  0.00    +0.000 C 
ATOM      2  C   UNL     1      48.263   9.388  13.031  0.00  0.00    +0.000 C 
ATOM      3  C   UNL     1      48.775   8.328  12.126  0.00  0.00    +0.000 C 
ENDROOT
BRANCH   1   4
ATOM      4  C   UNL     1      49.083   7.444  14.553  0.00  0.00    +0.000 A 
ATOM      5  C   UNL     1      50.453   7.751  14.522  0.00  0.00    +0.000 A 
ATOM      6  C   UNL     1      51.315   7.313  15.521  0.00  0.00    +0.000 A 
ATOM      7  C   UNL     1      50.823   6.556  16.582  0.00  0.00    +0.000 A 
ATOM      8  C   UNL     1      49.471   6.194  16.650  0.00  0.00    +0.000 A 
ATOM      9  C   UNL     1      48.618   6.675  15.636  0.00  0.00    +0.000 A 
BRANCH   8  10
ATOM     10  C   UNL     1      48.886   5.351  17.784  0.00  0.00    +0.000 C 
ATOM     11  C   UNL     1      49.808   4.259  18.363  0.00  0.00    +0.000 C 
ATOM     12  C   UNL     1      49.935   3.047  17.432  0.00  0.00    +0.000 C 
ATOM     13  N   UNL     1      48.636   2.472  17.086  0.00  0.00    +0.000 NA
ATOM     14  C   UNL     1      47.749   3.474  16.491  0.00  0.00    +0.000 C 
ATOM     15  C   UNL     1      47.547   4.678  17.412  0.00  0.00    +0.000 C 
ATOM     16  H   UNL     1      48.202   2.097  17.928  0.00  0.00    +0.000 HD
ENDBRANCH   8  10
ENDBRANCH   1   4
BRANCH   1  17
ATOM     17  N   UNL     1      46.735   7.497  13.623  0.00  0.00    +0.000 N 
ATOM     18  H   UNL     1      46.533   7.280  14.602  0.00  0.00    +0.000 HD
BRANCH  17  25
ATOM     19  C   UNL     1      44.691   8.025  11.392  0.00  0.00    +0.000 C 
ATOM     20  C   UNL     1      45.022   6.699  11.994  0.00  0.00    +0.000 A 
ATOM     21  C   UNL     1      44.228   5.592  11.619  0.00  0.00    +0.000 A 
ATOM     22  C   UNL     1      44.470   4.331  12.152  0.00  0.00    +0.000 A 
ATOM     23  C   UNL     1      45.516   4.215  13.042  0.00  0.00    +0.000 A 
ATOM     24  N   UNL     1      46.273   5.264  13.451  0.00  0.00    +0.000 NA
ATOM     25  C   UNL     1      46.022   6.500  12.946  0.00  0.00    +0.000 A 
BRANCH  22  26
ATOM     26  C   UNL     1      43.660   3.205  11.813  0.00  0.00    +0.000 C 
ATOM     27  N   UNL     1      43.007   2.278  11.544  0.00  0.00    +0.000 NA
ENDBRANCH  22  26
ENDBRANCH  17  25
ENDBRANCH   1  17
TORSDOF 5
ENDMDL
MODEL 7
REMARK VINA RESULT:    -6.977      3.938      7.431
REMARK INTER + INTRA:          -8.973
REMARK INTER:                  -7.839
REMARK INTRA:                  -1.134
REMARK UNBOUND:                 0.044
REMARK  Name = 
REMARK  6 active torsions:
REMARK  status: ('A' for Active; 'I' for Inactive)
REMARK    1  A    between atoms: C_1  and  C_2
REMARK    2  A    between atoms: C_4  and  C_5
REMARK    3  A    between atoms: C_9  and  N_10
REMARK    4  A    between atoms: N_10  and  C_11
REMARK    5  A    between atoms: C_11  and  C_12
REMARK    6  A    between atoms: C_16  and  C_17
REMARK                            x       y       z     vdW  Elec       q    Type
REMARK                         _______ _______ _______ _____ _____    ______ ____
ROOT
ATOM      1  C   UNL     1      48.638   8.097  12.516  0.00  0.00    +0.000 C 
ATOM      2  C   UNL     1      49.622   8.529  11.414  0.00  0.00    +0.000 C 
ATOM      3  C   UNL     1      49.347   9.439  12.556  0.00  0.00    +0.000 C 
ENDROOT
BRANCH   1   4
ATOM      4  C   UNL     1      47.158   8.100  12.130  0.00  0.00    +0.000 A 
ATOM      5  C   UNL     1      46.390   9.273  12.200  0.00  0.00    +0.000 A 
ATOM      6  C   UNL     1      45.040   9.276  11.869  0.00  0.00    +0.000 A 
ATOM      7  C   UNL     1      44.424   8.097  11.453  0.00  0.00    +0.000 A 
ATOM      8  C   UNL     1      45.133   6.890  11.392  0.00  0.00    +0.000 A 
ATOM      9  C   UNL     1      46.506   6.926  11.709  0.00  0.00    +0.000 A 
BRANCH   8  10
ATOM     10  C   UNL     1      44.498   5.568  10.958  0.00  0.00    +0.000 C 
ATOM     11  C   UNL     1      43.026   5.356  11.365  0.00  0.00    +0.000 C 
ATOM     12  C   UNL     1      42.872   5.024  12.854  0.00  0.00    +0.000 C 
ATOM     13  N   UNL     1      43.671   3.866  13.251  0.00  0.00    +0.000 NA
ATOM     14  C   UNL     1      45.085   4.053  12.919  0.00  0.00    +0.000 C 
ATOM     15  C   UNL     1      45.291   4.330  11.430  0.00  0.00    +0.000 C 
ATOM     16  H   UNL     1      43.320   3.037  12.772  0.00  0.00    +0.000 HD
ENDBRANCH   8  10
ENDBRANCH   1   4
BRANCH   1  17
ATOM     17  N   UNL     1      49.083   6.870  13.207  0.00  0.00    +0.000 N 
ATOM     18  H   UNL     1      48.719   6.030  12.751  0.00  0.00    +0.000 HD
BRANCH  17  25
ATOM     19  C   UNL     1      50.939   7.922  15.417  0.00  0.00    +0.000 C 
ATOM     20  C   UNL     1      49.842   6.922  15.584  0.00  0.00    +0.000 A 
ATOM     21  C   UNL     1      49.726   6.279  16.837  0.00  0.00    +0.000 A 
ATOM     22  C   UNL     1      48.737   5.326  17.057  0.00  0.00    +0.000 A 
ATOM     23  C   UNL     1      47.882   5.055  16.011  0.00  0.00    +0.000 A 
ATOM     24  N   UNL     1      47.990   5.627  14.785  0.00  0.00    +0.000 NA
ATOM     25  C   UNL     1      48.970   6.541  14.563  0.00  0.00    +0.000 A 
BRANCH  22  26
ATOM     26  C   UNL     1      48.621   4.640  18.303  0.00  0.00    +0.000 C 
ATOM     27  N   UNL     1      48.533   4.087  19.325  0.00  0.00    +0.000 NA
ENDBRANCH  22  26
ENDBRANCH  17  25
ENDBRANCH   1  17
TORSDOF 5
ENDMDL
MODEL 8
REMARK VINA RESULT:    -6.810      4.951      7.321
REMARK INTER + INTRA:          -8.757
REMARK INTER:                  -7.796
REMARK INTRA:                  -0.961
REMARK UNBOUND:                 0.044
REMARK  Name = 
REMARK  6 active torsions:
REMARK  status: ('A' for Active; 'I' for Inactive)
REMARK    1  A    between atoms: C_1  and  C_2
REMARK    2  A    between atoms: C_4  and  C_5
REMARK    3  A    between atoms: C_9  and  N_10
REMARK    4  A    between atoms: N_10  and  C_11
REMARK    5  A    between atoms: C_11  and  C_12
REMARK    6  A    between atoms: C_16  and  C_17
REMARK                            x       y       z     vdW  Elec       q    Type
REMARK                         _______ _______ _______ _____ _____    ______ ____
ROOT
ATOM      1  C   UNL     1      48.189   7.385  13.853  0.00  0.00    +0.000 C 
ATOM      2  C   UNL     1      48.723   8.499  12.935  0.00  0.00    +0.000 C 
ATOM      3  C   UNL     1      49.266   7.121  12.816  0.00  0.00    +0.000 C 
ENDROOT
BRANCH   1   4
ATOM      4  C   UNL     1      48.629   7.455  15.316  0.00  0.00    +0.000 A 
ATOM      5  C   UNL     1      48.460   8.627  16.071  0.00  0.00    +0.000 A 
ATOM      6  C   UNL     1      48.877   8.701  17.395  0.00  0.00    +0.000 A 
ATOM      7  C   UNL     1      49.472   7.596  18.000  0.00  0.00    +0.000 A 
ATOM      8  C   UNL     1      49.693   6.410  17.287  0.00  0.00    +0.000 A 
ATOM      9  C   UNL     1      49.236   6.357  15.954  0.00  0.00    +0.000 A 
BRANCH   8  10
ATOM     10  C   UNL     1      50.357   5.176  17.900  0.00  0.00    +0.000 C 
ATOM     11  C   UNL     1      49.797   3.811  17.451  0.00  0.00    +0.000 C 
ATOM     12  C   UNL     1      48.444   3.491  18.098  0.00  0.00    +0.000 C 
ATOM     13  N   UNL     1      48.495   3.554  19.557  0.00  0.00    +0.000 NA
ATOM     14  C   UNL     1      48.980   4.856  20.020  0.00  0.00    +0.000 C 
ATOM     15  C   UNL     1      50.357   5.191  19.444  0.00  0.00    +0.000 C 
ATOM     16  H   UNL     1      49.115   2.823  19.902  0.00  0.00    +0.000 HD
ENDBRANCH   8  10
ENDBRANCH   1   4
BRANCH   1  17
ATOM     17  N   UNL     1      46.741   7.157  13.663  0.00  0.00    +0.000 N 
ATOM     18  H   UNL     1      46.234   7.219  14.550  0.00  0.00    +0.000 HD
BRANCH  17  25
ATOM     19  C   UNL     1      46.647   4.291  14.763  0.00  0.00    +0.000 C 
ATOM     20  C   UNL     1      46.111   4.752  13.448  0.00  0.00    +0.000 A 
ATOM     21  C   UNL     1      45.643   3.768  12.548  0.00  0.00    +0.000 A 
ATOM     22  C   UNL     1      45.145   4.125  11.300  0.00  0.00    +0.000 A 
ATOM     23  C   UNL     1      45.119   5.469  10.996  0.00  0.00    +0.000 A 
ATOM     24  N   UNL     1      45.594   6.435  11.822  0.00  0.00    +0.000 NA
ATOM     25  C   UNL     1      46.101   6.084  13.032  0.00  0.00    +0.000 A 
BRANCH  22  26
ATOM     26  C   UNL     1      44.698   3.147  10.362  0.00  0.00    +0.000 C 
ATOM     27  N   UNL     1      44.323   2.354   9.594  0.00  0.00    +0.000 NA
ENDBRANCH  22  26
ENDBRANCH  17  25
ENDBRANCH   1  17
TORSDOF 5
ENDMDL
MODEL 9
REMARK VINA RESULT:    -6.715      2.121      3.411
REMARK INTER + INTRA:          -8.634
REMARK INTER:                  -8.234
REMARK INTRA:                  -0.400
REMARK UNBOUND:                 0.044
REMARK  Name = 
REMARK  6 active torsions:
REMARK  status: ('A' for Active; 'I' for Inactive)
REMARK    1  A    between atoms: C_1  and  C_2
REMARK    2  A    between atoms: C_4  and  C_5
REMARK    3  A    between atoms: C_9  and  N_10
REMARK    4  A    between atoms: N_10  and  C_11
REMARK    5  A    between atoms: C_11  and  C_12
REMARK    6  A    between atoms: C_16  and  C_17
REMARK                            x       y       z     vdW  Elec       q    Type
REMARK                         _______ _______ _______ _____ _____    ______ ____
ROOT
ATOM      1  C   UNL     1      43.629   5.470  11.842  0.00  0.00    +0.000 C 
ATOM      2  C   UNL     1      44.119   4.464  12.898  0.00  0.00    +0.000 C 
ATOM      3  C   UNL     1      42.766   5.062  13.023  0.00  0.00    +0.000 C 
ENDROOT
BRANCH   1   4
ATOM      4  C   UNL     1      44.270   6.858  11.892  0.00  0.00    +0.000 A 
ATOM      5  C   UNL     1      43.780   7.914  11.107  0.00  0.00    +0.000 A 
ATOM      6  C   UNL     1      44.372   9.171  11.134  0.00  0.00    +0.000 A 
ATOM      7  C   UNL     1      45.474   9.404  11.955  0.00  0.00    +0.000 A 
ATOM      8  C   UNL     1      46.024   8.380  12.738  0.00  0.00    +0.000 A 
ATOM      9  C   UNL     1      45.386   7.123  12.708  0.00  0.00    +0.000 A 
BRANCH   8  10
ATOM     10  C   UNL     1      47.242   8.580  13.642  0.00  0.00    +0.000 C 
ATOM     11  C   UNL     1      48.257   9.647  13.187  0.00  0.00    +0.000 C 
ATOM     12  C   UNL     1      49.119   9.172  12.012  0.00  0.00    +0.000 C 
ATOM     13  N   UNL     1      49.811   7.916  12.301  0.00  0.00    +0.000 NA
ATOM     14  C   UNL     1      48.869   6.866  12.694  0.00  0.00    +0.000 C 
ATOM     15  C   UNL     1      48.026   7.276  13.902  0.00  0.00    +0.000 C 
ATOM     16  H   UNL     1      50.478   8.069  13.055  0.00  0.00    +0.000 HD
ENDBRANCH   8  10
ENDBRANCH   1   4
BRANCH   1  17
ATOM     17  N   UNL     1      43.573   4.874  10.492  0.00  0.00    +0.000 N 
ATOM     18  H   UNL     1      42.692   4.377  10.339  0.00  0.00    +0.000 HD
BRANCH  17  25
ATOM     19  C   UNL     1      46.166   5.822   9.146  0.00  0.00    +0.000 C 
ATOM     20  C   UNL     1      45.640   4.424   9.170  0.00  0.00    +0.000 A 
ATOM     21  C   UNL     1      46.308   3.459   8.383  0.00  0.00    +0.000 A 
ATOM     22  C   UNL     1      45.865   2.142   8.346  0.00  0.00    +0.000 A 
ATOM     23  C   UNL     1      44.764   1.828   9.115  0.00  0.00    +0.000 A 
ATOM     24  N   UNL     1      44.079   2.738   9.852  0.00  0.00    +0.000 NA
ATOM     25  C   UNL     1      44.500   4.029   9.870  0.00  0.00    +0.000 A 
BRANCH  22  26
ATOM     26  C   UNL     1      46.503   1.157   7.533  0.00  0.00    +0.000 C 
ATOM     27  N   UNL     1      47.013   0.347   6.869  0.00  0.00    +0.000 NA
ENDBRANCH  22  26
ENDBRANCH  17  25
ENDBRANCH   1  17
TORSDOF 5
ENDMDL
