MODEL 1
REMARK VINA RESULT:    -8.738      0.000      0.000
REMARK INTER + INTRA:         -12.722
REMARK INTER:                 -11.803
REMARK INTRA:                  -0.919
REMARK UNBOUND:                -0.919
REMARK  Name = 
REMARK  7 active torsions:
REMARK  status: ('A' for Active; 'I' for Inactive)
REMARK    1  A    between atoms: C_1  and  C_2
REMARK    2  A    between atoms: C_3  and  C_4
REMARK    3  A    between atoms: C_4  and  C_5
REMARK    4  A    between atoms: C_5  and  O_6
REMARK    5  A    between atoms: O_6  and  C_7
REMARK    6  A    between atoms: C_10  and  C_11
REMARK    7  A    between atoms: C_19  and  C_20
REMARK                            x       y       z     vdW  Elec       q    Type
REMARK                         _______ _______ _______ _____ _____    ______ ____
ROOT
ATOM      1  C   UNL     1      44.743   7.500  11.388  0.00  0.00    +0.000 C 
ATOM      2  C   UNL     1      45.497   6.481  12.212  0.00  0.00    +0.000 A 
ATOM      3  C   UNL     1      44.850   5.267  12.599  0.00  0.00    +0.000 A 
ATOM      4  C   UNL     1      45.570   4.307  13.330  0.00  0.00    +0.000 A 
ATOM      5  C   UNL     1      46.892   4.522  13.686  0.00  0.00    +0.000 A 
ATOM      6  C   UNL     1      47.512   5.720  13.346  0.00  0.00    +0.000 A 
ATOM      7  C   UNL     1      46.851   6.733  12.614  0.00  0.00    +0.000 A 
ENDROOT
BRANCH   7   8
ATOM      8  C   UNL     1      47.621   7.991  12.328  0.00  0.00    +0.000 A 
ATOM      9  C   UNL     1      47.047   9.263  12.545  0.00  0.00    +0.000 A 
ATOM     10  C   UNL     1      47.722  10.451  12.233  0.00  0.00    +0.000 A 
ATOM     11  C   UNL     1      49.017  10.402  11.735  0.00  0.00    +0.000 A 
ATOM     12  C   UNL     1      49.611   9.165  11.519  0.00  0.00    +0.000 A 
ATOM     13 CL   UNL     1      51.230   9.090  10.932  0.00  0.00    +0.000 Cl
ATOM     14  C   UNL     1      48.912   7.980  11.773  0.00  0.00    +0.000 A 
ENDBRANCH   7   8
BRANCH   3  15
ATOM     15  C   UNL     1      43.374   4.955  12.358  0.00  0.00    +0.000 C 
BRANCH  15  16
ATOM     16  C   UNL     1      43.227   4.023  11.154  0.00  0.00    +0.000 C 
BRANCH  16  17
ATOM     17  O   UNL     1      43.542   4.673   9.908  0.00  0.00    +0.000 OA
BRANCH  17  18
ATOM     18  C   UNL     1      44.493   3.941   9.214  0.00  0.00    +0.000 A 
ATOM     19  C   UNL     1      44.581   2.575   9.432  0.00  0.00    +0.000 A 
ATOM     20  C   UNL     1      45.544   1.851   8.718  0.00  0.00    +0.000 A 
ATOM     21  C   UNL     1      46.386   2.511   7.806  0.00  0.00    +0.000 A 
ATOM     22  C   UNL     1      46.218   3.874   7.674  0.00  0.00    +0.000 A 
ATOM     23  N   UNL     1      45.297   4.593   8.349  0.00  0.00    +0.000 NA
BRANCH  21  24
ATOM     24  C   UNL     1      47.407   1.759   7.039  0.00  0.00    +0.000 C 
ATOM     25  N   UNL     1      48.426   2.449   6.435  0.00  0.00    +0.000 N 
ATOM     26  O   UNL     1      47.346   0.540   6.936  0.00  0.00    +0.000 OA
ATOM     27  H   UNL     1      48.560   3.450   6.435  0.00  0.00    +0.000 HD
ATOM     28  H   UNL     1      49.093   1.900   5.909  0.00  0.00    +0.000 HD
ENDBRANCH  21  24
ENDBRANCH  17  18
ENDBRANCH  16  17
ENDBRANCH  15  16
ENDBRANCH   3  15
TORSDOF 6
ENDMDL
MODEL 2
REMARK VINA RESULT:    -8.467      1.477      2.243
REMARK INTER + INTRA:         -12.355
REMARK INTER:                 -11.165
REMARK INTRA:                  -1.190
REMARK UNBOUND:                -0.919
REMARK  Name = 
REMARK  7 active torsions:
REMARK  status: ('A' for Active; 'I' for Inactive)
REMARK    1  A    between atoms: C_1  and  C_2
REMARK    2  A    between atoms: C_3  and  C_4
REMARK    3  A    between atoms: C_4  and  C_5
REMARK    4  A    between atoms: C_5  and  O_6
REMARK    5  A    between atoms: O_6  and  C_7
REMARK    6  A    between atoms: C_10  and  C_11
REMARK    7  A    between atoms: C_19  and  C_20
REMARK                            x       y       z     vdW  Elec       q    Type
REMARK                         _______ _______ _______ _____ _____    ______ ____
ROOT
ATOM      1  C   UNL     1      46.394   4.639  13.831  0.00  0.00    +0.000 C 
ATOM      2  C   UNL     1      45.629   5.599  12.948  0.00  0.00    +0.000 A 
ATOM      3  C   UNL     1      44.293   5.282  12.551  0.00  0.00    +0.000 A 
ATOM      4  C   UNL     1      43.574   6.197  11.763  0.00  0.00    +0.000 A 
ATOM      5  C   UNL     1      44.142   7.395  11.360  0.00  0.00    +0.000 A 
ATOM      6  C   UNL     1      45.456   7.689  11.712  0.00  0.00    +0.000 A 
ATOM      7  C   UNL     1      46.242   6.816  12.500  0.00  0.00    +0.000 A 
ENDROOT
BRANCH   7   8
ATOM      8  C   UNL     1      47.654   7.236  12.792  0.00  0.00    +0.000 A 
ATOM      9  C   UNL     1      48.041   7.638  14.090  0.00  0.00    +0.000 A 
ATOM     10  C   UNL     1      49.336   8.088  14.378  0.00  0.00    +0.000 A 
ATOM     11  C   UNL     1      50.302   8.107  13.380  0.00  0.00    +0.000 A 
ATOM     12  C   UNL     1      49.952   7.709  12.095  0.00  0.00    +0.000 A 
ATOM     13 CL   UNL     1      51.149   7.695  10.855  0.00  0.00    +0.000 Cl
ATOM     14  C   UNL     1      48.642   7.318  11.797  0.00  0.00    +0.000 A 
ENDBRANCH   7   8
BRANCH   3  15
ATOM     15  C   UNL     1      43.593   3.955  12.841  0.00  0.00    +0.000 C 
BRANCH  15  16
ATOM     16  C   UNL     1      44.020   2.904  11.816  0.00  0.00    +0.000 C 
BRANCH  16  17
ATOM     17  O   UNL     1      43.469   3.149  10.508  0.00  0.00    +0.000 OA
BRANCH  17  18
ATOM     18  C   UNL     1      44.448   2.986   9.539  0.00  0.00    +0.000 A 
ATOM     19  C   UNL     1      44.992   4.110   8.937  0.00  0.00    +0.000 A 
ATOM     20  C   UNL     1      45.984   3.925   7.964  0.00  0.00    +0.000 A 
ATOM     21  C   UNL     1      46.404   2.627   7.627  0.00  0.00    +0.000 A 
ATOM     22  C   UNL     1      45.789   1.581   8.283  0.00  0.00    +0.000 A 
ATOM     23  N   UNL     1      44.833   1.732   9.224  0.00  0.00    +0.000 NA
BRANCH  21  24
ATOM     24  C   UNL     1      47.455   2.415   6.604  0.00  0.00    +0.000 C 
ATOM     25  N   UNL     1      47.380   3.105   5.422  0.00  0.00    +0.000 N 
ATOM     26  O   UNL     1      48.378   1.635   6.801  0.00  0.00    +0.000 OA
ATOM     27  H   UNL     1      46.657   3.753   5.145  0.00  0.00    +0.000 HD
ATOM     28  H   UNL     1      48.109   2.922   4.745  0.00  0.00    +0.000 HD
ENDBRANCH  21  24
ENDBRANCH  17  18
ENDBRANCH  16  17
ENDBRANCH  15  16
ENDBRANCH   3  15
TORSDOF 6
ENDMDL
MODEL 3
REMARK VINA RESULT:    -7.638      1.938      2.165
REMARK INTER + INTRA:         -11.236
REMARK INTER:                 -10.439
REMARK INTRA:                  -0.797
REMARK UNBOUND:                -0.919
REMARK  Name = 
REMARK  7 active torsions:
REMARK  status: ('A' for Active; 'I' for Inactive)
REMARK    1  A    between atoms: C_1  and  C_2
REMARK    2  A    between atoms: C_3  and  C_4
REMARK    3  A    between atoms: C_4  and  C_5
REMARK    4  A    between atoms: C_5  and  O_6
REMARK    5  A    between atoms: O_6  and  C_7
REMARK    6  A    between atoms: C_10  and  C_11
REMARK    7  A    between atoms: C_19  and  C_20
REMARK                            x       y       z     vdW  Elec       q    Type
REMARK                         _______ _______ _______ _____ _____    ______ ____
ROOT
ATOM      1  C   UNL     1      47.431   8.025  12.069  0.00  0.00    +0.000 C 
ATOM      2  C   UNL     1      47.157   6.800  12.913  0.00  0.00    +0.000 A 
ATOM      3  C   UNL     1      46.103   5.909  12.543  0.00  0.00    +0.000 A 
ATOM      4  C   UNL     1      45.881   4.751  13.309  0.00  0.00    +0.000 A 
ATOM      5  C   UNL     1      46.661   4.467  14.419  0.00  0.00    +0.000 A 
ATOM      6  C   UNL     1      47.661   5.353  14.805  0.00  0.00    +0.000 A 
ATOM      7  C   UNL     1      47.941   6.538  14.086  0.00  0.00    +0.000 A 
ENDROOT
BRANCH   7   8
ATOM      8  C   UNL     1      49.031   7.425  14.617  0.00  0.00    +0.000 A 
ATOM      9  C   UNL     1      48.875   8.124  15.835  0.00  0.00    +0.000 A 
ATOM     10  C   UNL     1      49.852   9.001  16.324  0.00  0.00    +0.000 A 
ATOM     11  C   UNL     1      51.042   9.172  15.629  0.00  0.00    +0.000 A 
ATOM     12  C   UNL     1      51.227   8.491  14.431  0.00  0.00    +0.000 A 
ATOM     13 CL   UNL     1      52.712   8.668  13.575  0.00  0.00    +0.000 Cl
ATOM     14  C   UNL     1      50.225   7.664  13.914  0.00  0.00    +0.000 A 
ENDBRANCH   7   8
BRANCH   3  15
ATOM     15  C   UNL     1      45.111   6.160  11.409  0.00  0.00    +0.000 C 
BRANCH  15  16
ATOM     16  C   UNL     1      44.216   4.935  11.217  0.00  0.00    +0.000 C 
BRANCH  16  17
ATOM     17  O   UNL     1      43.769   4.783   9.856  0.00  0.00    +0.000 OA
BRANCH  17  18
ATOM     18  C   UNL     1      44.670   4.011   9.140  0.00  0.00    +0.000 A 
ATOM     19  C   UNL     1      44.675   2.637   9.324  0.00  0.00    +0.000 A 
ATOM     20  C   UNL     1      45.590   1.874   8.587  0.00  0.00    +0.000 A 
ATOM     21  C   UNL     1      46.468   2.504   7.688  0.00  0.00    +0.000 A 
ATOM     22  C   UNL     1      46.383   3.877   7.590  0.00  0.00    +0.000 A 
ATOM     23  N   UNL     1      45.510   4.635   8.287  0.00  0.00    +0.000 NA
BRANCH  21  24
ATOM     24  C   UNL     1      47.438   1.710   6.897  0.00  0.00    +0.000 C 
ATOM     25  N   UNL     1      48.467   2.358   6.265  0.00  0.00    +0.000 N 
ATOM     26  O   UNL     1      47.327   0.495   6.800  0.00  0.00    +0.000 OA
ATOM     27  H   UNL     1      48.641   3.353   6.257  0.00  0.00    +0.000 HD
ATOM     28  H   UNL     1      49.099   1.782   5.724  0.00  0.00    +0.000 HD
ENDBRANCH  21  24
ENDBRANCH  17  18
ENDBRANCH  16  17
ENDBRANCH  15  16
ENDBRANCH   3  15
TORSDOF 6
ENDMDL
MODEL 4
REMARK VINA RESULT:    -7.540      2.581      3.449
REMARK INTER + INTRA:         -11.103
REMARK INTER:                 -10.586
REMARK INTRA:                  -0.517
REMARK UNBOUND:                -0.919
REMARK  Name = 
REMARK  7 active torsions:
REMARK  status: ('A' for Active; 'I' for Inactive)
REMARK    1  A    between atoms: C_1  and  C_2
REMARK    2  A    between atoms: C_3  and  C_4
REMARK    3  A    between atoms: C_4  and  C_5
REMARK    4  A    between atoms: C_5  and  O_6
REMARK    5  A    between atoms: O_6  and  C_7
REMARK    6  A    between atoms: C_10  and  C_11
REMARK    7  A    between atoms: C_19  and  C_20
REMARK                            x       y       z     vdW  Elec       q    Type
REMARK                         _______ _______ _______ _____ _____    ______ ____
ROOT
ATOM      1  C   UNL     1      47.277   4.298  13.848  0.00  0.00    +0.000 C 
ATOM      2  C   UNL     1      46.933   5.688  13.363  0.00  0.00    +0.000 A 
ATOM      3  C   UNL     1      45.914   5.860  12.376  0.00  0.00    +0.000 A 
ATOM      4  C   UNL     1      45.572   7.159  11.960  0.00  0.00    +0.000 A 
ATOM      5  C   UNL     1      46.212   8.270  12.485  0.00  0.00    +0.000 A 
ATOM      6  C   UNL     1      47.231   8.104  13.417  0.00  0.00    +0.000 A 
ATOM      7  C   UNL     1      47.632   6.829  13.880  0.00  0.00    +0.000 A 
ENDROOT
BRANCH   7   8
ATOM      8  C   UNL     1      48.761   6.780  14.870  0.00  0.00    +0.000 A 
ATOM      9  C   UNL     1      50.028   7.324  14.558  0.00  0.00    +0.000 A 
ATOM     10  C   UNL     1      51.114   7.242  15.440  0.00  0.00    +0.000 A 
ATOM     11  C   UNL     1      50.953   6.649  16.686  0.00  0.00    +0.000 A 
ATOM     12  C   UNL     1      49.716   6.113  17.023  0.00  0.00    +0.000 A 
ATOM     13 CL   UNL     1      49.493   5.405  18.578  0.00  0.00    +0.000 Cl
ATOM     14  C   UNL     1      48.650   6.142  16.116  0.00  0.00    +0.000 A 
ENDBRANCH   7   8
BRANCH   3  15
ATOM     15  C   UNL     1      45.209   4.718  11.647  0.00  0.00    +0.000 C 
BRANCH  15  16
ATOM     16  C   UNL     1      44.100   5.274  10.754  0.00  0.00    +0.000 C 
BRANCH  16  17
ATOM     17  O   UNL     1      43.556   4.281   9.862  0.00  0.00    +0.000 OA
BRANCH  17  18
ATOM     18  C   UNL     1      44.564   3.732   9.086  0.00  0.00    +0.000 A 
ATOM     19  C   UNL     1      44.853   2.382   9.214  0.00  0.00    +0.000 A 
ATOM     20  C   UNL     1      45.872   1.845   8.416  0.00  0.00    +0.000 A 
ATOM     21  C   UNL     1      46.568   2.669   7.515  0.00  0.00    +0.000 A 
ATOM     22  C   UNL     1      46.205   3.999   7.477  0.00  0.00    +0.000 A 
ATOM     23  N   UNL     1      45.226   4.540   8.232  0.00  0.00    +0.000 NA
BRANCH  21  24
ATOM     24  C   UNL     1      47.645   2.114   6.662  0.00  0.00    +0.000 C 
ATOM     25  N   UNL     1      48.005   2.790   5.524  0.00  0.00    +0.000 N 
ATOM     26  O   UNL     1      48.207   1.067   6.956  0.00  0.00    +0.000 OA
ATOM     27  H   UNL     1      47.596   3.645   5.175  0.00  0.00    +0.000 HD
ATOM     28  H   UNL     1      48.734   2.371   4.962  0.00  0.00    +0.000 HD
ENDBRANCH  21  24
ENDBRANCH  17  18
ENDBRANCH  16  17
ENDBRANCH  15  16
ENDBRANCH   3  15
TORSDOF 6
ENDMDL
MODEL 5
REMARK VINA RESULT:    -7.220      1.201      2.353
REMARK INTER + INTRA:         -10.672
REMARK INTER:                 -10.151
REMARK INTRA:                  -0.521
REMARK UNBOUND:                -0.919
REMARK  Name = 
REMARK  7 active torsions:
REMARK  status: ('A' for Active; 'I' for Inactive)
REMARK    1  A    between atoms: C_1  and  C_2
REMARK    2  A    between atoms: C_3  and  C_4
REMARK    3  A    between atoms: C_4  and  C_5
REMARK    4  A    between atoms: C_5  and  O_6
REMARK    5  A    between atoms: O_6  and  C_7
REMARK    6  A    between atoms: C_10  and  C_11
REMARK    7  A    between atoms: C_19  and  C_20
REMARK                            x       y       z     vdW  Elec       q    Type
REMARK                         _______ _______ _______ _____ _____    ______ ____
ROOT
ATOM      1  C   UNL     1      47.466   5.890  13.006  0.00  0.00    +0.000 C 
ATOM      2  C   UNL     1      46.779   7.159  12.554  0.00  0.00    +0.000 A 
ATOM      3  C   UNL     1      45.358   7.178  12.405  0.00  0.00    +0.000 A 
ATOM      4  C   UNL     1      44.723   8.373  12.024  0.00  0.00    +0.000 A 
ATOM      5  C   UNL     1      45.453   9.526  11.784  0.00  0.00    +0.000 A 
ATOM      6  C   UNL     1      46.840   9.500  11.889  0.00  0.00    +0.000 A 
ATOM      7  C   UNL     1      47.548   8.335  12.265  0.00  0.00    +0.000 A 
ENDROOT
BRANCH   7   8
ATOM      8  C   UNL     1      49.046   8.428  12.320  0.00  0.00    +0.000 A 
ATOM      9  C   UNL     1      49.694   9.150  13.347  0.00  0.00    +0.000 A 
ATOM     10  C   UNL     1      51.087   9.300  13.391  0.00  0.00    +0.000 A 
ATOM     11  C   UNL     1      51.881   8.690  12.429  0.00  0.00    +0.000 A 
ATOM     12  C   UNL     1      51.272   7.967  11.411  0.00  0.00    +0.000 A 
ATOM     13 CL   UNL     1      52.246   7.177  10.229  0.00  0.00    +0.000 Cl
ATOM     14  C   UNL     1      49.878   7.870  11.335  0.00  0.00    +0.000 A 
ENDBRANCH   7   8
BRANCH   3  15
ATOM     15  C   UNL     1      44.454   5.955  12.539  0.00  0.00    +0.000 C 
BRANCH  15  16
ATOM     16  C   UNL     1      44.924   4.851  11.592  0.00  0.00    +0.000 C 
BRANCH  16  17
ATOM     17  O   UNL     1      44.464   5.045  10.241  0.00  0.00    +0.000 OA
BRANCH  17  18
ATOM     18  C   UNL     1      45.168   4.226   9.373  0.00  0.00    +0.000 A 
ATOM     19  C   UNL     1      45.055   2.850   9.505  0.00  0.00    +0.000 A 
ATOM     20  C   UNL     1      45.770   2.039   8.614  0.00  0.00    +0.000 A 
ATOM     21  C   UNL     1      46.572   2.624   7.620  0.00  0.00    +0.000 A 
ATOM     22  C   UNL     1      46.619   4.002   7.585  0.00  0.00    +0.000 A 
ATOM     23  N   UNL     1      45.938   4.806   8.429  0.00  0.00    +0.000 NA
BRANCH  21  24
ATOM     24  C   UNL     1      47.331   1.779   6.667  0.00  0.00    +0.000 C 
ATOM     25  N   UNL     1      48.366   2.338   5.963  0.00  0.00    +0.000 N 
ATOM     26  O   UNL     1      47.042   0.601   6.501  0.00  0.00    +0.000 OA
ATOM     27  H   UNL     1      48.675   3.299   6.004  0.00  0.00    +0.000 HD
ATOM     28  H   UNL     1      48.849   1.732   5.313  0.00  0.00    +0.000 HD
ENDBRANCH  21  24
ENDBRANCH  17  18
ENDBRANCH  16  17
ENDBRANCH  15  16
ENDBRANCH   3  15
TORSDOF 6
ENDMDL
MODEL 6
REMARK VINA RESULT:    -6.648      4.929      8.213
REMARK INTER + INTRA:          -9.898
REMARK INTER:                  -8.966
REMARK INTRA:                  -0.932
REMARK UNBOUND:                -0.919
REMARK  Name = 
REMARK  7 active torsions:
REMARK  status: ('A' for Active; 'I' for Inactive)
REMARK    1  A    between atoms: C_1  and  C_2
REMARK    2  A    between atoms: C_3  and  C_4
REMARK    3  A    between atoms: C_4  and  C_5
REMARK    4  A    between atoms: C_5  and  O_6
REMARK    5  A    between atoms: O_6  and  C_7
REMARK    6  A    between atoms: C_10  and  C_11
REMARK    7  A    between atoms: C_19  and  C_20
REMARK                            x       y       z     vdW  Elec       q    Type
REMARK                         _______ _______ _______ _____ _____    ______ ____
ROOT
ATOM      1  C   UNL     1      43.353   7.518  11.050  0.00  0.00    +0.000 C 
ATOM      2  C   UNL     1      44.816   7.565  11.430  0.00  0.00    +0.000 A 
ATOM      3  C   UNL     1      45.353   8.746  12.029  0.00  0.00    +0.000 A 
ATOM      4  C   UNL     1      46.704   8.767  12.417  0.00  0.00    +0.000 A 
ATOM      5  C   UNL     1      47.522   7.665  12.220  0.00  0.00    +0.000 A 
ATOM      6  C   UNL     1      47.012   6.529  11.600  0.00  0.00    +0.000 A 
ATOM      7  C   UNL     1      45.665   6.435  11.181  0.00  0.00    +0.000 A 
ENDROOT
BRANCH   7   8
ATOM      8  C   UNL     1      45.241   5.164  10.503  0.00  0.00    +0.000 A 
ATOM      9  C   UNL     1      44.450   4.207  11.177  0.00  0.00    +0.000 A 
ATOM     10  C   UNL     1      44.088   2.988  10.589  0.00  0.00    +0.000 A 
ATOM     11  C   UNL     1      44.472   2.706   9.284  0.00  0.00    +0.000 A 
ATOM     12  C   UNL     1      45.245   3.632   8.593  0.00  0.00    +0.000 A 
ATOM     13 CL   UNL     1      45.700   3.311   6.963  0.00  0.00    +0.000 Cl
ATOM     14  C   UNL     1      45.656   4.822   9.205  0.00  0.00    +0.000 A 
ENDBRANCH   7   8
BRANCH   3  15
ATOM     15  C   UNL     1      44.587  10.055  12.206  0.00  0.00    +0.000 C 
BRANCH  15  16
ATOM     16  C   UNL     1      44.520  10.806  10.876  0.00  0.00    +0.000 C 
BRANCH  16  17
ATOM     17  O   UNL     1      43.681  11.975  10.940  0.00  0.00    +0.000 OA
BRANCH  17  18
ATOM     18  C   UNL     1      42.371  11.609  11.205  0.00  0.00    +0.000 A 
ATOM     19  C   UNL     1      41.721  10.753  10.330  0.00  0.00    +0.000 A 
ATOM     20  C   UNL     1      40.399  10.391  10.618  0.00  0.00    +0.000 A 
ATOM     21  C   UNL     1      39.768  10.890  11.771  0.00  0.00    +0.000 A 
ATOM     22  C   UNL     1      40.506  11.742  12.567  0.00  0.00    +0.000 A 
ATOM     23  N   UNL     1      41.780  12.104  12.313  0.00  0.00    +0.000 NA
BRANCH  21  24
ATOM     24  C   UNL     1      38.372  10.512  12.092  0.00  0.00    +0.000 C 
ATOM     25  N   UNL     1      37.520  11.470  12.579  0.00  0.00    +0.000 N 
ATOM     26  O   UNL     1      37.977   9.364  11.934  0.00  0.00    +0.000 OA
ATOM     27  H   UNL     1      37.743  12.436  12.770  0.00  0.00    +0.000 HD
ATOM     28  H   UNL     1      36.580  11.168  12.800  0.00  0.00    +0.000 HD
ENDBRANCH  21  24
ENDBRANCH  17  18
ENDBRANCH  16  17
ENDBRANCH  15  16
ENDBRANCH   3  15
TORSDOF 6
ENDMDL
MODEL 7
REMARK VINA RESULT:    -6.645      4.518      7.698
REMARK INTER + INTRA:          -9.894
REMARK INTER:                  -9.067
REMARK INTRA:                  -0.827
REMARK UNBOUND:                -0.919
REMARK  Name = 
REMARK  7 active torsions:
REMARK  status: ('A' for Active; 'I' for Inactive)
REMARK    1  A    between atoms: C_1  and  C_2
REMARK    2  A    between atoms: C_3  and  C_4
REMARK    3  A    between atoms: C_4  and  C_5
REMARK    4  A    between atoms: C_5  and  O_6
REMARK    5  A    between atoms: O_6  and  C_7
REMARK    6  A    between atoms: C_10  and  C_11
REMARK    7  A    between atoms: C_19  and  C_20
REMARK                            x       y       z     vdW  Elec       q    Type
REMARK                         _______ _______ _______ _____ _____    ______ ____
ROOT
ATOM      1  C   UNL     1      48.084   6.503  12.277  0.00  0.00    +0.000 C 
ATOM      2  C   UNL     1      46.939   7.481  12.144  0.00  0.00    +0.000 A 
ATOM      3  C   UNL     1      47.095   8.820  12.617  0.00  0.00    +0.000 A 
ATOM      4  C   UNL     1      46.040   9.735  12.453  0.00  0.00    +0.000 A 
ATOM      5  C   UNL     1      44.851   9.355  11.849  0.00  0.00    +0.000 A 
ATOM      6  C   UNL     1      44.682   8.042  11.424  0.00  0.00    +0.000 A 
ATOM      7  C   UNL     1      45.697   7.066  11.557  0.00  0.00    +0.000 A 
ENDROOT
BRANCH   7   8
ATOM      8  C   UNL     1      45.383   5.677  11.081  0.00  0.00    +0.000 A 
ATOM      9  C   UNL     1      44.990   4.666  11.986  0.00  0.00    +0.000 A 
ATOM     10  C   UNL     1      44.746   3.348  11.577  0.00  0.00    +0.000 A 
ATOM     11  C   UNL     1      44.847   3.010  10.233  0.00  0.00    +0.000 A 
ATOM     12  C   UNL     1      45.224   3.985   9.318  0.00  0.00    +0.000 A 
ATOM     13 CL   UNL     1      45.320   3.587   7.644  0.00  0.00    +0.000 Cl
ATOM     14  C   UNL     1      45.526   5.285   9.739  0.00  0.00    +0.000 A 
ENDBRANCH   7   8
BRANCH   3  15
ATOM     15  C   UNL     1      48.309   9.333  13.389  0.00  0.00    +0.000 C 
BRANCH  15  16
ATOM     16  C   UNL     1      48.175   8.977  14.870  0.00  0.00    +0.000 C 
BRANCH  16  17
ATOM     17  O   UNL     1      49.310   8.244  15.369  0.00  0.00    +0.000 OA
BRANCH  17  18
ATOM     18  C   UNL     1      48.888   7.096  16.021  0.00  0.00    +0.000 A 
ATOM     19  C   UNL     1      48.907   7.064  17.407  0.00  0.00    +0.000 A 
ATOM     20  C   UNL     1      48.472   5.896  18.048  0.00  0.00    +0.000 A 
ATOM     21  C   UNL     1      48.028   4.801  17.288  0.00  0.00    +0.000 A 
ATOM     22  C   UNL     1      48.059   4.939  15.916  0.00  0.00    +0.000 A 
ATOM     23  N   UNL     1      48.472   6.052  15.274  0.00  0.00    +0.000 NA
BRANCH  21  24
ATOM     24  C   UNL     1      47.559   3.561  17.951  0.00  0.00    +0.000 C 
ATOM     25  N   UNL     1      48.203   3.129  19.082  0.00  0.00    +0.000 N 
ATOM     26  O   UNL     1      46.616   2.924  17.501  0.00  0.00    +0.000 OA
ATOM     27  H   UNL     1      49.001   3.560  19.525  0.00  0.00    +0.000 HD
ATOM     28  H   UNL     1      47.861   2.271  19.495  0.00  0.00    +0.000 HD
ENDBRANCH  21  24
ENDBRANCH  17  18
ENDBRANCH  16  17
ENDBRANCH  15  16
ENDBRANCH   3  15
TORSDOF 6
ENDMDL
MODEL 8
REMARK VINA RESULT:    -6.399      5.827      7.498
REMARK INTER + INTRA:          -9.562
REMARK INTER:                  -8.848
REMARK INTRA:                  -0.713
REMARK UNBOUND:                -0.919
REMARK  Name = 
REMARK  7 active torsions:
REMARK  status: ('A' for Active; 'I' for Inactive)
REMARK    1  A    between atoms: C_1  and  C_2
REMARK    2  A    between atoms: C_3  and  C_4
REMARK    3  A    between atoms: C_4  and  C_5
REMARK    4  A    between atoms: C_5  and  O_6
REMARK    5  A    between atoms: O_6  and  C_7
REMARK    6  A    between atoms: C_10  and  C_11
REMARK    7  A    between atoms: C_19  and  C_20
REMARK                            x       y       z     vdW  Elec       q    Type
REMARK                         _______ _______ _______ _____ _____    ______ ____
ROOT
ATOM      1  C   UNL     1      49.520   5.687  17.980  0.00  0.00    +0.000 C 
ATOM      2  C   UNL     1      50.047   4.291  17.735  0.00  0.00    +0.000 A 
ATOM      3  C   UNL     1      49.162   3.275  17.260  0.00  0.00    +0.000 A 
ATOM      4  C   UNL     1      49.667   1.990  16.996  0.00  0.00    +0.000 A 
ATOM      5  C   UNL     1      51.006   1.693  17.198  0.00  0.00    +0.000 A 
ATOM      6  C   UNL     1      51.862   2.668  17.699  0.00  0.00    +0.000 A 
ATOM      7  C   UNL     1      51.425   3.982  17.990  0.00  0.00    +0.000 A 
ENDROOT
BRANCH   7   8
ATOM      8  C   UNL     1      52.440   4.937  18.548  0.00  0.00    +0.000 A 
ATOM      9  C   UNL     1      53.247   5.724  17.696  0.00  0.00    +0.000 A 
ATOM     10  C   UNL     1      54.240   6.581  18.189  0.00  0.00    +0.000 A 
ATOM     11  C   UNL     1      54.427   6.712  19.559  0.00  0.00    +0.000 A 
ATOM     12  C   UNL     1      53.642   5.956  20.422  0.00  0.00    +0.000 A 
ATOM     13 CL   UNL     1      53.840   6.133  22.125  0.00  0.00    +0.000 Cl
ATOM     14  C   UNL     1      52.693   5.056  19.926  0.00  0.00    +0.000 A 
ENDBRANCH   7   8
BRANCH   3  15
ATOM     15  C   UNL     1      47.653   3.446  17.095  0.00  0.00    +0.000 C 
BRANCH  15  16
ATOM     16  C   UNL     1      47.353   4.266  15.840  0.00  0.00    +0.000 C 
BRANCH  16  17
ATOM     17  O   UNL     1      47.353   3.466  14.642  0.00  0.00    +0.000 OA
BRANCH  17  18
ATOM     18  C   UNL     1      46.412   3.948  13.745  0.00  0.00    +0.000 A 
ATOM     19  C   UNL     1      46.126   5.305  13.735  0.00  0.00    +0.000 A 
ATOM     20  C   UNL     1      45.176   5.774  12.818  0.00  0.00    +0.000 A 
ATOM     21  C   UNL     1      44.545   4.877  11.939  0.00  0.00    +0.000 A 
ATOM     22  C   UNL     1      44.899   3.548  12.041  0.00  0.00    +0.000 A 
ATOM     23  N   UNL     1      45.812   3.071  12.914  0.00  0.00    +0.000 NA
BRANCH  21  24
ATOM     24  C   UNL     1      43.542   5.358  10.960  0.00  0.00    +0.000 C 
ATOM     25  N   UNL     1      42.829   6.495  11.243  0.00  0.00    +0.000 N 
ATOM     26  O   UNL     1      43.342   4.754   9.914  0.00  0.00    +0.000 OA
ATOM     27  H   UNL     1      42.895   7.056  12.080  0.00  0.00    +0.000 HD
ATOM     28  H   UNL     1      42.145   6.782  10.555  0.00  0.00    +0.000 HD
ENDBRANCH  21  24
ENDBRANCH  17  18
ENDBRANCH  16  17
ENDBRANCH  15  16
ENDBRANCH   3  15
TORSDOF 6
ENDMDL
MODEL 9
REMARK VINA RESULT:    -6.351      4.710      7.779
REMARK INTER + INTRA:          -9.498
REMARK INTER:                  -7.504
REMARK INTRA:                  -1.994
REMARK UNBOUND:                -0.919
REMARK  Name = 
REMARK  7 active torsions:
REMARK  status: ('A' for Active; 'I' for Inactive)
REMARK    1  A    between atoms: C_1  and  C_2
REMARK    2  A    between atoms: C_3  and  C_4
REMARK    3  A    between atoms: C_4  and  C_5
REMARK    4  A    between atoms: C_5  and  O_6
REMARK    5  A    between atoms: O_6  and  C_7
REMARK    6  A    between atoms: C_10  and  C_11
REMARK    7  A    between atoms: C_19  and  C_20
REMARK                            x       y       z     vdW  Elec       q    Type
REMARK                         _______ _______ _______ _____ _____    ______ ____
ROOT
ATOM      1  C   UNL     1      48.716   7.441  11.784  0.00  0.00    +0.000 C 
ATOM      2  C   UNL     1      47.513   8.353  11.866  0.00  0.00    +0.000 A 
ATOM      3  C   UNL     1      47.696   9.770  11.822  0.00  0.00    +0.000 A 
ATOM      4  C   UNL     1      46.570  10.610  11.858  0.00  0.00    +0.000 A 
ATOM      5  C   UNL     1      45.289  10.088  11.942  0.00  0.00    +0.000 A 
ATOM      6  C   UNL     1      45.110   8.711  12.025  0.00  0.00    +0.000 A 
ATOM      7  C   UNL     1      46.194   7.803  11.998  0.00  0.00    +0.000 A 
ENDROOT
BRANCH   7   8
ATOM      8  C   UNL     1      45.872   6.341  12.119  0.00  0.00    +0.000 A 
ATOM      9  C   UNL     1      46.123   5.635  13.316  0.00  0.00    +0.000 A 
ATOM     10  C   UNL     1      45.884   4.260  13.437  0.00  0.00    +0.000 A 
ATOM     11  C   UNL     1      45.342   3.553  12.372  0.00  0.00    +0.000 A 
ATOM     12  C   UNL     1      45.078   4.223  11.183  0.00  0.00    +0.000 A 
ATOM     13 CL   UNL     1      44.374   3.366   9.864  0.00  0.00    +0.000 Cl
ATOM     14  C   UNL     1      45.374   5.583  11.045  0.00  0.00    +0.000 A 
ENDBRANCH   7   8
BRANCH   3  15
ATOM     15  C   UNL     1      49.053  10.471  11.832  0.00  0.00    +0.000 C 
BRANCH  15  16
ATOM     16  C   UNL     1      49.250  11.209  13.157  0.00  0.00    +0.000 C 
BRANCH  16  17
ATOM     17  O   UNL     1      50.371  10.709  13.910  0.00  0.00    +0.000 OA
BRANCH  17  18
ATOM     18  C   UNL     1      50.031   9.523  14.542  0.00  0.00    +0.000 A 
ATOM     19  C   UNL     1      48.823   9.442  15.216  0.00  0.00    +0.000 A 
ATOM     20  C   UNL     1      48.495   8.234  15.845  0.00  0.00    +0.000 A 
ATOM     21  C   UNL     1      49.379   7.144  15.778  0.00  0.00    +0.000 A 
ATOM     22  C   UNL     1      50.558   7.337  15.087  0.00  0.00    +0.000 A 
ATOM     23  N   UNL     1      50.897   8.490  14.473  0.00  0.00    +0.000 NA
BRANCH  21  24
ATOM     24  C   UNL     1      49.044   5.857  16.432  0.00  0.00    +0.000 C 
ATOM     25  N   UNL     1      47.740   5.606  16.774  0.00  0.00    +0.000 N 
ATOM     26  O   UNL     1      49.912   5.028  16.673  0.00  0.00    +0.000 OA
ATOM     27  H   UNL     1      46.952   6.224  16.645  0.00  0.00    +0.000 HD
ATOM     28  H   UNL     1      47.556   4.723  17.232  0.00  0.00    +0.000 HD
ENDBRANCH  21  24
ENDBRANCH  17  18
ENDBRANCH  16  17
ENDBRANCH  15  16
ENDBRANCH   3  15
TORSDOF 6
ENDMDL
