MODEL 1
REMARK VINA RESULT:    -7.331      0.000      0.000
REMARK INTER + INTRA:          -9.590
REMARK INTER:                  -9.259
REMARK INTRA:                  -0.331
REMARK UNBOUND:                -0.331
REMARK  Name = 
REMARK  5 active torsions:
REMARK  status: ('A' for Active; 'I' for Inactive)
REMARK    1  A    between atoms: N_1  and  C_2
REMARK    2  A    between atoms: C_2  and  C_3
REMARK    3  A    between atoms: N_8  and  C_9
REMARK    4  A    between atoms: C_9  and  C_10
REMARK    5  A    between atoms: C_10  and  C_11
REMARK                            x       y       z     vdW  Elec       q    Type
REMARK                         _______ _______ _______ _____ _____    ______ ____
ROOT
ATOM      1  C   UNL     1      47.047   6.459  13.305  0.00  0.00    +0.000 A 
ATOM      2  C   UNL     1      47.386   5.554  14.308  0.00  0.00    +0.000 A 
ATOM      3  C   UNL     1      46.855   4.278  14.244  0.00  0.00    +0.000 A 
ATOM      4  N   UNL     1      46.026   3.848  13.265  0.00  0.00    +0.000 NA
ATOM      5  C   UNL     1      45.688   4.725  12.300  0.00  0.00    +0.000 A 
ATOM      6  N   UNL     1      44.790   4.251  11.349  0.00  0.00    +0.000 N 
ATOM      7  C   UNL     1      46.168   6.033  12.303  0.00  0.00    +0.000 A 
ATOM      8  H   UNL     1      44.733   3.243  11.493  0.00  0.00    +0.000 HD
ENDROOT
BRANCH   1   9
ATOM      9  C   UNL     1      47.590   7.860  13.297  0.00  0.00    +0.000 C 
BRANCH   9  10
ATOM     10  N   UNL     1      46.710   8.775  14.013  0.00  0.00    +0.000 NA
ATOM     11  H   UNL     1      47.274   9.489  14.469  0.00  0.00    +0.000 HD
ATOM     12  H   UNL     1      46.239   8.264  14.759  0.00  0.00    +0.000 HD
ENDBRANCH   9  10
ENDBRANCH   1   9
BRANCH   6  13
ATOM     13  C   UNL     1      44.959   4.695   9.973  0.00  0.00    +0.000 C 
BRANCH  13  14
ATOM     14  C   UNL     1      44.422   3.648   8.989  0.00  0.00    +0.000 C 
BRANCH  14  15
ATOM     15  C   UNL     1      45.551   2.923   8.293  0.00  0.00    +0.000 A 
ATOM     16  C   UNL     1      46.458   3.619   7.480  0.00  0.00    +0.000 A 
ATOM     17  C   UNL     1      47.477   2.940   6.805  0.00  0.00    +0.000 A 
ATOM     18  C   UNL     1      47.597   1.559   6.933  0.00  0.00    +0.000 A 
ATOM     19  C   UNL     1      46.697   0.865   7.733  0.00  0.00    +0.000 A 
ATOM     20  F   UNL     1      46.806  -0.464   7.849  0.00  0.00    +0.000 F 
ATOM     21  C   UNL     1      45.679   1.531   8.410  0.00  0.00    +0.000 A 
ENDBRANCH  14  15
ENDBRANCH  13  14
ENDBRANCH   6  13
TORSDOF 5
ENDMDL
MODEL 2
REMARK VINA RESULT:    -7.230      1.433      2.100
REMARK INTER + INTRA:          -9.464
REMARK INTER:                  -9.157
REMARK INTRA:                  -0.307
REMARK UNBOUND:                -0.331
REMARK  Name = 
REMARK  5 active torsions:
REMARK  status: ('A' for Active; 'I' for Inactive)
REMARK    1  A    between atoms: N_1  and  C_2
REMARK    2  A    between atoms: C_2  and  C_3
REMARK    3  A    between atoms: N_8  and  C_9
REMARK    4  A    between atoms: C_9  and  C_10
REMARK    5  A    between atoms: C_10  and  C_11
REMARK                            x       y       z     vdW  Elec       q    Type
REMARK                         _______ _______ _______ _____ _____    ______ ____
ROOT
ATOM      1  C   UNL     1      46.995   7.070  13.147  0.00  0.00    +0.000 A 
ATOM      2  C   UNL     1      46.402   8.326  13.247  0.00  0.00    +0.000 A 
ATOM      3  C   UNL     1      45.384   8.641  12.364  0.00  0.00    +0.000 A 
ATOM      4  N   UNL     1      44.924   7.803  11.405  0.00  0.00    +0.000 NA
ATOM      5  C   UNL     1      45.504   6.593  11.299  0.00  0.00    +0.000 A 
ATOM      6  N   UNL     1      45.033   5.792  10.263  0.00  0.00    +0.000 N 
ATOM      7  C   UNL     1      46.545   6.207  12.141  0.00  0.00    +0.000 A 
ATOM      8  H   UNL     1      44.187   6.245   9.920  0.00  0.00    +0.000 HD
ENDROOT
BRANCH   1   9
ATOM      9  C   UNL     1      48.098   6.648  14.076  0.00  0.00    +0.000 C 
BRANCH   9  10
ATOM     10  N   UNL     1      47.718   5.474  14.854  0.00  0.00    +0.000 NA
ATOM     11  H   UNL     1      48.492   4.813  14.854  0.00  0.00    +0.000 HD
ATOM     12  H   UNL     1      46.943   5.007  14.387  0.00  0.00    +0.000 HD
ENDBRANCH   9  10
ENDBRANCH   1   9
BRANCH   6  13
ATOM     13  C   UNL     1      44.945   4.358  10.498  0.00  0.00    +0.000 C 
BRANCH  13  14
ATOM     14  C   UNL     1      44.352   3.639   9.280  0.00  0.00    +0.000 C 
BRANCH  14  15
ATOM     15  C   UNL     1      45.433   2.980   8.454  0.00  0.00    +0.000 A 
ATOM     16  C   UNL     1      46.200   3.727   7.548  0.00  0.00    +0.000 A 
ATOM     17  C   UNL     1      47.172   3.108   6.756  0.00  0.00    +0.000 A 
ATOM     18  C   UNL     1      47.384   1.736   6.859  0.00  0.00    +0.000 A 
ATOM     19  C   UNL     1      46.623   0.992   7.753  0.00  0.00    +0.000 A 
ATOM     20  F   UNL     1      46.820  -0.329   7.847  0.00  0.00    +0.000 F 
ATOM     21  C   UNL     1      45.653   1.598   8.547  0.00  0.00    +0.000 A 
ENDBRANCH  14  15
ENDBRANCH  13  14
ENDBRANCH   6  13
TORSDOF 5
ENDMDL
MODEL 3
REMARK VINA RESULT:    -7.214      1.674      2.052
REMARK INTER + INTRA:          -9.443
REMARK INTER:                  -8.997
REMARK INTRA:                  -0.446
REMARK UNBOUND:                -0.331
REMARK  Name = 
REMARK  5 active torsions:
REMARK  status: ('A' for Active; 'I' for Inactive)
REMARK    1  A    between atoms: N_1  and  C_2
REMARK    2  A    between atoms: C_2  and  C_3
REMARK    3  A    between atoms: N_8  and  C_9
REMARK    4  A    between atoms: C_9  and  C_10
REMARK    5  A    between atoms: C_10  and  C_11
REMARK                            x       y       z     vdW  Elec       q    Type
REMARK                         _______ _______ _______ _____ _____    ______ ____
ROOT
ATOM      1  C   UNL     1      46.136   5.921  12.808  0.00  0.00    +0.000 A 
ATOM      2  C   UNL     1      46.992   5.369  13.758  0.00  0.00    +0.000 A 
ATOM      3  C   UNL     1      46.972   3.998  13.939  0.00  0.00    +0.000 A 
ATOM      4  N   UNL     1      46.171   3.152  13.248  0.00  0.00    +0.000 NA
ATOM      5  C   UNL     1      45.334   3.685  12.338  0.00  0.00    +0.000 A 
ATOM      6  N   UNL     1      44.494   2.780  11.696  0.00  0.00    +0.000 N 
ATOM      7  C   UNL     1      45.284   5.059  12.109  0.00  0.00    +0.000 A 
ATOM      8  H   UNL     1      44.846   1.853  11.931  0.00  0.00    +0.000 HD
ENDROOT
BRANCH   1   9
ATOM      9  C   UNL     1      46.106   7.400  12.545  0.00  0.00    +0.000 C 
BRANCH   9  10
ATOM     10  N   UNL     1      44.742   7.915  12.559  0.00  0.00    +0.000 NA
ATOM     11  H   UNL     1      44.112   7.178  12.868  0.00  0.00    +0.000 HD
ATOM     12  H   UNL     1      44.467   8.144  11.604  0.00  0.00    +0.000 HD
ENDBRANCH   9  10
ENDBRANCH   1   9
BRANCH   6  13
ATOM     13  C   UNL     1      44.186   3.015  10.293  0.00  0.00    +0.000 C 
BRANCH  13  14
ATOM     14  C   UNL     1      44.390   1.739   9.467  0.00  0.00    +0.000 C 
BRANCH  14  15
ATOM     15  C   UNL     1      45.470   1.927   8.427  0.00  0.00    +0.000 A 
ATOM     16  C   UNL     1      46.315   0.866   8.069  0.00  0.00    +0.000 A 
ATOM     17  C   UNL     1      47.339   1.054   7.136  0.00  0.00    +0.000 A 
ATOM     18  C   UNL     1      47.532   2.305   6.555  0.00  0.00    +0.000 A 
ATOM     19  C   UNL     1      46.700   3.360   6.911  0.00  0.00    +0.000 A 
ATOM     20  F   UNL     1      46.889   4.565   6.359  0.00  0.00    +0.000 F 
ATOM     21  C   UNL     1      45.676   3.183   7.838  0.00  0.00    +0.000 A 
ENDBRANCH  14  15
ENDBRANCH  13  14
ENDBRANCH   6  13
TORSDOF 5
ENDMDL
MODEL 4
REMARK VINA RESULT:    -6.876      1.644      1.984
REMARK INTER + INTRA:          -9.016
REMARK INTER:                  -8.717
REMARK INTRA:                  -0.299
REMARK UNBOUND:                -0.331
REMARK  Name = 
REMARK  5 active torsions:
REMARK  status: ('A' for Active; 'I' for Inactive)
REMARK    1  A    between atoms: N_1  and  C_2
REMARK    2  A    between atoms: C_2  and  C_3
REMARK    3  A    between atoms: N_8  and  C_9
REMARK    4  A    between atoms: C_9  and  C_10
REMARK    5  A    between atoms: C_10  and  C_11
REMARK                            x       y       z     vdW  Elec       q    Type
REMARK                         _______ _______ _______ _____ _____    ______ ____
ROOT
ATOM      1  C   UNL     1      45.287   8.550  12.108  0.00  0.00    +0.000 A 
ATOM      2  C   UNL     1      46.242   8.504  13.122  0.00  0.00    +0.000 A 
ATOM      3  C   UNL     1      46.907   7.311  13.341  0.00  0.00    +0.000 A 
ATOM      4  N   UNL     1      46.691   6.179  12.630  0.00  0.00    +0.000 NA
ATOM      5  C   UNL     1      45.761   6.218  11.658  0.00  0.00    +0.000 A 
ATOM      6  N   UNL     1      45.538   5.015  10.996  0.00  0.00    +0.000 N 
ATOM      7  C   UNL     1      45.037   7.377  11.387  0.00  0.00    +0.000 A 
ATOM      8  H   UNL     1      46.295   4.394  11.277  0.00  0.00    +0.000 HD
ENDROOT
BRANCH   1   9
ATOM      9  C   UNL     1      44.530   9.810  11.801  0.00  0.00    +0.000 C 
BRANCH   9  10
ATOM     10  N   UNL     1      45.301  10.995  12.161  0.00  0.00    +0.000 NA
ATOM     11  H   UNL     1      44.909  11.400  13.009  0.00  0.00    +0.000 HD
ATOM     12  H   UNL     1      45.187  11.696  11.431  0.00  0.00    +0.000 HD
ENDBRANCH   9  10
ENDBRANCH   1   9
BRANCH   6  13
ATOM     13  C   UNL     1      45.245   5.067   9.571  0.00  0.00    +0.000 C 
BRANCH  13  14
ATOM     14  C   UNL     1      44.655   3.737   9.083  0.00  0.00    +0.000 C 
BRANCH  14  15
ATOM     15  C   UNL     1      45.668   2.949   8.285  0.00  0.00    +0.000 A 
ATOM     16  C   UNL     1      46.478   3.581   7.330  0.00  0.00    +0.000 A 
ATOM     17  C   UNL     1      47.386   2.843   6.565  0.00  0.00    +0.000 A 
ATOM     18  C   UNL     1      47.490   1.466   6.744  0.00  0.00    +0.000 A 
ATOM     19  C   UNL     1      46.686   0.836   7.686  0.00  0.00    +0.000 A 
ATOM     20  F   UNL     1      46.779  -0.489   7.853  0.00  0.00    +0.000 F 
ATOM     21  C   UNL     1      45.779   1.561   8.454  0.00  0.00    +0.000 A 
ENDBRANCH  14  15
ENDBRANCH  13  14
ENDBRANCH   6  13
TORSDOF 5
ENDMDL
MODEL 5
REMARK VINA RESULT:    -6.834      3.145      6.609
REMARK INTER + INTRA:          -8.963
REMARK INTER:                  -8.510
REMARK INTRA:                  -0.453
REMARK UNBOUND:                -0.331
REMARK  Name = 
REMARK  5 active torsions:
REMARK  status: ('A' for Active; 'I' for Inactive)
REMARK    1  A    between atoms: N_1  and  C_2
REMARK    2  A    between atoms: C_2  and  C_3
REMARK    3  A    between atoms: N_8  and  C_9
REMARK    4  A    between atoms: C_9  and  C_10
REMARK    5  A    between atoms: C_10  and  C_11
REMARK                            x       y       z     vdW  Elec       q    Type
REMARK                         _______ _______ _______ _____ _____    ______ ____
ROOT
ATOM      1  C   UNL     1      46.126   2.243   8.121  0.00  0.00    +0.000 A 
ATOM      2  C   UNL     1      46.582   3.427   7.546  0.00  0.00    +0.000 A 
ATOM      3  C   UNL     1      46.037   4.621   7.985  0.00  0.00    +0.000 A 
ATOM      4  N   UNL     1      45.085   4.714   8.944  0.00  0.00    +0.000 NA
ATOM      5  C   UNL     1      44.634   3.570   9.492  0.00  0.00    +0.000 A 
ATOM      6  N   UNL     1      43.618   3.716  10.432  0.00  0.00    +0.000 N 
ATOM      7  C   UNL     1      45.122   2.327   9.093  0.00  0.00    +0.000 A 
ATOM      8  H   UNL     1      43.571   4.712  10.642  0.00  0.00    +0.000 HD
ENDROOT
BRANCH   1   9
ATOM      9  C   UNL     1      46.676   0.908   7.706  0.00  0.00    +0.000 C 
BRANCH   9  10
ATOM     10  N   UNL     1      47.847   1.059   6.851  0.00  0.00    +0.000 NA
ATOM     11  H   UNL     1      48.620   0.532   7.253  0.00  0.00    +0.000 HD
ATOM     12  H   UNL     1      48.135   2.036   6.856  0.00  0.00    +0.000 HD
ENDBRANCH   9  10
ENDBRANCH   1   9
BRANCH   6  13
ATOM     13  C   UNL     1      43.613   2.816  11.575  0.00  0.00    +0.000 C 
BRANCH  13  14
ATOM     14  C   UNL     1      43.593   3.603  12.892  0.00  0.00    +0.000 C 
BRANCH  14  15
ATOM     15  C   UNL     1      44.721   4.607  12.947  0.00  0.00    +0.000 A 
ATOM     16  C   UNL     1      46.038   4.194  13.195  0.00  0.00    +0.000 A 
ATOM     17  C   UNL     1      47.073   5.130  13.285  0.00  0.00    +0.000 A 
ATOM     18  C   UNL     1      46.801   6.487  13.131  0.00  0.00    +0.000 A 
ATOM     19  C   UNL     1      45.496   6.899  12.889  0.00  0.00    +0.000 A 
ATOM     20  F   UNL     1      45.233   8.205  12.749  0.00  0.00    +0.000 F 
ATOM     21  C   UNL     1      44.458   5.976  12.797  0.00  0.00    +0.000 A 
ENDBRANCH  14  15
ENDBRANCH  13  14
ENDBRANCH   6  13
TORSDOF 5
ENDMDL
MODEL 6
REMARK VINA RESULT:    -6.456      1.981      3.378
REMARK INTER + INTRA:          -8.486
REMARK INTER:                  -8.162
REMARK INTRA:                  -0.323
REMARK UNBOUND:                -0.331
REMARK  Name = 
REMARK  5 active torsions:
REMARK  status: ('A' for Active; 'I' for Inactive)
REMARK    1  A    between atoms: N_1  and  C_2
REMARK    2  A    between atoms: C_2  and  C_3
REMARK    3  A    between atoms: N_8  and  C_9
REMARK    4  A    between atoms: C_9  and  C_10
REMARK    5  A    between atoms: C_10  and  C_11
REMARK                            x       y       z     vdW  Elec       q    Type
REMARK                         _______ _______ _______ _____ _____    ______ ____
ROOT
ATOM      1  C   UNL     1      47.867   4.359  16.029  0.00  0.00    +0.000 A 
ATOM      2  C   UNL     1      48.602   5.481  16.404  0.00  0.00    +0.000 A 
ATOM      3  C   UNL     1      48.618   6.569  15.550  0.00  0.00    +0.000 A 
ATOM      4  N   UNL     1      47.961   6.616  14.367  0.00  0.00    +0.000 NA
ATOM      5  C   UNL     1      47.260   5.528  13.996  0.00  0.00    +0.000 A 
ATOM      6  N   UNL     1      46.650   5.606  12.748  0.00  0.00    +0.000 N 
ATOM      7  C   UNL     1      47.207   4.387  14.795  0.00  0.00    +0.000 A 
ATOM      8  H   UNL     1      46.715   6.582  12.464  0.00  0.00    +0.000 HD
ENDROOT
BRANCH   1   9
ATOM      9  C   UNL     1      47.791   3.142  16.906  0.00  0.00    +0.000 C 
BRANCH   9  10
ATOM     10  N   UNL     1      46.532   3.094  17.641  0.00  0.00    +0.000 NA
ATOM     11  H   UNL     1      45.783   3.425  17.037  0.00  0.00    +0.000 HD
ATOM     12  H   UNL     1      46.581   3.750  18.420  0.00  0.00    +0.000 HD
ENDBRANCH   9  10
ENDBRANCH   1   9
BRANCH   6  13
ATOM     13  C   UNL     1      45.348   4.975  12.586  0.00  0.00    +0.000 C 
BRANCH  13  14
ATOM     14  C   UNL     1      44.677   5.430  11.284  0.00  0.00    +0.000 C 
BRANCH  14  15
ATOM     15  C   UNL     1      45.061   4.537  10.128  0.00  0.00    +0.000 A 
ATOM     16  C   UNL     1      45.785   5.044   9.038  0.00  0.00    +0.000 A 
ATOM     17  C   UNL     1      46.105   4.225   7.951  0.00  0.00    +0.000 A 
ATOM     18  C   UNL     1      45.702   2.892   7.941  0.00  0.00    +0.000 A 
ATOM     19  C   UNL     1      44.981   2.388   9.017  0.00  0.00    +0.000 A 
ATOM     20  F   UNL     1      44.586   1.108   9.004  0.00  0.00    +0.000 F 
ATOM     21  C   UNL     1      44.658   3.194  10.105  0.00  0.00    +0.000 A 
ENDBRANCH  14  15
ENDBRANCH  13  14
ENDBRANCH   6  13
TORSDOF 5
ENDMDL
MODEL 7
REMARK VINA RESULT:    -6.264      2.791      4.201
REMARK INTER + INTRA:          -8.243
REMARK INTER:                  -7.925
REMARK INTRA:                  -0.318
REMARK UNBOUND:                -0.331
REMARK  Name = 
REMARK  5 active torsions:
REMARK  status: ('A' for Active; 'I' for Inactive)
REMARK    1  A    between atoms: N_1  and  C_2
REMARK    2  A    between atoms: C_2  and  C_3
REMARK    3  A    between atoms: N_8  and  C_9
REMARK    4  A    between atoms: C_9  and  C_10
REMARK    5  A    between atoms: C_10  and  C_11
REMARK                            x       y       z     vdW  Elec       q    Type
REMARK                         _______ _______ _______ _____ _____    ______ ____
ROOT
ATOM      1  C   UNL     1      47.704   4.516  17.843  0.00  0.00    +0.000 A 
ATOM      2  C   UNL     1      48.651   3.528  18.106  0.00  0.00    +0.000 A 
ATOM      3  C   UNL     1      48.984   2.653  17.088  0.00  0.00    +0.000 A 
ATOM      4  N   UNL     1      48.448   2.694  15.845  0.00  0.00    +0.000 NA
ATOM      5  C   UNL     1      47.524   3.640  15.592  0.00  0.00    +0.000 A 
ATOM      6  N   UNL     1      46.964   3.604  14.319  0.00  0.00    +0.000 N 
ATOM      7  C   UNL     1      47.123   4.549  16.570  0.00  0.00    +0.000 A 
ATOM      8  H   UNL     1      47.540   2.961  13.776  0.00  0.00    +0.000 HD
ENDROOT
BRANCH   1   9
ATOM      9  C   UNL     1      47.297   5.511  18.892  0.00  0.00    +0.000 C 
BRANCH   9  10
ATOM     10  N   UNL     1      47.445   6.880  18.413  0.00  0.00    +0.000 NA
ATOM     11  H   UNL     1      46.871   7.495  18.985  0.00  0.00    +0.000 HD
ATOM     12  H   UNL     1      47.071   6.939  17.466  0.00  0.00    +0.000 HD
ENDBRANCH   9  10
ENDBRANCH   1   9
BRANCH   6  13
ATOM     13  C   UNL     1      46.640   4.872  13.682  0.00  0.00    +0.000 C 
BRANCH  13  14
ATOM     14  C   UNL     1      45.217   4.851  13.111  0.00  0.00    +0.000 C 
BRANCH  14  15
ATOM     15  C   UNL     1      45.224   4.535  11.633  0.00  0.00    +0.000 A 
ATOM     16  C   UNL     1      45.621   5.500  10.695  0.00  0.00    +0.000 A 
ATOM     17  C   UNL     1      45.589   5.218   9.326  0.00  0.00    +0.000 A 
ATOM     18  C   UNL     1      45.157   3.971   8.881  0.00  0.00    +0.000 A 
ATOM     19  C   UNL     1      44.759   3.015   9.807  0.00  0.00    +0.000 A 
ATOM     20  F   UNL     1      44.336   1.819   9.380  0.00  0.00    +0.000 F 
ATOM     21  C   UNL     1      44.788   3.284  11.173  0.00  0.00    +0.000 A 
ENDBRANCH  14  15
ENDBRANCH  13  14
ENDBRANCH   6  13
TORSDOF 5
ENDMDL
MODEL 8
REMARK VINA RESULT:    -6.111      4.104      7.415
REMARK INTER + INTRA:          -8.050
REMARK INTER:                  -7.735
REMARK INTRA:                  -0.315
REMARK UNBOUND:                -0.331
REMARK  Name = 
REMARK  5 active torsions:
REMARK  status: ('A' for Active; 'I' for Inactive)
REMARK    1  A    between atoms: N_1  and  C_2
REMARK    2  A    between atoms: C_2  and  C_3
REMARK    3  A    between atoms: N_8  and  C_9
REMARK    4  A    between atoms: C_9  and  C_10
REMARK    5  A    between atoms: C_10  and  C_11
REMARK                            x       y       z     vdW  Elec       q    Type
REMARK                         _______ _______ _______ _____ _____    ______ ____
ROOT
ATOM      1  C   UNL     1      45.563   5.879  12.300  0.00  0.00    +0.000 A 
ATOM      2  C   UNL     1      44.897   4.948  11.507  0.00  0.00    +0.000 A 
ATOM      3  C   UNL     1      45.021   3.608  11.826  0.00  0.00    +0.000 A 
ATOM      4  N   UNL     1      45.752   3.139  12.864  0.00  0.00    +0.000 NA
ATOM      5  C   UNL     1      46.407   4.036  13.625  0.00  0.00    +0.000 A 
ATOM      6  N   UNL     1      47.187   3.500  14.645  0.00  0.00    +0.000 N 
ATOM      7  C   UNL     1      46.343   5.402  13.359  0.00  0.00    +0.000 A 
ATOM      8  H   UNL     1      46.928   2.516  14.710  0.00  0.00    +0.000 HD
ENDROOT
BRANCH   1   9
ATOM      9  C   UNL     1      45.469   7.353  12.026  0.00  0.00    +0.000 C 
BRANCH   9  10
ATOM     10  N   UNL     1      44.210   7.692  11.372  0.00  0.00    +0.000 NA
ATOM     11  H   UNL     1      44.171   7.227  10.467  0.00  0.00    +0.000 HD
ATOM     12  H   UNL     1      44.199   8.693  11.178  0.00  0.00    +0.000 HD
ENDBRANCH   9  10
ENDBRANCH   1   9
BRANCH   6  13
ATOM     13  C   UNL     1      47.260   4.230  15.902  0.00  0.00    +0.000 C 
BRANCH  13  14
ATOM     14  C   UNL     1      47.566   3.283  17.069  0.00  0.00    +0.000 C 
BRANCH  14  15
ATOM     15  C   UNL     1      49.052   3.200  17.331  0.00  0.00    +0.000 A 
ATOM     16  C   UNL     1      49.760   4.314  17.808  0.00  0.00    +0.000 A 
ATOM     17  C   UNL     1      51.142   4.246  18.012  0.00  0.00    +0.000 A 
ATOM     18  C   UNL     1      51.830   3.067  17.737  0.00  0.00    +0.000 A 
ATOM     19  C   UNL     1      51.132   1.964  17.260  0.00  0.00    +0.000 A 
ATOM     20  F   UNL     1      51.794   0.832  16.988  0.00  0.00    +0.000 F 
ATOM     21  C   UNL     1      49.757   2.020  17.055  0.00  0.00    +0.000 A 
ENDBRANCH  14  15
ENDBRANCH  13  14
ENDBRANCH   6  13
TORSDOF 5
ENDMDL
MODEL 9
REMARK VINA RESULT:    -6.043      1.996      2.984
REMARK INTER + INTRA:          -7.965
REMARK INTER:                  -7.483
REMARK INTRA:                  -0.481
REMARK UNBOUND:                -0.331
REMARK  Name = 
REMARK  5 active torsions:
REMARK  status: ('A' for Active; 'I' for Inactive)
REMARK    1  A    between atoms: N_1  and  C_2
REMARK    2  A    between atoms: C_2  and  C_3
REMARK    3  A    between atoms: N_8  and  C_9
REMARK    4  A    between atoms: C_9  and  C_10
REMARK    5  A    between atoms: C_10  and  C_11
REMARK                            x       y       z     vdW  Elec       q    Type
REMARK                         _______ _______ _______ _____ _____    ______ ____
ROOT
ATOM      1  C   UNL     1      47.514   8.701  12.539  0.00  0.00    +0.000 A 
ATOM      2  C   UNL     1      48.823   8.223  12.550  0.00  0.00    +0.000 A 
ATOM      3  C   UNL     1      49.032   6.898  12.891  0.00  0.00    +0.000 A 
ATOM      4  N   UNL     1      48.044   6.032  13.215  0.00  0.00    +0.000 NA
ATOM      5  C   UNL     1      46.780   6.496  13.217  0.00  0.00    +0.000 A 
ATOM      6  N   UNL     1      45.808   5.581  13.611  0.00  0.00    +0.000 N 
ATOM      7  C   UNL     1      46.488   7.821  12.900  0.00  0.00    +0.000 A 
ATOM      8  H   UNL     1      46.267   4.672  13.628  0.00  0.00    +0.000 HD
ENDROOT
BRANCH   1   9
ATOM      9  C   UNL     1      47.203  10.124  12.169  0.00  0.00    +0.000 C 
BRANCH   9  10
ATOM     10  N   UNL     1      45.768  10.377  12.193  0.00  0.00    +0.000 NA
ATOM     11  H   UNL     1      45.459  10.445  13.160  0.00  0.00    +0.000 HD
ATOM     12  H   UNL     1      45.285   9.573  11.795  0.00  0.00    +0.000 HD
ENDBRANCH   9  10
ENDBRANCH   1   9
BRANCH   6  13
ATOM     13  C   UNL     1      44.513   5.635  12.946  0.00  0.00    +0.000 C 
BRANCH  13  14
ATOM     14  C   UNL     1      44.073   4.238  12.491  0.00  0.00    +0.000 C 
BRANCH  14  15
ATOM     15  C   UNL     1      44.550   3.944  11.087  0.00  0.00    +0.000 A 
ATOM     16  C   UNL     1      45.061   4.966  10.274  0.00  0.00    +0.000 A 
ATOM     17  C   UNL     1      45.465   4.699   8.963  0.00  0.00    +0.000 A 
ATOM     18  C   UNL     1      45.357   3.409   8.450  0.00  0.00    +0.000 A 
ATOM     19  C   UNL     1      44.846   2.395   9.251  0.00  0.00    +0.000 A 
ATOM     20  F   UNL     1      44.735   1.156   8.756  0.00  0.00    +0.000 F 
ATOM     21  C   UNL     1      44.443   2.649  10.559  0.00  0.00    +0.000 A 
ENDBRANCH  14  15
ENDBRANCH  13  14
ENDBRANCH   6  13
TORSDOF 5
ENDMDL
